/*--------------------------------*- C++ -*----------------------------------*\
| =========                 |                                                 |
| \\      /  F ield         | OpenFOAM: The Open Source CFD Toolbox           |
|  \\    /   O peration     | Version:  2.3.1                                 |
|   \\  /    A nd           | Web:      www.OpenFOAM.org                      |
|    \\/     M anipulation  |                                                 |
\*---------------------------------------------------------------------------*/
FoamFile
{
    version     2.0;
    format      ascii;
    class       dictionary;
    location    "constant";
    object      CH2(S);
}
// * * * * * * * * * * * * * * * * * * * * * * * * * * * * * * * * * * * * * //

CH2(S)_table
101
(

101
(
4.569160915e-25
5.76236095e-18
4.421047907e-16
4.241799994e-15
1.818121828e-14
5.065509568e-14
1.089624556e-13
2.025540135e-13
3.35688908e-13
5.117411671e-13
7.293065636e-13
9.847299125e-13
1.269002002e-12
1.571051585e-12
1.874035245e-12
2.159896405e-12
2.409216105e-12
2.601760965e-12
2.731775855e-12
2.779901836e-12
2.756592039e-12
2.666567488e-12
2.514980636e-12
2.32081368e-12
2.100415278e-12
1.867871527e-12
1.635489269e-12
1.412691316e-12
1.206264698e-12
1.019769543e-12
8.549435362e-13
7.111603201e-13
5.854684398e-13
4.826855485e-13
3.953702642e-13
3.225320822e-13
2.9326081e-13
2.944018784e-13
2.371968758e-13
1.911179645e-13
1.538734956e-13
1.227535433e-13
9.780092546e-14
7.760028495e-14
6.103689801e-14
4.786660402e-14
3.722314968e-14
2.885252922e-14
2.217577039e-14
1.697052232e-14
1.286855789e-14
9.68393521e-15
7.224702491e-15
5.338293511e-15
3.901003678e-15
2.8103951e-15
2.024906773e-15
1.425222213e-15
9.985564325e-16
6.86228338e-16
4.678351263e-16
3.125234907e-16
2.042700749e-16
1.311006136e-16
8.326474026e-17
5.13862204e-17
3.089596758e-17
1.81483536e-17
1.047274942e-17
5.817493278e-18
3.164143729e-18
1.658131582e-18
8.560725637e-19
4.279279938e-19
2.643295956e-19
1.57094654e-19
6.745131567e-20
2.862782985e-20
1.179615351e-20
4.629745745e-21
1.696669014e-21
6.639680907e-22
2.435567368e-22
1.339559744e-22
6.637988279e-23
2.295855686e-23
7.781118847e-24
2.559885204e-24
8.196823747e-25
5.046939859e-25
1.522557699e-25
3.63742509e-26
9.377806575e-27
2.911400718e-27
8.21561323e-28
9.061161059e-29
-1.459546173e-34
-7.418428377e-52
2.271427879e-44
-1.725629891e-44
0
)


101
(
4.51560979e-25
4.483724903e-18
4.055386295e-16
3.931680349e-15
1.678551562e-14
4.672097224e-14
1.007700751e-13
1.868376519e-13
3.091066315e-13
4.70518409e-13
6.700985619e-13
9.046962027e-13
1.166688062e-12
1.446625297e-12
1.730168051e-12
2.000947382e-12
2.241764253e-12
2.436403219e-12
2.571662673e-12
2.639842628e-12
2.638969821e-12
2.572118063e-12
2.449275122e-12
2.282811276e-12
2.086415481e-12
1.873509256e-12
1.6561124e-12
1.443875556e-12
1.244201755e-12
1.061367741e-12
8.9774901e-13
7.535633423e-13
6.270531119e-13
5.199078027e-13
4.284767063e-13
3.511270411e-13
3.005207552e-13
2.73677297e-13
2.344211981e-13
1.926311381e-13
1.563070981e-13
1.259090516e-13
1.010914211e-13
8.091132963e-14
6.445150488e-14
5.114401286e-14
4.037085279e-14
3.171540336e-14
2.47720292e-14
1.924249723e-14
1.485280437e-14
1.138798359e-14
8.667392247e-15
6.536386371e-15
4.884370816e-15
3.616240926e-15
2.658732209e-15
1.934847832e-15
1.394737455e-15
9.941650401e-16
7.008081176e-16
4.877749826e-16
3.342984941e-16
2.253076149e-16
1.495619006e-16
9.782716338e-17
6.274443341e-17
3.9445964e-17
2.425152031e-17
1.456128134e-17
8.538428683e-18
4.880233495e-18
2.717782539e-18
1.455099369e-18
7.742871229e-19
4.10042251e-19
2.043823308e-19
9.687644836e-20
4.426989904e-20
1.945890287e-20
8.232221508e-21
3.330090929e-21
1.313808803e-21
5.187848982e-22
2.109641308e-22
8.863261883e-23
3.787535714e-23
1.531590994e-23
5.775896335e-24
2.260811642e-24
8.70750654e-25
3.26048553e-25
1.137162284e-25
3.690848438e-26
1.277002647e-26
3.647518398e-27
2.569309319e-28
5.055979311e-28
1.075380283e-27
4.463132991e-27
2.174915113e-26
)


101
(
4.462058666e-25
3.456682154e-18
3.760801399e-16
3.702697496e-15
1.587097273e-14
4.436206192e-14
9.617247469e-14
1.788568343e-13
2.969511444e-13
4.536696304e-13
6.487635834e-13
8.797679083e-13
1.140166832e-12
1.421481649e-12
1.710673199e-12
1.992177099e-12
2.249295045e-12
2.465984289e-12
2.627255856e-12
2.725010586e-12
2.754085334e-12
2.71541506e-12
2.617385134e-12
2.470298988e-12
2.286915941e-12
2.080497749e-12
1.863431025e-12
1.646232841e-12
1.437467024e-12
1.242638865e-12
1.065293259e-12
9.066037504e-13
7.653722304e-13
6.433132981e-13
5.370728866e-13
4.457490188e-13
3.78398286e-13
3.343773414e-13
2.923374597e-13
2.47889045e-13
2.059206415e-13
1.690361063e-13
1.381635282e-13
1.126507637e-13
9.155464492e-14
7.423542311e-14
5.999812947e-14
4.831850739e-14
3.875783663e-14
3.096174794e-14
2.462385632e-14
1.949230169e-14
1.535780804e-14
1.203108072e-14
9.361047875e-15
7.232317351e-15
5.551463497e-15
4.232845483e-15
3.20594692e-15
2.409088838e-15
1.796455175e-15
1.327580553e-15
9.704768511e-16
7.01813933e-16
5.019670831e-16
3.549123861e-16
2.473053424e-16
1.697278554e-16
1.147432793e-16
7.604274166e-17
4.943426617e-17
3.14012388e-17
1.962350788e-17
1.193057899e-17
7.047269252e-18
4.058355531e-18
2.268198995e-18
1.229619669e-18
6.475147466e-19
3.2876188e-19
1.610218138e-19
7.514018171e-20
3.379578182e-20
1.438004842e-20
5.814946335e-21
2.278964551e-21
9.22500917e-22
3.961697403e-22
1.591931081e-22
6.249490027e-23
2.514223265e-23
1.005536774e-23
4.337592109e-24
1.730852438e-24
7.342769555e-25
2.865134528e-25
4.326422998e-26
1.410883801e-25
4.268787001e-25
2.277246515e-24
-3.638620756e-22
)


101
(
4.408507542e-25
2.576561536e-18
3.501959058e-16
3.50790076e-15
1.513173721e-14
4.250957132e-14
9.259725069e-14
1.728289542e-13
2.880539379e-13
4.417947093e-13
6.344701779e-13
8.642796181e-13
1.125723186e-12
1.411240264e-12
1.709011378e-12
2.004325132e-12
2.280984841e-12
2.522959807e-12
2.714227692e-12
2.845431497e-12
2.908992731e-12
2.903542187e-12
2.835344168e-12
2.712549837e-12
2.54666634e-12
2.350554979e-12
2.136704733e-12
1.916294231e-12
1.699058169e-12
1.491728347e-12
1.299180677e-12
1.123857657e-12
9.652229179e-13
8.257403698e-13
7.016298375e-13
5.910810075e-13
5.059344782e-13
4.427204292e-13
3.897611024e-13
3.389956777e-13
2.896672617e-13
2.441092687e-13
2.044351602e-13
1.706790596e-13
1.421712124e-13
1.183299354e-13
9.833264563e-14
8.157332375e-14
6.748635801e-14
5.568878236e-14
4.580047966e-14
3.755074811e-14
3.06945061e-14
2.499978344e-14
2.027099367e-14
1.636299359e-14
1.313215473e-14
1.048286837e-14
8.326927279e-15
6.572677952e-15
5.15920133e-15
4.023597772e-15
3.113595903e-15
2.390203588e-15
1.818676422e-15
1.369733058e-15
1.020376991e-15
7.501893058e-16
5.459524971e-16
3.917611798e-16
2.765657699e-16
1.916242076e-16
1.30823105e-16
8.762548643e-17
5.734248568e-17
3.662583675e-17
2.278407829e-17
1.380805654e-17
8.165159442e-18
4.708427132e-18
2.642165892e-18
1.423017016e-18
7.405020783e-19
3.693702189e-19
1.750245688e-19
7.864756796e-20
3.364981997e-20
1.471866596e-20
6.320018299e-21
2.511284962e-21
9.522198606e-22
3.756820377e-22
1.578326659e-22
6.550452494e-23
2.851499395e-23
1.129114198e-23
1.695573653e-24
1.132661106e-23
5.006281369e-23
4.003432031e-22
2.283384009e-21
)


101
(
4.354956418e-25
1.795096746e-18
3.264334099e-16
3.32986657e-15
1.446550727e-14
4.084521151e-14
8.937084303e-14
1.67414497e-13
2.801153589e-13
4.313268882e-13
6.221371308e-13
8.514500796e-13
1.114800966e-12
1.405610716e-12
1.713325549e-12
2.024220965e-12
2.322720988e-12
2.592932426e-12
2.818045891e-12
2.987434197e-12
3.091196993e-12
3.125533084e-12
3.094398509e-12
3.003403557e-12
2.862369502e-12
2.683320821e-12
2.478499195e-12
2.259482865e-12
2.037041355e-12
1.8190684e-12
1.611727623e-12
1.419127401e-12
1.241516174e-12
1.08292167e-12
9.39173226e-13
8.091720019e-13
7.004690407e-13
6.147642294e-13
5.449387189e-13
4.823846711e-13
4.227954512e-13
3.662152948e-13
3.149953097e-13
2.698445768e-13
2.30604009e-13
1.970229164e-13
1.682354852e-13
1.435843011e-13
1.223440102e-13
1.04096779e-13
8.834945105e-14
7.480543572e-14
6.319985258e-14
5.327664209e-14
4.477195473e-14
3.748375251e-14
3.127044641e-14
2.596385599e-14
2.147384226e-14
1.76558408e-14
1.445036266e-14
1.177102776e-14
9.53165688e-15
7.674538143e-15
6.137865993e-15
4.862820129e-15
3.817698866e-15
2.968102711e-15
2.287454429e-15
1.746053048e-15
1.313332752e-15
9.73813845e-16
7.123161385e-16
5.140456513e-16
3.646525296e-16
2.53737296e-16
1.723965348e-16
1.14810142e-16
7.478875606e-17
4.76829718e-17
2.978136938e-17
1.802318062e-17
1.058596352e-17
6.033162913e-18
3.304291128e-18
1.72764869e-18
8.565740139e-19
4.149660656e-19
1.99753294e-19
9.186160618e-20
3.85219983e-20
1.576897965e-20
6.362367599e-21
2.582396612e-21
1.1038906e-21
4.174337455e-22
7.74911043e-23
9.35122507e-22
4.342660014e-21
3.314509011e-20
1.147364175e-19
)


101
(
4.301405284e-25
1.08909479e-18
3.041814369e-16
3.162058344e-15
1.383782437e-14
3.92731933e-14
8.631321099e-14
1.622932143e-13
2.726391668e-13
4.215638488e-13
6.108431999e-13
8.401341527e-13
1.106039583e-12
1.403038142e-12
1.721896651e-12
2.050018503e-12
2.37260122e-12
2.674052115e-12
2.936995784e-12
3.149663619e-12
3.299904887e-12
3.381427543e-12
3.395750144e-12
3.345570182e-12
3.238562677e-12
3.085453353e-12
2.897767896e-12
2.687113976e-12
2.46507052e-12
2.240564602e-12
2.021124584e-12
1.812077398e-12
1.615146904e-12
1.436538357e-12
1.271609655e-12
1.119889168e-12
9.86233963e-13
8.745187335e-13
7.822347876e-13
7.023460137e-13
6.284531509e-13
5.579186303e-13
4.922882471e-13
4.324628574e-13
3.787607914e-13
3.315334619e-13
2.901192184e-13
2.539885e-13
2.222196704e-13
1.942741784e-13
1.695062867e-13
1.475834228e-13
1.282528999e-13
1.112886221e-13
9.637970701e-14
8.321162767e-14
7.163870163e-14
6.143928876e-14
5.254867245e-14
4.4711419e-14
3.786486168e-14
3.196168406e-14
2.683990237e-14
2.244402268e-14
1.868254307e-14
1.543803378e-14
1.265616182e-14
1.028918218e-14
8.294529497e-15
6.650598909e-15
5.271269042e-15
4.128908594e-15
3.193656179e-15
2.442761282e-15
1.844058599e-15
1.372152839e-15
1.004102945e-15
7.216910807e-16
5.076313521e-16
3.507989122e-16
2.381874542e-16
1.58918448e-16
1.029633943e-16
6.522987754e-17
4.009612091e-17
2.385104469e-17
1.350792194e-17
7.419714112e-18
3.985241892e-18
2.107041512e-18
1.034058776e-18
4.852354997e-19
2.239874483e-19
9.768316371e-20
4.401325221e-20
1.723795798e-20
3.905720905e-21
4.223337006e-20
1.945358764e-19
1.706491104e-18
5.585711778e-18
)


101
(
4.24785417e-25
4.466647368e-19
2.831702539e-16
3.001953448e-15
1.323680396e-14
3.776365548e-14
8.337292854e-14
1.573798043e-13
2.654989378e-13
4.12328107e-13
6.003511949e-13
8.300226212e-13
1.099045672e-12
1.403035118e-12
1.734138015e-12
2.081030225e-12
2.42986744e-12
2.765545039e-12
3.070371434e-12
3.331644763e-12
3.535084384e-12
3.67191339e-12
3.741172494e-12
3.742308095e-12
3.680368705e-12
3.564331671e-12
3.404479974e-12
3.211913374e-12
2.998672197e-12
2.774502346e-12
2.548187717e-12
2.326262003e-12
2.111769087e-12
1.913860048e-12
1.72768656e-12
1.553378486e-12
1.393984882e-12
1.25399707e-12
1.134764791e-12
1.032156449e-12
9.393388975e-13
8.512868486e-13
7.682275195e-13
6.905103836e-13
6.185574606e-13
5.534216748e-13
4.948791929e-13
4.429027556e-13
3.964524825e-13
3.547866283e-13
3.170750541e-13
2.828068481e-13
2.517728675e-13
2.238544434e-13
1.988254345e-13
1.761691254e-13
1.557063294e-13
1.371849988e-13
1.205726362e-13
1.055425502e-13
9.204091142e-14
8.003166674e-14
6.929967313e-14
5.976519047e-14
5.137049374e-14
4.393152928e-14
3.73249516e-14
3.148946201e-14
2.636573744e-14
2.195127208e-14
1.814440845e-14
1.486804611e-14
1.205853484e-14
9.680015798e-15
7.685295321e-15
6.032310778e-15
4.681583663e-15
3.579365467e-15
2.688136707e-15
1.986160553e-15
1.444542326e-15
1.0382717e-15
7.298387595e-16
5.026283252e-16
3.39266953e-16
2.229716462e-16
1.414420065e-16
8.664529245e-17
5.203518601e-17
3.085761723e-17
1.737408663e-17
9.258739021e-18
4.919920648e-18
2.48824043e-18
1.261563717e-18
5.403560962e-19
1.482068118e-19
1.741972447e-18
7.204213494e-18
4.810692835e-17
1.267764638e-16
)


101
(
4.194303036e-25
-1.389193619e-19
2.632692327e-16
2.848509098e-15
1.265806683e-14
3.630633146e-14
8.053251311e-14
1.526444178e-13
2.58646474e-13
4.035429389e-13
5.905449539e-13
8.209437208e-13
1.093577389e-12
1.405272999e-12
1.749628852e-12
2.116734813e-12
2.493909141e-12
2.866759971e-12
3.217561217e-12
3.532952292e-12
3.796709841e-12
3.997635474e-12
4.132314148e-12
4.196710596e-12
4.19275193e-12
4.127250178e-12
4.008751606e-12
3.847204663e-12
3.654574451e-12
3.44107266e-12
3.216552991e-12
2.988651535e-12
2.761473223e-12
2.547611582e-12
2.342409946e-12
2.146874679e-12
1.9627238e-12
1.794140382e-12
1.645443174e-12
1.515866357e-12
1.399644038e-12
1.290246687e-12
1.186799487e-12
1.088354501e-12
9.948345368e-13
9.078519803e-13
8.275832031e-13
7.548624718e-13
6.889108978e-13
6.288812362e-13
5.736588614e-13
5.223625007e-13
4.748614651e-13
4.311434999e-13
3.911118967e-13
3.542011945e-13
3.202099512e-13
2.886445847e-13
2.596202282e-13
2.326898671e-13
2.078812971e-13
1.852539684e-13
1.645454952e-13
1.456832698e-13
1.286037675e-13
1.131191899e-13
9.898166301e-14
8.615339545e-14
7.449955368e-14
6.407292953e-14
5.48133664e-14
4.657018296e-14
3.926026198e-14
3.280832317e-14
2.716862548e-14
2.227686584e-14
1.811328456e-14
1.456993682e-14
1.156661353e-14
9.048604552e-15
6.972257492e-15
5.311848882e-15
3.993752163e-15
2.944530434e-15
2.13987655e-15
1.524507155e-15
1.058185623e-15
7.115693337e-16
4.705961479e-16
3.059116256e-16
1.937228155e-16
1.157983756e-16
6.910395156e-17
3.999801387e-17
2.26379537e-17
1.152882395e-17
4.001734755e-18
3.752349866e-17
1.391938648e-16
7.726917486e-16
1.907776452e-15
)


101
(
4.140751922e-25
-6.720013669e-19
2.444048829e-16
2.701229806e-15
1.209973142e-14
3.489681404e-14
7.778369068e-14
1.480711734e-13
2.520518831e-13
3.951544739e-13
5.813356435e-13
8.127595885e-13
1.089433228e-12
1.409471758e-12
1.76800137e-12
2.156668884e-12
2.564169825e-12
2.97707936e-12
3.377954513e-12
3.753115644e-12
4.084666796e-12
4.35910468e-12
4.570620778e-12
4.711658778e-12
4.780529809e-12
4.781457865e-12
4.720851853e-12
4.606850506e-12
4.450625075e-12
4.262298348e-12
4.052496054e-12
3.829808426e-12
3.599042187e-12
3.376419315e-12
3.157774501e-12
2.945381327e-12
2.740092415e-12
2.545363484e-12
2.367674339e-12
2.209318393e-12
2.066746657e-12
1.933185029e-12
1.806998261e-12
1.685721566e-12
1.568264284e-12
1.456513516e-12
1.350781572e-12
1.252907757e-12
1.162816723e-12
1.07970457e-12
1.002040569e-12
9.288232494e-13
8.597839084e-13
7.946821235e-13
7.340176031e-13
6.772872266e-13
6.240345164e-13
5.73576608e-13
5.262569141e-13
4.813973723e-13
4.391190528e-13
3.996351593e-13
3.625694962e-13
3.281366931e-13
2.962719554e-13
2.668709638e-13
2.395177222e-13
2.14010297e-13
1.90179996e-13
1.680330209e-13
1.478399593e-13
1.293648021e-13
1.126681318e-13
9.745902333e-14
8.360715427e-14
7.112782577e-14
6.007768392e-14
5.033800994e-14
4.177338769e-14
3.424027361e-14
2.772852745e-14
2.219627432e-14
1.762369976e-14
1.376403544e-14
1.062534225e-14
8.056033499e-15
6.023785391e-15
4.374344727e-15
3.132986264e-15
2.208283295e-15
1.523002044e-15
1.006755643e-15
6.644732908e-16
4.301226353e-16
2.70169817e-16
1.605375405e-16
6.85808504e-17
4.899932536e-16
1.623753659e-15
7.51206569e-15
1.934909212e-14
)


101
(
4.087200768e-25
-1.155789829e-18
2.265273975e-16
2.559823703e-15
1.156075889e-14
3.353248966e-14
7.51207862e-14
1.436480335e-13
2.456906578e-13
3.871160215e-13
5.726437686e-13
8.053446722e-13
1.086427483e-12
1.415370241e-12
1.78890912e-12
2.20039084e-12
2.640109468e-12
3.095885804e-12
3.550909798e-12
3.991584932e-12
4.398706811e-12
4.756656493e-12
5.057281201e-12
5.28974443e-12
5.448308819e-12
5.534169144e-12
5.551185133e-12
5.505063659e-12
5.405386761e-12
5.261439739e-12
5.084134444e-12
4.882834767e-12
4.66277293e-12
4.443672475e-12
4.221647208e-12
4.001013474e-12
3.782427944e-12
3.568363631e-12
3.366684938e-12
3.181918282e-12
3.013068191e-12
2.85426975e-12
2.704679108e-12
2.560294798e-12
2.418587459e-12
2.281330612e-12
2.148475188e-12
2.022932991e-12
1.905213619e-12
1.795110121e-12
1.691042342e-12
1.591953708e-12
1.497023653e-12
1.405740586e-12
1.318951052e-12
1.236290862e-12
1.157870882e-12
1.081947277e-12
1.009777289e-12
9.40218184e-13
8.731713529e-13
8.093388834e-13
7.480503373e-13
6.899039933e-13
6.349654155e-13
5.832950682e-13
5.34583398e-13
4.882023862e-13
4.439438596e-13
4.017668469e-13
3.621874254e-13
3.250820213e-13
2.905404124e-13
2.584259852e-13
2.284374862e-13
2.005506978e-13
1.748454283e-13
1.514831989e-13
1.304141682e-13
1.111355401e-13
9.367485598e-14
7.827587746e-14
6.491584575e-14
5.328864044e-14
4.318182896e-14
3.44916444e-14
2.734778626e-14
2.11840009e-14
1.618992949e-14
1.221638774e-14
9.039670198e-15
6.516248137e-15
4.658581883e-15
3.295605607e-15
2.259242929e-15
1.48045977e-15
7.799393534e-16
4.288135943e-15
1.263562947e-14
4.789464985e-14
1.257160397e-13
)


101
(
4.033649653e-25
-1.592929281e-18
2.095968903e-16
2.42407702e-15
1.104041424e-14
3.221137984e-14
7.25390621e-14
1.393643728e-13
2.39541472e-13
3.793869487e-13
5.643980597e-13
7.985831699e-13
1.084385122e-12
1.422718207e-12
1.812014143e-12
2.247462117e-12
2.7211758e-12
3.222521773e-12
3.735696513e-12
4.247640406e-12
4.738314723e-12
5.190309268e-12
5.593244794e-12
5.93323924e-12
6.200389616e-12
6.392390019e-12
6.510089949e-12
6.556193274e-12
6.537909389e-12
6.462856178e-12
6.341467529e-12
6.183412578e-12
5.994161711e-12
5.797162225e-12
5.588003699e-12
5.373561161e-12
5.155181442e-12
4.934358408e-12
4.719364948e-12
4.51627091e-12
4.326500753e-12
4.145659253e-12
3.975519019e-12
3.811086063e-12
3.648368005e-12
3.488746915e-12
3.330874733e-12
3.178398961e-12
3.032357323e-12
2.893927634e-12
2.761797228e-12
2.635134949e-12
2.512400173e-12
2.392432186e-12
2.275374472e-12
2.162331666e-12
2.054052857e-12
1.947426872e-12
1.844585672e-12
1.744078261e-12
1.645262785e-12
1.54915281e-12
1.45542462e-12
1.36448456e-12
1.276588804e-12
1.192142804e-12
1.11197237e-12
1.034512964e-12
9.59588439e-13
8.864256847e-13
8.158670745e-13
7.480432e-13
6.836419625e-13
6.225280938e-13
5.642599088e-13
5.0840453e-13
4.553401867e-13
4.057880337e-13
3.59796449e-13
3.166609947e-13
2.76144114e-13
2.391033972e-13
2.056059369e-13
1.756538672e-13
1.484078188e-13
1.236717203e-13
1.025546136e-13
8.374104343e-14
6.747621034e-14
5.39498627e-14
4.229672936e-14
3.261566789e-14
2.494431951e-14
1.893943568e-14
1.40588754e-14
9.974586259e-15
6.013960007e-15
2.701710651e-14
7.150976523e-14
2.214582233e-13
4.601947426e-13
)


101
(
3.980106586e-25
-1.985800002e-18
1.935782027e-16
2.293807827e-15
1.053807694e-14
3.093175799e-14
7.003425537e-14
1.352105223e-13
2.335849205e-13
3.719305689e-13
5.565330299e-13
7.923675869e-13
1.083141188e-12
1.431276564e-12
1.836989503e-12
2.297452926e-12
2.806812705e-12
3.35629807e-12
3.931517522e-12
4.520444164e-12
5.102763242e-12
5.659751984e-12
6.179068216e-12
6.643913031e-12
7.040522677e-12
7.36257732e-12
7.607324554e-12
7.774059958e-12
7.866992612e-12
7.891178283e-12
7.8556051e-12
7.769468086e-12
7.63808138e-12
7.489213055e-12
7.3168845e-12
7.130535155e-12
6.932921733e-12
6.724964896e-12
6.514849529e-12
6.309375063e-12
6.111816295e-12
5.919159677e-12
5.737197493e-12
5.561398665e-12
5.386551701e-12
5.213499005e-12
5.038539303e-12
4.865560177e-12
4.696067678e-12
4.533047314e-12
4.37565306e-12
4.223758463e-12
4.075611909e-12
3.928708834e-12
3.782087739e-12
3.639145188e-12
3.49942392e-12
3.360104418e-12
3.223261227e-12
3.088525386e-12
2.95390492e-12
2.820105868e-12
2.687168444e-12
2.555442256e-12
2.425919851e-12
2.298684005e-12
2.175451605e-12
2.055889329e-12
1.938928911e-12
1.822830141e-12
1.708330737e-12
1.595439584e-12
1.485766872e-12
1.379640982e-12
1.276699406e-12
1.175826964e-12
1.077635761e-12
9.836219027e-13
8.934022694e-13
8.072882722e-13
7.24479297e-13
6.459091298e-13
5.726246736e-13
5.052495609e-13
4.418420913e-13
3.815871439e-13
3.27966907e-13
2.79513052e-13
2.355888546e-13
1.967352604e-13
1.619208904e-13
1.31867549e-13
1.064286499e-13
8.541573564e-14
6.764133582e-14
5.162008711e-14
3.525502274e-14
1.267227665e-13
3.030179212e-13
8.076721915e-13
1.588109123e-12
)


101
(
3.926583757e-25
-2.336618486e-18
1.784382176e-16
2.168849084e-15
1.005318293e-14
2.969204157e-14
6.760241387e-14
1.31177548e-13
2.278034837e-13
3.647134493e-13
5.489878798e-13
7.865977085e-13
1.08254029e-12
1.440816836e-12
1.863517655e-12
2.349938491e-12
2.896466132e-12
3.496506414e-12
4.137522653e-12
4.809048569e-12
5.491071605e-12
6.164201149e-12
6.814525816e-12
7.422452612e-12
7.970762408e-12
8.449007651e-12
8.850481792e-12
9.170604951e-12
9.410001915e-12
9.570221185e-12
9.657737883e-12
9.680339641e-12
9.642506723e-12
9.576562415e-12
9.474191404e-12
9.347088101e-12
9.19970944e-12
9.032876003e-12
8.854865118e-12
8.673215694e-12
8.49143562e-12
8.307213941e-12
8.13110105e-12
7.960517349e-12
7.789933372e-12
7.620324411e-12
7.445177107e-12
7.267593138e-12
7.088522344e-12
6.913160346e-12
6.741201291e-12
6.573975184e-12
6.410114189e-12
6.24586206e-12
6.079014217e-12
5.913093104e-12
5.748336469e-12
5.580584088e-12
5.413476471e-12
5.247024166e-12
5.078802795e-12
4.908156481e-12
4.735396039e-12
4.560268981e-12
4.384096559e-12
4.208759001e-12
4.034644026e-12
3.863467283e-12
3.695078599e-12
3.525418377e-12
3.355588721e-12
3.18447063e-12
3.01336487e-12
2.844367852e-12
2.677883872e-12
2.51268084e-12
2.348093464e-12
2.186087821e-12
2.02747034e-12
1.872136498e-12
1.719371467e-12
1.570643506e-12
1.427878622e-12
1.292592289e-12
1.163333189e-12
1.036060232e-12
9.16605699e-13
8.071021787e-13
7.051785699e-13
6.104676161e-13
5.223840006e-13
4.443103537e-13
3.749779841e-13
3.143172654e-13
2.61610423e-13
2.116611597e-13
1.590693115e-13
4.790165005e-13
1.043097455e-12
2.420553471e-12
4.310271054e-12
)


101
(
3.873060928e-25
-2.647490594e-18
1.641452134e-16
2.049042304e-15
9.585203867e-15
2.849075979e-14
6.5239816e-14
1.272570191e-13
2.221817287e-13
3.577064471e-13
5.41705644e-13
7.811792173e-13
1.082433956e-12
1.451112786e-12
1.891276167e-12
2.404482e-12
2.989577507e-12
3.642451647e-12
4.352857191e-12
5.11244053e-12
5.902019674e-12
6.702327126e-12
7.498480641e-12
8.268485315e-12
8.992085489e-12
9.654726898e-12
1.024566525e-11
1.075614774e-11
1.118276192e-11
1.152255692e-11
1.177833929e-11
1.19555203e-11
1.205689923e-11
1.211906872e-11
1.213041283e-11
1.210452564e-11
1.204760741e-11
1.196098648e-11
1.185370413e-11
1.17344008e-11
1.160520528e-11
1.146297362e-11
1.132305927e-11
1.118583637e-11
1.104664429e-11
1.090799985e-11
1.076102749e-11
1.060735917e-11
1.044603077e-11
1.028422381e-11
1.012054294e-11
9.959209792e-12
9.8014272e-12
9.641377685e-12
9.475206128e-12
9.305249223e-12
9.135184837e-12
8.955969585e-12
8.774848072e-12
8.590649422e-12
8.402981595e-12
8.207553222e-12
8.00509238e-12
7.79528995e-12
7.579973912e-12
7.360037066e-12
7.135965964e-12
6.912155593e-12
6.688047596e-12
6.461799275e-12
6.231878742e-12
5.996399405e-12
5.75358197e-12
5.507346671e-12
5.25972468e-12
5.010460901e-12
4.758995664e-12
4.5067741e-12
4.252005656e-12
3.997725764e-12
3.741602519e-12
3.487265159e-12
3.235635543e-12
2.990433878e-12
2.753454706e-12
2.515172864e-12
2.279813634e-12
2.059047819e-12
1.849775419e-12
1.650128015e-12
1.456407101e-12
1.280781461e-12
1.118449777e-12
9.722507635e-13
8.401105246e-13
7.117686363e-13
5.747865245e-13
1.488485643e-12
2.980951606e-12
6.15529732e-12
1.040440072e-11
)


101
(
3.819538059e-25
-2.920488361e-18
1.506686201e-16
1.934234888e-15
9.133638106e-15
2.732654179e-14
6.294302827e-14
1.234411081e-13
2.167053854e-13
3.508833283e-13
5.346337503e-13
7.760242081e-13
1.082682698e-12
1.461948294e-12
1.919950733e-12
2.460646458e-12
3.085574905e-12
3.793413655e-12
4.576613838e-12
5.429559486e-12
6.334283186e-12
7.272548691e-12
8.229272152e-12
9.18079183e-12
1.010439253e-11
1.098153288e-11
1.179744349e-11
1.253898255e-11
1.319848649e-11
1.376794826e-11
1.424546802e-11
1.463269786e-11
1.492952448e-11
1.517650126e-11
1.535761392e-11
1.548784918e-11
1.557495529e-11
1.562118308e-11
1.563722441e-11
1.563311523e-11
1.560907988e-11
1.555945137e-11
1.550344733e-11
1.544383433e-11
1.537800939e-11
1.531242316e-11
1.523687936e-11
1.515142644e-11
1.505246035e-11
1.494736771e-11
1.483295534e-11
1.471690683e-11
1.460439607e-11
1.448759004e-11
1.436178344e-11
1.422748343e-11
1.409011537e-11
1.393713603e-11
1.377560178e-11
1.360656112e-11
1.343221217e-11
1.324404449e-11
1.304026176e-11
1.282370441e-11
1.259599745e-11
1.235336657e-11
1.209989228e-11
1.1836899e-11
1.157123231e-11
1.129890559e-11
1.101751127e-11
1.072525399e-11
1.041573763e-11
1.009202474e-11
9.756302414e-12
9.410077356e-12
9.058310707e-12
8.698078262e-12
8.326222984e-12
7.946520328e-12
7.552199087e-12
7.152551426e-12
6.749326282e-12
6.344696462e-12
5.943938516e-12
5.538830015e-12
5.12591439e-12
4.722076656e-12
4.334640402e-12
3.960342846e-12
3.581183749e-12
3.233947428e-12
2.895266209e-12
2.588436015e-12
2.302853849e-12
2.021263282e-12
1.712078446e-12
3.900147135e-12
7.251865052e-12
1.363641727e-11
2.255352716e-11
)


101
(
3.766015191e-25
-3.157626544e-18
1.3797904e-16
1.824279259e-15
8.698007883e-15
2.619809946e-14
6.070888565e-14
1.19722544e-13
2.113612945e-13
3.442204684e-13
5.277264866e-13
7.710487519e-13
1.083154066e-12
1.473119877e-12
1.949244003e-12
2.518010719e-12
3.183867941e-12
3.948594473e-12
4.807716468e-12
5.758907216e-12
6.786002429e-12
7.872706135e-12
9.004700673e-12
1.01573756e-11
1.130645239e-11
1.242983532e-11
1.350870359e-11
1.452535157e-11
1.546788219e-11
1.632319631e-11
1.708425092e-11
1.774734329e-11
1.830722117e-11
1.880833626e-11
1.922894951e-11
1.958491601e-11
1.988502181e-11
2.013257072e-11
2.034091913e-11
2.052188087e-11
2.067442027e-11
2.078783022e-11
2.088417167e-11
2.096797472e-11
2.103883611e-11
2.110827959e-11
2.11663764e-11
2.121426638e-11
2.124378599e-11
2.126137445e-11
2.126258874e-11
2.125650944e-11
2.125201967e-11
2.124243736e-11
2.122244938e-11
2.118985757e-11
2.115105156e-11
2.109016043e-11
2.101182838e-11
2.091884378e-11
2.081541542e-11
2.06952425e-11
2.054966223e-11
2.038575243e-11
2.020191213e-11
1.99895337e-11
1.975459349e-11
1.949845042e-11
1.923274644e-11
1.895057898e-11
1.865163719e-11
1.833516083e-11
1.798809269e-11
1.76141735e-11
1.720943749e-11
1.677183382e-11
1.631774681e-11
1.584473418e-11
1.535233895e-11
1.483184415e-11
1.427547446e-11
1.369698379e-11
1.309698189e-11
1.248377403e-11
1.186160479e-11
1.122078856e-11
1.055564993e-11
9.881936751e-12
9.218701354e-12
8.575952239e-12
7.901812286e-12
7.277881701e-12
6.647912404e-12
6.065850419e-12
5.519435866e-12
4.96789626e-12
4.349753168e-12
8.923042935e-12
1.555433167e-11
2.708822765e-11
4.111388915e-11
)


101
(
3.712492402e-25
-3.360865425e-18
1.260487056e-16
1.719032297e-15
8.277858209e-15
2.510423485e-14
5.853448276e-14
1.160945748e-13
2.061372769e-13
3.376966082e-13
5.209435551e-13
7.661735947e-13
1.083721311e-12
1.484435336e-12
1.978872379e-12
2.576168669e-12
3.283861817e-12
4.107130798e-12
5.04495311e-12
6.09871248e-12
7.254973168e-12
8.500171645e-12
9.821958256e-12
1.119536058e-11
1.259575591e-11
1.399835904e-11
1.53801926e-11
1.671895429e-11
1.799882335e-11
1.920185551e-11
2.031562851e-11
2.133005145e-11
2.223264659e-11
2.307073194e-11
2.381571221e-11
2.448376126e-11
2.508380925e-11
2.561962081e-11
2.610816213e-11
2.656424632e-11
2.698485107e-11
2.735441633e-11
2.769731704e-11
2.801662084e-11
2.831310102e-11
2.860533502e-11
2.888594213e-11
2.915923812e-11
2.941035078e-11
2.964621577e-11
2.986120572e-11
3.006333999e-11
3.026249749e-11
3.04581928e-11
3.064246418e-11
3.081036683e-11
3.097411227e-11
3.111077966e-11
3.121948868e-11
3.130282133e-11
3.137110362e-11
3.141934474e-11
3.143623674e-11
3.142858402e-11
3.138494287e-11
3.130669251e-11
3.118588401e-11
3.10245539e-11
3.084061745e-11
3.062603794e-11
3.038727952e-11
3.011701902e-11
2.980253083e-11
2.944460262e-11
2.903149808e-11
2.8550228e-11
2.801599692e-11
2.745504111e-11
2.685473793e-11
2.62051509e-11
2.54908793e-11
2.4715338e-11
2.387882492e-11
2.301250803e-11
2.2107974e-11
2.116140447e-11
2.015734419e-11
1.911442609e-11
1.804974498e-11
1.701398552e-11
1.590996297e-11
1.485911653e-11
1.379010792e-11
1.276987729e-11
1.181089754e-11
1.083299821e-11
9.730645755e-12
1.827606569e-11
3.012569972e-11
4.944044064e-11
7.293086346e-11
)


101
(
3.658969534e-25
-3.532067994e-18
1.148392565e-16
1.618354387e-15
7.872752237e-15
2.404382891e-14
5.641715279e-14
1.125509399e-13
2.010213527e-13
3.312915381e-13
5.142493616e-13
7.613260481e-13
1.084264032e-12
1.495709149e-12
2.008556833e-12
2.634717025e-12
3.384964276e-12
4.26816685e-12
5.287133692e-12
6.447155144e-12
7.738861794e-12
9.152052662e-12
1.067763428e-11
1.229091593e-11
1.396815952e-11
1.568332096e-11
1.740963568e-11
1.91202407e-11
2.079578394e-11
2.241381796e-11
2.395623024e-11
2.54061645e-11
2.674288826e-11
2.801481366e-11
2.918513594e-11
3.026994087e-11
3.127706872e-11
3.220927539e-11
3.308685464e-11
3.392914888e-11
3.473294525e-11
3.547795473e-11
3.61891379e-11
3.686668469e-11
3.751054692e-11
3.814639026e-11
3.877071118e-11
3.939342951e-11
3.999531167e-11
4.058293806e-11
4.114805296e-11
4.169808109e-11
4.224141064e-11
4.278360236e-11
4.331743801e-11
4.383237049e-11
4.434984635e-11
4.483786323e-11
4.529360922e-11
4.571134923e-11
4.610734644e-11
4.647924384e-11
4.682164387e-11
4.7132975e-11
4.739365648e-11
4.76130131e-11
4.776305237e-11
4.785173659e-11
4.789583934e-11
4.789726239e-11
4.785608903e-11
4.775997403e-11
4.760401811e-11
4.738269974e-11
4.707504479e-11
4.665899478e-11
4.614041782e-11
4.554490383e-11
4.488424851e-11
4.415267095e-11
4.332129065e-11
4.235569071e-11
4.127327196e-11
4.01155552e-11
3.887358029e-11
3.754342672e-11
3.609563844e-11
3.456895328e-11
3.294832946e-11
3.135558224e-11
2.965762019e-11
2.79720169e-11
2.626154575e-11
2.459048695e-11
2.299870633e-11
2.138516423e-11
1.956146468e-11
3.422898268e-11
5.386056865e-11
8.455664079e-11
1.217081037e-10
)


101
(
3.605446665e-25
-3.673016888e-18
1.043329148e-16
1.52210999e-15
7.482274297e-15
2.301584479e-14
5.435447573e-14
1.090859442e-13