/*--------------------------------*- C++ -*----------------------------------*\
| =========                 |                                                 |
| \\      /  F ield         | OpenFOAM: The Open Source CFD Toolbox           |
|  \\    /   O peration     | Version:  2.3.1                                 |
|   \\  /    A nd           | Web:      www.OpenFOAM.org                      |
|    \\/     M anipulation  |                                                 |
\*---------------------------------------------------------------------------*/
FoamFile
{
    version     2.0;
    format      ascii;
    class       dictionary;
    location    "constant";
    object      CH2O;
}
// * * * * * * * * * * * * * * * * * * * * * * * * * * * * * * * * * * * * * //

CH2O_table
101
(

101
(
4.148777388e-11
3.671150175e-09
4.417701853e-08
1.846282678e-07
4.887160259e-07
1.008283509e-06
1.787981569e-06
2.910205453e-06
4.446251582e-06
6.506272676e-06
9.235758764e-06
1.284678269e-05
1.758111967e-05
2.385593317e-05
3.202890711e-05
4.247928437e-05
5.559141756e-05
7.170897494e-05
9.058794137e-05
0.0001126224178
0.0001371626486
0.0001638702855
0.0001925219386
0.0002225139393
0.0002533690636
0.0002846877747
0.0003161163682
0.0003473624703
0.0003781701415
0.0004083446765
0.0004377218443
0.0004661980666
0.0004937982898
0.000520064504
0.0005452103087
0.000569135413
0.0005918303622
0.0006133408887
0.0006335281246
0.0006522567003
0.0006695598119
0.000685659835
0.0007003268687
0.0007136197686
0.0007256593494
0.0007362900127
0.0007456350865
0.0007535770091
0.0007602172408
0.000765477932
0.0007694655056
0.0007721515593
0.0007735590659
0.0007737199481
0.0007726742306
0.000770443942
0.0007668979088
0.0007623151261
0.0007565078288
0.0007496349545
0.0007416403353
0.0007326038234
0.000722555522
0.0007114994022
0.0006994827085
0.0006865202754
0.0006726649173
0.0006579460684
0.0006423584398
0.0006259799744
0.0006088187462
0.0005909096315
0.0005722508652
0.0005529394209
0.0005330030754
0.0005125158517
0.0004914281389
0.0004697954808
0.0004476771303
0.0004251087434
0.0004021209974
0.0003786997974
0.0003549267503
0.0003307984392
0.0003063951833
0.0002817322242
0.0002568294425
0.0002317132734
0.0002064051455
0.0001809149631
0.000155319798
0.0001296098277
0.0001037915027
7.790521327e-05
5.195362874e-05
2.597827933e-05
-2.603920571e-13
-1.548744991e-34
1.394752071e-23
-1.309396798e-22
0
)


101
(
4.13964648e-11
3.424554016e-09
4.242881103e-08
1.782394981e-07
4.725144812e-07
9.752350725e-07
1.728988357e-06
2.810895168e-06
4.288676276e-06
6.264020183e-06
8.871677228e-06
1.230673977e-05
1.679518704e-05
2.271528416e-05
3.041563244e-05
4.025677421e-05
5.260625609e-05
6.780037549e-05
8.571684278e-05
0.0001066059239
0.0001300675733
0.0001557244526
0.0001833109824
0.0002123601077
0.0002423944491
0.0002730049959
0.000303839945
0.0003346042303
0.00036503423
0.0003949328981
0.0004241285579
0.0004525075723
0.0004800630133
0.0005064384071
0.0005317299408
0.0005558726234
0.000578842216
0.0006006621819
0.0006212509357
0.000640491267
0.0006583674202
0.0006750111975
0.0006903369552
0.0007043356655
0.0007170766048
0.0007285055268
0.0007386562991
0.0007474908389
0.0007550358014
0.0007612731583
0.0007662392878
0.0007699466196
0.0007724054317
0.0007736365566
0.0007736698539
0.0007725320793
0.0007701799647
0.0007666944695
0.0007620750058
0.0007563536981
0.0007495485211
0.0007416876018
0.0007328079494
0.0007229310308
0.0007120835589
0.0007002906576
0.0006875846217
0.000673999632
0.0006595536126
0.0006442791064
0.0006282098922
0.0006113751862
0.0005937968354
0.0005755153123
0.0005565727001
0.0005370118938
0.0005168516349
0.0004961130727
0.0004748399865
0.0004530730902
0.0004308430307
0.0004081679093
0.0003850817731
0.0003616126817
0.0003377939268
0.000313666683
0.0002892598925
0.00026459907
0.0002397064017
0.0002146050017
0.0001893145055
0.000163880195
0.0001383152374
0.0001126304052
8.685537137e-05
6.106111991e-05
3.53382077e-05
3.718759576e-05
3.905632152e-05
4.108608214e-05
4.311590128e-05
)


101
(
4.130515571e-11
3.186947632e-09
4.072805592e-08
1.720055641e-07
4.566974013e-07
9.429904136e-07
1.671517483e-06
2.714441569e-06
4.136055147e-06
6.030258897e-06
8.521740025e-06
1.178981137e-05
1.60451746e-05
2.16307546e-05
2.888278979e-05
3.814445141e-05
4.976649174e-05
6.407629817e-05
8.104694354e-05
0.0001008365731
0.0001232139667
0.000147816473
0.0001743456463
0.0002024245977
0.0002316035149
0.0002614708326
0.000291674357
0.0003219172189
0.0003519300554
0.0003815119615
0.0004104853196
0.0004387277417
0.0004662091543
0.000492626763
0.0005180316537
0.0005423529596
0.0005655620212
0.0005876651443
0.0006086050979
0.000628289913
0.0006466870796
0.0006638681164
0.0006797923373
0.000694451344
0.0007078774119
0.0007200474966
0.0007309770532
0.0007406463275
0.0007490648223
0.0007562249732
0.0007621439862
0.0007668353928
0.000770310995
0.0007725848732
0.0007736778666
0.0007736136689
0.0007723864736
0.0007700213975
0.0007665427699
0.0007619704778
0.0007563271711
0.0007496341933
0.0007419202279
0.0007332114519
0.0007235311701
0.0007129035229
0.0007013541202
0.0006889128116
0.0006756053208
0.0006614539986
0.0006464896879
0.0006307417242
0.0006142399662
0.0005970140202
0.0005790991489
0.0005605250523
0.0005413191482
0.0005215049472
0.000501117626
0.0004801969997
0.0004587722204
0.0004368690496
0.0004145162112
0.0003917440753
0.000368575446
0.0003450431355
0.0003211789365
0.0002970169309
0.0002725797992
0.0002478984368
0.0002229813332
0.0001978670402
0.0001725816244
0.0001471453012
0.0001215772152
9.602260916e-05
7.061395257e-05
7.431235248e-05
7.80488825e-05
8.210337871e-05
8.615788122e-05
)


101
(
4.121384663e-11
2.958201492e-09
3.907411531e-08
1.659242773e-07
4.412584995e-07
9.115335624e-07
1.615531459e-06
2.620756632e-06
3.988215986e-06
5.804646105e-06
8.185324998e-06
1.129492183e-05
1.532944323e-05
2.059967832e-05
2.742710876e-05
3.613831479e-05
4.706744028e-05
6.053171506e-05
7.657798517e-05
9.530887751e-05
0.0001166075155
0.0001401529978
0.0001656298739
0.0001927202133
0.0002210123894
0.0002501019575
0.0002796370966
0.000309319578
0.0003388758234
0.0003681006062
0.0003968110746
0.0004248772467
0.000452251678
0.000478658179
0.0005041337676
0.0005285942461
0.0005520060295
0.0005743620501
0.000595612675
0.0006156855201
0.0006345482301
0.0006522381124
0.0006687187954
0.0006839911775
0.0006980715088
0.00071094103
0.0007226127643
0.0007330716121
0.0007423236691
0.0007503619126
0.0007571968422
0.0007628369601
0.0007672937541
0.0007705785351
0.0007727058051
0.00077369384
0.0007735501898
0.0007722880674
0.0007699273558
0.0007664863179
0.0007619860311
0.0007564456349
0.0007498883519
0.0007423389479
0.0007338197606
0.0007243532046
0.0007139612371
0.0007026692577
0.0006905034502
0.0006774840703
0.0006636379653
0.0006489916876
0.0006335765447
0.0006174205081
0.0006005548827
0.0005830029914
0.0005647888688
0.000545935189
0.000526472997
0.0005064397643
0.0004858639415
0.0004647726499
0.0004431945159
0.0004211598005
0.0003986894603
0.0003758108828
0.0003525482859
0.0003289363397
0.000305002612
0.0002807854485
0.0002562879544
0.0002315530619
0.0002065951651
0.0001814485181
0.0001561414675
0.0001308797568
0.0001058501533
0.0001113989744
0.0001170047146
0.0001230854064
0.00012916596
)


101
(
4.112253754e-11
2.738186242e-09
3.746635408e-08
1.599934782e-07
4.261916398e-07
8.808490457e-07
1.560994196e-06
2.529756034e-06
3.84499397e-06
5.586855005e-06
7.861836687e-06
1.082103698e-05
1.464640028e-05
1.961947377e-05
2.604532059e-05
3.423435127e-05
4.450436395e-05
5.716145543e-05
7.230861793e-05
9.001825286e-05
0.0001102514985
0.0001327403447
0.0001571685042
0.0001832578278
0.0002106364477
0.000238915333
0.0002677460554
0.0002968299356
0.0003258904315
0.0003547181302
0.0003831253753
0.0004109755299
0.0004382076509
0.000464557123
0.0004900584175
0.000514617919
0.0005381928278
0.0005607680199
0.0005822927256
0.0006027056796
0.0006219809438
0.0006401396529
0.0006571375249
0.0006729794445
0.000687676243
0.0007012064867
0.000713582287
0.0007247894739
0.0007348340766
0.0007437082617
0.000751419477
0.0007579713697
0.000763373197
0.0007676345173
0.0007707659592
0.0007727807489
0.0007736889902
0.0007735030742
0.0007722371151
0.0007699069713
0.0007665309924
0.0007621264287
0.0007567128898
0.0007503123113
0.0007429457977
0.0007346342778
0.0007253972757
0.0007152563645
0.0007042355507
0.000692353791
0.0006796354992
0.0006661040847
0.000651789523
0.0006367189008
0.0006209210875
0.0006044160232
0.0005872242119
0.0005693660049
0.0005508676905
0.0005317636207
0.0005120795846
0.0004918428382
0.0004710829269
0.0004498291713
0.0004281023049
0.0004059281966
0.0003833251195
0.0003603231744
0.0003369466393
0.0003132438619
0.0002892162083
0.000264914088
0.000240345407
0.0002155392872
0.0001905461163
0.0001656396675
0.0001410517392
0.0001484545223
0.0001559329799
0.000164042622
0.0001721524325
)


101
(
4.103122844e-11
2.526771422e-09
3.590413901e-08
1.542110329e-07
4.114908156e-07
8.509218503e-07
1.50787093e-06
2.441358995e-06
3.70623145e-06
5.376574261e-06
7.550706217e-06
1.036716567e-05
1.399450222e-05
1.868764557e-05
2.473417769e-05
3.242854254e-05
4.207248701e-05
5.396022717e-05
6.823656853e-05
8.496059832e-05
0.000104147452
0.0001255840768
0.000148966901
0.0001740470849
0.0002004900338
0.0002279278279
0.0002560194219
0.0002844673552
0.0003129933808
0.0003413843989
0.0003694484211
0.0003970427613
0.000424095742
0.000450346182
0.0004758286197
0.0005004442497
0.0005241425448
0.0005469005652
0.0005686633606
0.0005893741113
0.0006090133541
0.0006275964901
0.0006450706147
0.0006614397939
0.0006767127053
0.0006908644624
0.0007039056765
0.0007158213963
0.0007266180129
0.0007362869684
0.0007448342827
0.0007522598425
0.0007585699816
0.000763772302
0.0007678749167
0.0007708870925
0.0007728174429
0.0007736790694
0.0007734821141
0.0007722401902
0.0007699684208
0.0007666818493
0.0007623970653
0.0007571329416
0.0007509087286
0.0007437440491
0.0007356568599
0.0007266658249
0.0007167918508
0.0007060518019
0.0006944681985
0.0006820619789
0.0006688611217
0.0006548915471
0.0006401800419
0.0006247435971
0.0006085994427
0.0005917668956
0.0005742682643
0.0005561336831
0.0005373849156
0.0005180461653
0.000498148892
0.0004777215061
0.0004567845142
0.0004353637404
0.0004134741767
0.000391141209
0.0003683838416
0.000345251554
0.0003217486087
0.000297934487
0.0002738138327
0.0002494114183
0.0002247890328
0.000200305025
0.0001762287951
0.0001854894649
0.00019484361
0.000204977393
0.0002151111683
)


101
(
4.093991937e-11
2.323826427e-09
3.438684064e-08
1.485748367e-07
3.97150157e-07
8.217374279e-07
1.456128217e-06
2.355488181e-06
3.57177772e-06
5.173507417e-06
7.251390642e-06
9.932358379e-06
1.337225635e-05
1.780178251e-05
2.349046554e-05
3.071687039e-05
3.976698952e-05
5.092261135e-05
6.435874737e-05
8.013197038e-05
9.829555867e-05
0.0001186886902
0.0001410305355
0.0001650967544
0.000190586388
0.000217155844
0.0002444754233
0.0002722511848
0.0003002046515
0.000328119794
0.0003558008311
0.0003830997008
0.0004099358207
0.0004360472914
0.0004614679692
0.0004860965537
0.0005098769208
0.0005327793634
0.0005547435353
0.0005757126283
0.0005956713139
0.0006146341004
0.0006325420273
0.0006493963066
0.0006652039804
0.000679937109
0.0006936044384
0.0007061892011
0.0007176977135
0.0007281207447
0.0007374638535
0.0007457242451
0.0007529053729
0.0007590126037
0.0007640519582
0.0007680296724
0.000770951432
0.0007728309577
0.0007736752864
0.0007734965425
0.0007723067871
0.0007701187237
0.0007669460887
0.0007628044928
0.0007577108112
0.0007516830308
0.0007447381797
0.0007368930003
0.0007281654852
0.0007185699269
0.0007081263063
0.0006968534168
0.0006847772211
0.0006719227187
0.0006583148711
0.0006439679018
0.0006288952104
0.000613115326
0.0005966480365
0.0005795199933
0.0005617483536
0.0005433524384
0.0005243632677
0.0005048089761
0.0004847096172
0.000464091414
0.0004429679677
0.0004213617848
0.0003992860003
0.0003767860047
0.0003538678163
0.0003306012713
0.0003069890875
0.0002830569084
0.0002588675883
0.0002348770815
0.0002113870483
0.0002225026704
0.0002337297383
0.0002458855253
0.0002580423135
)


101
(
4.084861027e-11
2.129220381e-09
3.291382901e-08
1.430828012e-07
3.831638955e-07
7.93281626e-07
1.405733801e-06
2.272069472e-06
3.441488556e-06
4.977372069e-06
6.963372248e-06
9.515706787e-06
1.27782221e-05
1.695955724e-05
2.231101215e-05
2.909532397e-05
3.758301319e-05
4.804306871e-05
6.06713365e-05
7.552832573e-05
9.269490516e-05
0.0001120574874
0.0001333645727
0.0001564148306
0.0001809376089
0.0002066149993
0.0002331320129
0.0002602008427
0.0002875445331
0.0003149451426
0.0003422037667
0.0003691676271
0.0003957486084
0.0004216822093
0.0004469998843
0.000471598887
0.0004954193088
0.0005184261564
0.0005405537452
0.0005617426945
0.0005819791166
0.0006012780222
0.0006195768762
0.0006368739193
0.0006531744741
0.0006684480456
0.0006827015434
0.0006959158089
0.0007080963823
0.0007192330779
0.0007293314272
0.0007383870963
0.0007464012514
0.000753376807
0.0007593177269
0.0007642277976
0.0007681094304
0.0007709761023
0.0007728324939
0.0007736898214
0.0007735576225
0.0007724465161
0.0007703675756
0.0007673330907
0.0007633569694
0.0007584549351
0.0007526430743
0.0007459371407
0.000738353101
0.0007299027274
0.000720602888
0.0007104699988
0.0006995278038
0.0006878004032
0.0006753115484
0.0006620732777
0.0006480948258
0.0006333930519
0.0006179860425
0.0006018984511
0.0005851429864
0.0005677335851
0.0005496987129
0.000531065517
0.0005118533044
0.0004920885353
0.0004717831753
0.0004509604683
0.0004296272009
0.000407825769
0.0003855544892
0.0003628994781
0.0003398602668
0.0003164668466
0.0002927794047
0.0002693533941
0.0002465277807
0.0002594958171
0.0002725921759
0.0002867550805
0.0003009210905
)


101
(
4.07573012e-11
1.942821516e-09
3.148447788e-08
1.377328677e-07
3.69526396e-07
7.655407391e-07
1.356656695e-06
2.191032051e-06
3.315226322e-06
4.787899946e-06
6.686158741e-06
9.116345145e-06
1.22110142e-05
1.615873026e-05
2.119270393e-05
2.755991549e-05
3.551568253e-05
4.531596236e-05
5.716992631e-05
7.114537623e-05
8.734366182e-05
0.000105692618
0.0001259736468
0.0001480086687
0.0001715548378
0.0001963201199
0.0002220067761
0.0002483357656
0.0002750336287
0.0003018817641
0.0003286789788
0.0003552684831
0.0003815557309
0.0004072730062
0.0004324477391
0.0004569756764
0.0004807942021
0.0005038644268
0.0005261161306
0.0005474863159
0.0005679603713
0.0005875534736
0.0006062009029
0.000623898466
0.0006406498042
0.0006564222691
0.0006712212648
0.0006850251367
0.0006978381488
0.000709648633
0.0007204617848
0.000730272492
0.000739080682
0.0007468871955
0.0007536938028
0.0007595020728
0.0007643111647
0.0007681337878
0.0007709721408
0.0007728368836
0.0007737356855
0.0007736777042
0.0007726717163
0.0007707270204
0.0007678541716
0.0007640658527
0.0007593764864
0.0007538011466
0.0007473548775
0.000740047946
0.0007318939972
0.0007229063402
0.0007131060061
0.0007025160189
0.0006911593333
0.0006790466314
0.000666183517
0.0006525841979
0.0006382648823
0.0006232492524
0.0006075468265
0.0005911655027
0.0005741301664
0.0005564656741
0.0005381907288
0.0005193317985
0.0004998975932
0.000479915589
0.0004593852082
0.0004383486592
0.0004167907906
0.0003948130773
0.0003724156301
0.000349630344
0.0003265186585
0.000303732751
0.000281651553
0.0002964633012
0.0003114182662
0.0003275558922
0.0003436991073
)


101
(
4.066599206e-11
1.764497236e-09
3.009815979e-08
1.325229877e-07
3.562321049e-07
7.385013894e-07
1.30886691e-06
2.112307889e-06
3.192859189e-06
4.604835551e-06
6.419281379e-06
8.733447619e-06
1.166930126e-05
1.539714789e-05
2.013249419e-05
2.610668853e-05
3.3560112e-05
4.273557067e-05
5.384957731e-05
6.697850694e-05
8.223917696e-05
9.959502595e-05
0.0001188616125
0.0001398849131
0.0001624482659
0.0001862851361
0.0002111167444
0.000236675208
0.0002626926623
0.0002889513106
0.0003152486715
0.0003414247279
0.000367379477
0.0003928421104
0.0004178348003
0.0004422513011
0.0004660266426
0.000489118982
0.0005114545964
0.0005329667835
0.0005536389053
0.0005734854147
0.0005924398714
0.0006104961794
0.0006276564382
0.0006438860903
0.000659189393
0.000673542474
0.0006869480601
0.0006993926865
0.0007108808116
0.0007214064521
0.0007309688256
0.0007395677526
0.0007472032017
0.0007538744794
0.0007595778016
0.0007643246021
0.0007681143169
0.0007709569506
0.0007728587385
0.0007738279084
0.0007738716339
0.0007729969371
0.0007712112312
0.0007685235635
0.0007649455366
0.0007604910419
0.0007551746191
0.0007490063503
0.0007419977167
0.0007341587492
0.0007255069899
0.0007160634995
0.0007058503749
0.0006948777143
0.0006831487373
0.0006706748188
0.0006574691209
0.0006435545764
0.0006289395377
0.0006136262412
0.0005976343392
0.0005809849941
0.0005636968342
0.0005457969077
0.0005272884878
0.0005082035442
0.0004885378687
0.0004683312796
0.0004475560517
0.0004263234398
0.0004046387469
0.0003825340423
0.0003600748329
0.0003380074574
0.0003167510568
0.000333386605
0.0003501775384
0.0003682334765
0.0003862881238
)


101
(
4.0574683e-11
1.594115157e-09
2.875425115e-08
1.274511442e-07
3.432756043e-07
7.121506363e-07
1.262335629e-06
2.035831928e-06
3.074261512e-06
4.4279367e-06
6.162295903e-06
8.366229941e-06
1.115180896e-05
1.467274403e-05
1.912741413e-05
2.473173572e-05
3.171142544e-05
4.029611267e-05
5.070491454e-05
6.30226961e-05
7.737804382e-05
9.376455319e-05
0.0001120314462
0.0001320494536
0.0001536271995
0.0001765230828
0.0002004783076
0.0002252381509
0.000250542422
0.0002761757708
0.0003019355877
0.000327659481
0.0003532429168
0.0003784125944
0.0004031846528
0.0004274502862
0.0004511420699
0.0004742156054
0.0004965944469
0.0005182087378
0.000539039343
0.0005590991621
0.000578319928
0.0005966938543
0.0006142215956
0.0006308668535
0.000646633012
0.0006614944896
0.0006754524991
0.0006884915761
0.0007006150899
0.0007118159807
0.0007220928007
0.0007314447437
0.0007398708695
0.0007473688229
0.0007539319893
0.0007595704163
0.0007642803502
0.0007680708292
0.0007709466347
0.0007729154497
0.0007739834369
0.0007741561895
0.0007734387779
0.0007718368596
0.0007693581554
0.000766014079
0.0007618183122
0.0007567815297
0.0007509145328
0.00074422501
0.0007367265346
0.0007284372932
0.0007193777689
0.0007095577626
0.0006989788731
0.0006876507114
0.0006755833507
0.0006627972994
0.0006493006261
0.0006350927033
0.0006201867683
0.0006045982005
0.0005883441357
0.0005714555572
0.0005539288516
0.0005357965901
0.0005170567114
0.0004977453894
0.0004778241422
0.0004574054703
0.000436504975
0.0004151559497
0.0003934272054
0.0003721591219
0.000351811022
0.0003702280686
0.0003888106523
0.0004086983197
0.0004286148937
)


101
(
4.048337402e-11
1.43154124e-09
2.745212606e-08
1.225153251e-07
3.306515401e-07
6.864758216e-07
1.217034919e-06
1.961541589e-06
2.959312875e-06
4.256972846e-06
5.914780198e-06
8.013946425e-06
1.065731886e-05
1.398353851e-05
1.817457802e-05
2.343120837e-05
2.996476785e-05
3.799175743e-05
4.773020748e-05
5.927250319e-05
7.275613135e-05
8.819992008e-05
0.0001054850692
0.0001245072781
0.0001450999831
0.0001670459626
0.0001901069645
0.0002140429951
0.0002386034773
0.0002635772227
0.0002887628133
0.0003139964376
0.0003391699079
0.0003640083223
0.0003885214329
0.000412597438
0.000436166139
0.0004591805858
0.0004815620815
0.0005032382314
0.0005241874594
0.000544420682
0.000563867637
0.0005825186895
0.0006003731069
0.0006173929006
0.0006335805346
0.0006489091618
0.0006633790882
0.0006769727931
0.0006896922696
0.000701528971
0.0007124807165
0.0007225462108
0.0007317240121
0.0007400110123
0.0007473981757
0.0007538945223
0.0007594927179
0.0007642004043
0.0007680206999
0.0007709606231
0.0007730257306
0.0007742208695
0.0007745498219
0.0007740157378
0.0007726225342
0.0007703777052
0.0007672927684
0.0007633787091
0.0007586467058
0.0007531038496
0.0007467605807
0.0007396314714
0.0007317342565
0.0007230777851
0.0007136623495
0.0007034968044
0.0006925896546
0.0006809579365
0.0006686077815
0.0006555385836
0.0006417588123
0.0006272755254
0.0006121017291
0.0005962732082
0.0005797836263
0.0005626598611
0.0005449031314
0.0005265528506
0.0005075548058
0.0004880202061
0.0004679757834
0.0004474592874
0.0004265393082
0.0004061514599
0.0003867924998
0.0004069259244
0.0004272276657
0.0004488007099
0.0004703980579
)


101
(
4.039206528e-11
1.276640885e-09
2.619115938e-08
1.177135374e-07
3.183546563e-07
6.614646315e-07
1.17293782e-06
1.889376879e-06
2.847898228e-06
4.091725014e-06
5.676334183e-06
7.675890424e-06
1.018466986e-05
1.332764111e-05
1.727119471e-05
2.220133315e-05
2.831532706e-05
3.581666761e-05
4.491942635e-05
5.572209888e-05
6.836865117e-05
8.289876898e-05
9.922323101e-05
0.0001172622783
0.0001368738148
0.0001578645524
0.000180017092
0.0002031073254
0.0002268959672
0.0002511776742
0.0002757536568
0.0003004597873
0.000325185107
0.0003496540682
0.0003738700601
0.0003977180964
0.0004211248863
0.0004440407206
0.000466384767
0.0004880825564
0.0005091103705
0.0005294770901
0.0005491103923
0.0005679985479
0.0005861392806
0.0006034930033
0.0006200612408
0.0006358159855
0.0006507568796
0.0006648649588
0.0006781407992
0.0006905741442
0.0007021616414
0.0007129013577
0.0007227916808
0.0007318290461
0.0007400029894
0.0007473219069
0.0007537752033
0.0007593686343
0.0007641031509
0.0007679849396
0.000771018884
0.0007732094298
0.0007745599421
0.0007750723066
0.0007747475344
0.0007735888525
0.0007716040514
0.0007688029845
0.0007651973015
0.0007607948593
0.0007556047935
0.0007496385126
0.0007429101558
0.0007354262195
0.0007271855361
0.0007181963106
0.0007084667393
0.0006980117423
0.0006868339964
0.0006749321627
0.0006623138695
0.0006489782936
0.0006349296158
0.0006202055872
0.0006048047126
0.0005887453685
0.000572027174
0.0005546991105
0.0005366928538
0.0005181108459
0.0004989929592
0.0004793844437
0.0004593515399
0.0004399235456
0.0004216311098
0.0004433684609
0.0004652720604
0.0004883422272
0.0005114686565
)


101
(
4.030075654e-11
1.129278941e-09
2.497072558e-08
1.130438018e-07
3.063797793e-07
6.371050607e-07
1.130018262e-06
1.819280178e-06
2.739907583e-06
3.931985262e-06
5.446578674e-06
7.351392904e-06
9.732757448e-06
1.270324998e-05
1.64145732e-05
2.103842192e-05
2.675835101e-05
3.376501606e-05
4.226633635e-05
5.236527123e-05
6.421018082e-05
7.785775416e-05
9.324548187e-05
0.0001103171908
0.0001289547976
0.0001489885408
0.000170222012
0.0001924478495
0.0002154394655
0.0002389989157
0.0002629315144
0.0002870740389
0.0003113137188
0.0003353753792
0.0003592562495
0.0003828382279
0.0004060447611
0.0004288231579
0.0004510903588
0.0004727699995
0.000493836432
0.0005142966353
0.0005340764572
0.0005531620094
0.0005715491586
0.0005891966912
0.000606105107
0.0006222452176
0.0006376162915
0.0006521982615
0.0006659904262
0.0006789809498
0.0006911652269
0.0007025401861
0.0007131038191
0.0007228524885
0.0007317749839
0.0007398795293
0.0007471531487
0.0007535995014
0.0007592170146
0.0007640106397
0.0007679843187
0.0007711419964
0.0007734869093
0.0007750209355
0.0007757435923
0.0007756545328
0.0007747570047
0.0007730579702
0.0007705683913
0.0007672971695
0.000763253883
0.0007584484717
0.0007528919084
0.0007465872769
0.0007395301914
0.0007317276665
0.0007231887567
0.0007139278735
0.0007039445364
0.0006932343731
0.0006818063635
0.0006696553228
0.0006567741016
0.000643195898
0.0006289284177
0.0006139854884
0.0005983601786
0.0005821079615
0.0005651576378
0.0005475949131
0.0005294729471
0.0005108432115
0.0004917731932
0.0004733798567
0.0004562254304
0.0004794106399
0.000502749486
0.0005270798418
0.0005514493887
)


101
(
4.020944773e-11
9.893187814e-10
2.379019786e-08
1.085041479e-07
2.947218042e-07
6.133853803e-07
1.088251003e-06
1.751196109e-06
2.635235576e-06
3.777555848e-06
5.225154405e-06
7.039820889e-06
9.300533567e-06
1.210865196e-05
1.560212675e-05
1.993888488e-05
2.528916198e-05
3.183100192e-05
3.976453342e-05
4.91954874e-05
6.027473407e-05
7.307259003e-05
8.755020913e-05
0.000103673546
0.0001213478479
0.0001404264387
0.000160733912
0.0001820802728
0.0002042527666
0.000227062258
0.0002503196227
0.000273863819
0.0002975812792
0.0003211982998
0.0003447063403
0.0003679844245
0.0003909527278
0.0004135554495
0.0004357071838
0.0004573295151
0.0004783949399
0.0004989087481
0.0005187952938
0.0005380386482
0.0005566326076
0.0005745341716
0.0005917428058
0.0006082280699
0.0006239886593
0.0006390038845
0.0006532721765
0.0006667801391
0.0006795219179
0.0006914932248
0.0007026911618
0.0007131119908
0.0007227441016
0.0007315962608
0.0007396536192
0.0007469183349
0.0007533861542
0.0007590603507
0.0007639436253
0.0007680391123
0.0007713497451
0.000773877878
0.0007756229216
0.0007765825016
0.0007767556244
0.0007761452518
0.0007747597181
0.0007726081522
0.000769701055
0.0007660488419
0.0007616612608
0.0007565383306
0.0007506705903
0.0007440620771
0.0007367218981
0.0007286661039
0.0007198936231
0.000710395149
0.0007001790367
0.0006892404356
0.000677563813
0.0006651695721
0.000652071925
0.0006382902791
0.000623807279
0.0006086783409
0.0005928415375
0.0005763576494
0.0005592971104
0.0005417129075
0.0005236758417
0.0005063841383
0.0004904369516
0.0005148724269
0.0005394368035
0.0005647663094
0.0005899915461
)


101
(
4.011813892e-11
8.566230325e-10
2.264895024e-08
1.040926235e-07
2.833757161e-07
5.902941722e-07
1.047611679e-06
1.685071567e-06
2.533781476e-06
3.628248988e-06
5.011721884e-06
6.740576907e-06
8.887006113e-06
1.154222347e-05
1.483138074e-05
1.889924665e-05
2.390317418e-05
3.000887881e-05
3.740748641e-05
4.620588587e-05
5.655576601e-05
6.853812349e-05
8.21346918e-05
9.733166637e-05
0.0001140566468
0.0001321855327
0.0001515637913
0.000172019216
0.0001933537956
0.000215388437
0.0002379409703
0.0002608538069
0.0002840136274
0.0003071494331
0.0003302473908
0.0003531840662
0.0003758764814
0.0003982657148
0.0004202639784
0.0004417905826
0.0004628160508
0.0004833438701
0.0005032973877
0.0005226589505
0.0005414203843
0.0005595366379
0.0005770057962
0.0005937963695
0.0006099063465
0.0006253142791
0.0006400182201
0.0006540036823
0.0006672633924
0.0006797918792
0.0006915852388
0.0007026389769
0.0007129413343
0.0007225020479
0.0007313051184
0.0007393518364
0.000746635479
0.000753157283
0.0007589184626
0.0007639210532
0.0007681673324
0.000771659962
0.0007743989699
0.0007763814521
0.0007776034968
0.0007780642373
0.000777767767
0.0007767216258
0.0007749366831
0.0007724242945
0.0007691954062
0.0007652495473
0.0007605720937
0.0007551610557
0.0007490224927
0.0007421759784
0.0007346222991
0.000726348637
0.0007173602692
0.0007076518735
0.0006972056772
0.0006860286833
0.0006741312491
0.0006615447653
0.0006482472187
0.0006342829034
0.0006196076554
0.0006042568389
0.000588310263
0.0005718326276
0.0005548907686
0.0005387603269
0.0005240762502
0.000549520744
0.0005750608286
0.0006011433504
0.00062729921
)


101
(
4.002683025e-11
7.310534831e-10
2.154635634e-08
9.980728893e-08
2.72336575e-07
5.678202963e-07
1.008076732e-06
1.620855564e-06
2.43544886e-06
3.483886171e-06
4.805960078e-06
6.453097154e-06
8.491237516e-06
1.100242877e-05
1.40999748e-05
1.791615341e-05
2.259591238e-05
2.829297044e-05
3.518860995e-05
4.338935951e-05
5.304625534e-05
6.4248388e-05
7.699508472e-05
9.129059389e-05
0.0001070835474
0.0001242717506
0.0001427212985
0.0001622780311
0.0001827594261
0.000203997442
0.0002258180808
0.000248068484
0.0002706366958
0.0002932556947
0.0003159069956
0.0003384652339
0.0003608444874
0.000382982782
0.0004047900371
0.0004261831946
0.0004471304186
0.0004676332574
0.0004876143364
0.0005070545776
0.0005259440937
0.0005442358684
0.0005619263279
0.0005789827783
0.0005954023079
0.0006111628252
0.000626262065
0.0006406847079
0.0006544224311
0.0006674686501
0.0006798181777
0.0006914656104
0.0007023985416
0.0007126278792
0.0007221372525
0.0007309277077
0.0007389905828
0.0007463250102
0.0007529304058
0.000758807411
0.0007639574219
0.0007683828771
0.0007720844829
0.0007750598917
0.0007773037905
0.0007788123709
0.0007795851219
0.0007796266112
0.0007789461606
0.0007775554571
0.0007754674791
0.0007726844548
0.0007691901694
0.0007649736018
0.0007600356288
0.0007543952449
0.0007480577713
0.0007410125365
0.0007332604083
0.0007247909224
0.0007155900121
0.0007056531193
0.0006949801449
0.0006836112137
0.0006715326264
0.0006587679666
0.0006452879696
0.0006311200708
0.0006163280718
0.000601007981
0.0005852168424
0.0005702912115
0.0005568987043
0.0005831116249
0.0006093763897
0.0006359768686
0.0006625497906
)


101
(
3.993552144e-11
6.124701935e-10
2.048176544e-08
9.564619485e-08
2.615994553e-07
5.459527626e-07
9.696231723e-07
1.558498788e-06
2.340144802e-06
3.344296783e-06
4.607564298e-06
6.176848722e-06
8.11234122e-06
1.048781529e-05
1.340566073e-05
1.698637187e-05
2.136301954e-05
2.667769526e-05
3.310129609e-05
4.073863163e-05
4.973879367e-05
6.019668188e-05
7.212645894e-05
8.554802872e-05
0.0001004294425
0.0001166895001
0.0001342145581
0.0001528686254
0.0001724852442
0.000192908246
0.0002139727865
0.000235531934
0.0002574763021
0.0002795441355
0.0003017130826
0.0003238565028
0.0003458858257
0.0003677361233
0.0003893151555
0.0004105375994
0.0004313690223
0.0004518086851
0.000471778406
0.0004912579809
0.0005102362392
0.0005286645107
0.0005465372989
0.0005638204312
0.0005805101359
0.0005965834776
0.0006120378014
0.0006268573157
0.0006410328411
0.000654556853
0.0006674229904
0.0006796244915
0.0006911482008
0.0007020056828
0.0007121806513
0.0007216746205
0.0007304777886
0.0007385874423
0.0007460008414
0.0007527170705
0.0007587363156
0.0007640603887
0.0007686904612
0.0007726247572
0.0007758580247
0.0007783845683
0.0007802002882
0.00078130623
0.000781708279
0.0007814168982
0.0007804461374
0.0007788020766
0.000776470956
0.0007734378057
0.0007696927938
0.0007652495116
0.0007601167402
0.0007542927148
0.0007477738057
0.0007405437376
0.0007325905942
0.0007239057844
0.0007144755109
0.0007043369729
0.0006934984611
0.00068196083
0.00066969714
0.0006567527558
0.0006431515744
0.0006290251585
0.0006144344108
0.0006007451198
0.000588662423
0.0006154123266
0.0006421686274
0.0006691040718
0.0006959388863
)


101
(
3.984421263e-11
5.007326291e-10
1.945456615e-08
9.16074186e-08
2.51159539e-07
5.246809148e-07
9.322288922e-07
1.497954104e-06