/*--------------------------------*- C++ -*----------------------------------*\
| =========                 |                                                 |
| \\      /  F ield         | OpenFOAM: The Open Source CFD Toolbox           |
|  \\    /   O peration     | Version:  2.3.1                                 |
|   \\  /    A nd           | Web:      www.OpenFOAM.org                      |
|    \\/     M anipulation  |                                                 |
\*---------------------------------------------------------------------------*/
FoamFile
{
    version     2.0;
    format      ascii;
    class       dictionary;
    location    "constant";
    object      CH3O;
}
// * * * * * * * * * * * * * * * * * * * * * * * * * * * * * * * * * * * * * //

CH3O_table
101
(

101
(
2.39033144e-21
2.882222867e-16
6.803032495e-15
3.447817992e-14
9.691297094e-14
2.009119251e-13
3.485828323e-13
5.454749355e-13
7.918000291e-13
1.090773802e-12
1.444870794e-12
1.859048612e-12
2.336688057e-12
2.88767354e-12
3.516364312e-12
4.229014563e-12
5.033496052e-12
5.939661663e-12
6.942204161e-12
8.064023054e-12
9.295126531e-12
1.063560133e-11
1.209840703e-11
1.366994922e-11
1.533284519e-11
1.706299385e-11
1.882789356e-11
2.058736304e-11
2.229265287e-11
2.389567194e-11
2.534960273e-11
2.661735655e-11
2.769342452e-11
2.846784711e-11
2.898505658e-11
2.922919773e-11
4.869951428e-11
8.246909133e-11
8.088278782e-11
7.860687359e-11
7.578758325e-11
7.258146304e-11
6.900997198e-11
6.517649164e-11
6.118897305e-11
5.710562077e-11
5.299284852e-11
4.893285967e-11
4.49568417e-11
4.113857061e-11
3.750189465e-11
3.408139337e-11
3.089352388e-11
2.795421545e-11
2.526702628e-11
2.281694558e-11
2.06380013e-11
1.866246488e-11
1.691702846e-11
1.535695041e-11
1.398810883e-11
1.276392641e-11
1.167453953e-11
1.070908244e-11
9.859407708e-12
9.088352266e-12
8.392815789e-12
7.763269007e-12
7.188012334e-12
6.654961674e-12
6.161232528e-12
5.697693816e-12
5.26211782e-12
4.849609236e-12
8.213674011e-12
1.01548845e-11
8.959540056e-12
7.879694671e-12
6.900699157e-12
6.015303414e-12
5.21315933e-12
4.497468784e-12
3.848001943e-12
6.211928151e-12
7.456082784e-12
5.82631389e-12
4.498805029e-12
3.422216352e-12
2.559622794e-12
4.530242151e-12
3.328128857e-12
1.998531092e-12
1.120418867e-12
1.28518532e-12
9.927261533e-13
2.768045465e-13
-1.042846562e-18
-7.512447889e-37
2.871729145e-28
-2.332023656e-28
0
)


101
(
2.369553669e-21
2.240939349e-16
4.917409767e-15
2.285349722e-14
5.99702152e-14
1.182465382e-13
1.978408174e-13
3.00838386e-13
4.277463218e-13
5.808815002e-13
7.626285414e-13
9.770290545e-13
1.227217991e-12
1.52167773e-12
1.864837377e-12
2.262835849e-12
2.724361219e-12
3.26393271e-12
3.870343844e-12
4.587354538e-12
5.394553229e-12
6.296651885e-12
7.337328088e-12
8.506298776e-12
9.798671404e-12
1.121252318e-11
1.273765752e-11
1.435366135e-11
1.604491304e-11
1.777397621e-11
1.95100207e-11
2.120798729e-11
2.280086718e-11
2.436601526e-11
2.572704672e-11
2.689261866e-11
2.863631111e-11
3.136487126e-11
3.299422036e-11
3.375813183e-11
3.411583317e-11
3.415472354e-11
3.402939511e-11
3.371522994e-11
3.320010372e-11
3.256289128e-11
3.177347134e-11
3.089296491e-11
2.991197025e-11
2.888031736e-11
2.779640646e-11
2.66969484e-11
2.559656776e-11
2.449922648e-11
2.34329171e-11
2.241979684e-11
2.150130098e-11
2.063023433e-11
1.985465839e-11
1.914861573e-11
1.852872539e-11
1.797960442e-11
1.749530185e-11
1.707488839e-11
1.671686646e-11
1.641655245e-11
1.615584633e-11
1.592949242e-11
1.573098014e-11
1.554682718e-11
1.537303534e-11
1.520149617e-11
1.502686731e-11
1.482998027e-11
1.460703509e-11
1.435975235e-11
1.409245742e-11
1.380304876e-11
1.348489007e-11
1.313326798e-11
1.274609321e-11
1.23229309e-11
1.185690181e-11
1.134132386e-11
1.078489163e-11
1.020550545e-11
9.600337207e-12
8.959950388e-12
8.278783445e-12
7.546335763e-12
6.76523901e-12
5.967120404e-12
5.131649385e-12
4.23884048e-12
3.307537803e-12
2.31298653e-12
1.270457375e-12
5.945580313e-12
2.210167291e-11
6.880232522e-11
1.721357153e-10
)


101
(
2.348775898e-21
2.003563117e-16
4.695677121e-15
2.260259239e-14
6.117221681e-14
1.241471461e-13
2.134873067e-13
3.333326807e-13
4.864709744e-13
6.778635865e-13
9.130784195e-13
1.200066332e-12
1.546338854e-12
1.967192212e-12
2.473663156e-12
3.080259775e-12
3.80668558e-12
4.682474111e-12
5.702165062e-12
6.94174907e-12
8.386843536e-12
1.005782623e-11
1.204073856e-11
1.434323808e-11
1.697904293e-11
1.996913418e-11
2.332178394e-11
2.70261433e-11
3.108207239e-11
3.544150528e-11
4.006516592e-11
4.487489884e-11
4.970916547e-11
5.481318389e-11
5.970142985e-11
6.436750389e-11
6.98152957e-11
7.685266088e-11
8.361867066e-11
8.910071488e-11
9.343257507e-11
9.674680129e-11
9.965201577e-11
1.021226629e-10
1.040258795e-10
1.055892748e-10
1.066798815e-10
1.074155018e-10
1.077306571e-10
1.077346489e-10
1.073809353e-10
1.067615508e-10
1.059300669e-10
1.048944599e-10
1.036719007e-10
1.023318727e-10
1.010420221e-10
9.966307111e-11
9.840532018e-11
9.717961995e-11
9.609130852e-11
9.509485409e-11
9.417958125e-11
9.34001493e-11
9.276143843e-11
9.226640527e-11
9.185671725e-11
9.153944482e-11
9.133464057e-11
9.115413055e-11
9.102150559e-11
9.088023682e-11
9.079098953e-11
9.061461232e-11
9.030157157e-11
8.982893404e-11
8.92266801e-11
8.847996297e-11
8.756178757e-11
8.642558984e-11
8.503953722e-11
8.337736778e-11
8.140348038e-11
7.907709749e-11
7.636156329e-11
7.330108734e-11
6.996803743e-11
6.63584973e-11
6.239871895e-11
5.807251179e-11
5.333211251e-11
4.823117132e-11
4.287958025e-11
3.716357903e-11
3.102847858e-11
2.438059604e-11
1.715238157e-11
6.02000481e-11
1.779528138e-10
4.687120456e-10
9.920809815e-10
)


101
(
2.327998127e-21
1.846674272e-16
4.652041515e-15
2.305013571e-14
6.390744216e-14
1.327368756e-13
2.335541474e-13
3.731264326e-13
5.573453377e-13
7.949840211e-13
1.0963634e-12
1.475449179e-12
1.946828189e-12
2.536507317e-12
3.267017228e-12
4.167474629e-12
5.27702646e-12
6.651856827e-12
8.303607987e-12
1.036156367e-11
1.283634737e-11
1.578597057e-11
1.937584661e-11
2.366780878e-11
2.873335579e-11
3.466217436e-11
4.153079617e-11
4.938794985e-11
5.830851197e-11
6.828160852e-11
7.930866274e-11
9.131632947e-11
1.040229061e-10
1.180621556e-10
1.324384917e-10
1.46740326e-10
1.631436601e-10
1.820526553e-10
2.025397309e-10
2.229687298e-10
2.419381988e-10
2.589008049e-10
2.751984574e-10
2.90883738e-10
3.056246414e-10
3.200050935e-10
3.335580712e-10
3.465383913e-10
3.585005528e-10
3.696943207e-10
3.797178338e-10
3.88770695e-10
3.969103548e-10
4.040469188e-10
4.101120559e-10
4.153217188e-10
4.197096565e-10
4.22986331e-10
4.258487182e-10
4.278680434e-10
4.295596071e-10
4.307820938e-10
4.314796398e-10
4.318901529e-10
4.320530989e-10
4.319602797e-10
4.316574998e-10
4.309461569e-10
4.305754106e-10
4.300546803e-10
4.294493046e-10
4.285505366e-10
4.279290051e-10
4.27118317e-10
4.259207993e-10
4.24263066e-10
4.221550215e-10
4.19505327e-10
4.164252968e-10
4.127926147e-10
4.083849285e-10
4.028051359e-10
3.960062898e-10
3.877581353e-10
3.7785509e-10
3.661454426e-10
3.526712691e-10
3.378172531e-10
3.213166898e-10
3.030908755e-10
2.827690268e-10
2.606013529e-10
2.366544456e-10
2.112450981e-10
1.839242807e-10
1.536385552e-10
1.199345947e-10
3.419781846e-10
8.626226627e-10
2.087069106e-09
4.128827241e-09
)


101
(
2.307220357e-21
1.708478751e-16
4.625686751e-15
2.353827051e-14
6.677517862e-14
1.418380673e-13
2.552103286e-13
4.169473526e-13
6.370498941e-13
9.295325983e-13
1.311491281e-12
1.805698744e-12
2.437565418e-12
3.249198662e-12
4.281757711e-12
5.58839903e-12
7.240607917e-12
9.339289148e-12
1.193285624e-11
1.523758704e-11
1.932324999e-11
2.432799446e-11
3.056198375e-11
3.821114173e-11
4.748802716e-11
5.86496009e-11
7.195375191e-11
8.763346345e-11
1.05989044e-10
1.271929654e-10
1.514371987e-10
1.788253923e-10
2.089995153e-10
2.435150016e-10
2.807654936e-10
3.203602724e-10
3.640034482e-10
4.134809595e-10
4.691494452e-10
5.294260803e-10
5.91318371e-10
6.52022529e-10
7.135800941e-10
7.759923865e-10
8.385672807e-10
9.028538379e-10
9.676165188e-10
1.033448737e-09
1.098891279e-09
1.16467159e-09
1.229032098e-09
1.292051883e-09
1.353528962e-09
1.413264715e-09
1.470281539e-09
1.524065221e-09
1.576118271e-09
1.623401036e-09
1.668303583e-09
1.707033035e-09
1.742711502e-09
1.775005866e-09
1.802173147e-09
1.826159358e-09
1.846555827e-09
1.860012675e-09
1.869247544e-09
1.873452857e-09
1.874792125e-09
1.874055598e-09
1.86571658e-09
1.854207976e-09
1.840441123e-09
1.825435012e-09
1.80664232e-09
1.784899127e-09
1.757982762e-09
1.730501791e-09
1.700760589e-09
1.670707494e-09
1.640882846e-09
1.606827915e-09
1.570848106e-09
1.53223093e-09
1.489721967e-09
1.441909975e-09
1.38913968e-09
1.332864529e-09
1.272478566e-09
1.207143367e-09
1.13501181e-09
1.057669394e-09
9.743418452e-10
8.860833298e-10
7.925354902e-10
6.866718759e-10
5.661741579e-10
1.446098193e-09
3.305686109e-09
7.663741622e-09
1.332490346e-08
)


101
(
2.286442582e-21
1.575778727e-16
4.598391404e-15
2.402331274e-14
6.971578702e-14
1.513991484e-13
2.784747565e-13
4.650397637e-13
7.263973155e-13
1.083565682e-12
1.562989304e-12
2.199908623e-12
3.035623588e-12
4.13573648e-12
5.570132713e-12
7.429764707e-12
9.837582278e-12
1.296634653e-11
1.693307864e-11
2.209336968e-11
2.863352891e-11
3.684713969e-11
4.729968062e-11
6.042745849e-11
7.674224545e-11
9.686277771e-11
1.214576676e-10
1.512122333e-10
1.869828327e-10
2.294792837e-10
2.795005058e-10
3.376848651e-10
4.039674221e-10
4.819163106e-10
5.694727108e-10
6.667359672e-10
7.753118325e-10
8.980503089e-10
1.038210204e-09
1.196629963e-09
1.369531973e-09
1.550870625e-09
1.743679804e-09
1.947890906e-09
2.162155977e-09
2.390599307e-09
2.631585565e-09
2.88828032e-09
3.158023053e-09
3.443035074e-09
3.738425565e-09
4.043453622e-09
4.357407962e-09
4.68192322e-09
5.015231291e-09
5.34944877e-09
5.689574976e-09
6.028201161e-09
6.377342513e-09
6.704856131e-09
7.013847483e-09
7.329263977e-09
7.61149278e-09
7.883883106e-09
8.147865276e-09
8.370236771e-09
8.560188772e-09
8.711991656e-09
8.809252793e-09
8.921553619e-09
8.952212161e-09
8.93988449e-09
8.878030694e-09
8.795593182e-09
8.668920131e-09
8.503482023e-09
8.301247223e-09
8.067430284e-09
7.776547382e-09
7.481500334e-09
7.185551528e-09
6.902370305e-09
6.583589873e-09
6.273533318e-09
5.953306434e-09
5.632311205e-09
5.290475565e-09
4.967933043e-09
4.6524894e-09
4.35020052e-09
4.041039557e-09
3.727198917e-09
3.422937662e-09
3.115451816e-09
2.81045987e-09
2.469765375e-09
2.092347944e-09
5.290182557e-09
1.130002364e-08
2.855762395e-08
5.017360644e-08
)


101
(
2.265664815e-21
1.445648016e-16
4.568003638e-15
2.450127212e-14
7.272421587e-14
1.614269285e-13
3.034236569e-13
5.177118041e-13
8.263030636e-13
1.259363965e-12
1.855915094e-12
2.668381837e-12
3.760658037e-12
5.231791706e-12
7.194326599e-12
9.796507174e-12
1.324034689e-11
1.781003258e-11
2.37402389e-11
3.160491542e-11
4.179842463e-11
5.489439541e-11
7.18957212e-11
9.37037089e-11
1.214084079e-10
1.56346601e-10
2.00030856e-10
2.541207377e-10
3.206904617e-10
4.017418091e-10
4.995785899e-10
6.16355439e-10
7.531635677e-10
9.178725317e-10
1.109039655e-09
1.329019404e-09
1.58079568e-09
1.869346418e-09
2.203842765e-09
2.59283757e-09
3.036734542e-09
3.528213429e-09
4.076139193e-09
4.684782908e-09
5.354575123e-09
6.098146972e-09
6.918309922e-09
7.835422842e-09
8.852852431e-09
9.977289376e-09
1.12104807e-08
1.253689195e-08
1.395992199e-08
1.549083152e-08
1.715390242e-08
1.888566447e-08
2.068567458e-08
2.257225908e-08
2.454649218e-08
2.651213361e-08
2.84798516e-08
3.050714726e-08
3.244389232e-08
3.428530393e-08
3.611272926e-08
3.781322867e-08
3.934410075e-08
4.070646471e-08
4.179184139e-08
4.275343684e-08
4.346606651e-08
4.393256123e-08
4.409376813e-08
4.40258279e-08
4.366715765e-08
4.301561091e-08
4.218032302e-08
4.103901609e-08
3.954791049e-08
3.786822578e-08
3.603543742e-08
3.428035624e-08
3.232383487e-08
3.031269e-08
2.828883638e-08
2.620217747e-08
2.403577706e-08
2.188389464e-08
1.989262277e-08
1.809873354e-08
1.62874328e-08
1.451641127e-08
1.294935576e-08
1.145884298e-08
1.014051614e-08
8.66574701e-09
7.1461694e-09
2.064764472e-08
4.245221934e-08
9.702796007e-08
1.574713958e-07
)


101
(
2.244887041e-21
1.317501064e-16
4.534244853e-15
2.49708165e-14
7.579748758e-14
1.719291126e-13
3.301347659e-13
5.752840939e-13
9.377390614e-13
1.459396799e-12
2.195850895e-12
3.222693011e-12
4.635141752e-12
6.578826578e-12
9.227803535e-12
1.281455499e-11
1.765897701e-11
2.421304536e-11
3.290176621e-11
4.463371697e-11
6.015165637e-11
8.050547596e-11
1.074231756e-10
1.426211174e-10
1.882327295e-10
2.469280826e-10
3.218384375e-10
4.165560777e-10
5.356095547e-10
6.837842572e-10
8.667450153e-10
1.090321758e-09
1.359013188e-09
1.689540988e-09
2.084704089e-09
2.554713048e-09
3.109547233e-09
3.762205047e-09
4.537980162e-09
5.467210457e-09
6.570714032e-09
7.85351639e-09
9.355716214e-09
1.11063254e-08
1.312474696e-08
1.545530495e-08
1.811529995e-08
2.117628798e-08
2.4685902e-08
2.86657579e-08
3.315269587e-08
3.805523254e-08
4.342584673e-08
4.928495344e-08
5.567368078e-08
6.243887663e-08
6.958094866e-08
7.70169048e-08
8.478836665e-08
9.259607421e-08
1.004377149e-07
1.084859963e-07
1.16371632e-07
1.240436575e-07
1.314807616e-07
1.38544644e-07
1.449529451e-07
1.509762109e-07
1.561339926e-07
1.606573315e-07
1.644472101e-07
1.671796417e-07
1.688811742e-07
1.696037145e-07
1.69412346e-07
1.68021725e-07
1.658491327e-07
1.626426854e-07
1.583940322e-07
1.531094911e-07
1.46730966e-07
1.399379053e-07
1.329017311e-07
1.251632001e-07
1.173565469e-07
1.091892136e-07
1.004902166e-07
9.155037308e-08
8.301293709e-08
7.504489123e-08
6.738424667e-08
5.936660318e-08
5.239789932e-08
4.587670386e-08
3.995059911e-08
3.365924272e-08
2.661214792e-08
7.39397555e-08
1.382773972e-07
2.713027865e-07
4.103125393e-07
)


101
(
2.224109274e-21
1.191306993e-16
4.497064778e-15
2.543076096e-14
7.893231959e-14
1.829122781e-13
3.586857236e-13
6.380888143e-13
1.061733242e-12
1.686328454e-12
2.58893283e-12
3.875796353e-12
5.684646522e-12
8.224788195e-12
1.17568025e-11
1.663392245e-11
2.334734699e-11
3.259532373e-11
4.509783663e-11
6.226462989e-11
8.539577725e-11
1.163146981e-10
1.5791291e-10
2.132752752e-10
2.863205811e-10
3.820630787e-10
5.065830706e-10
6.671082879e-10
8.728667793e-10
1.134272024e-09
1.464098647e-09
1.876620802e-09
2.385326805e-09
3.025678877e-09
3.81559859e-09
4.788142895e-09
5.977589948e-09
7.42690083e-09
9.211470962e-09
1.14177622e-08
1.413364143e-08
1.742311761e-08
2.139823261e-08
2.615976193e-08
3.179049405e-08
3.842200903e-08
4.610479745e-08
5.499085508e-08
6.525393854e-08
7.687879891e-08
8.984905574e-08
1.040731875e-07
1.196591619e-07
1.363803456e-07
1.545409916e-07
1.738782641e-07
1.939881071e-07
2.147371082e-07
2.362479428e-07
2.578907419e-07
2.7955971e-07
3.014650538e-07
3.227033718e-07
3.435695757e-07
3.63768369e-07
3.831915857e-07
4.012227573e-07
4.177887831e-07
4.323824796e-07
4.446555531e-07
4.553255549e-07
4.635104716e-07
4.699942858e-07
4.740033485e-07
4.752194445e-07
4.737039792e-07
4.698526019e-07
4.634106526e-07
4.544716818e-07
4.427980938e-07
4.286839865e-07
4.121477384e-07
3.94967639e-07
3.756198671e-07
3.558249822e-07
3.341796408e-07
3.118893361e-07
2.878453645e-07
2.641867015e-07
2.412255314e-07
2.188436556e-07
1.953761937e-07
1.745299706e-07
1.548583746e-07
1.36063527e-07
1.168762995e-07
9.130701624e-08
2.10855011e-07
3.550377962e-07
6.087401539e-07
8.678159953e-07
)


101
(
2.203331491e-21
1.067169292e-16
4.45644653e-15
2.587991039e-14
8.212499607e-14
1.943814469e-13
3.891527008e-13
7.06467195e-13
1.199366005e-12
1.943014466e-12
3.041865985e-12
4.642101629e-12
6.93809668e-12
1.022476158e-11
1.488187534e-11
2.143199217e-11
3.060977889e-11
4.346700261e-11
6.116534594e-11
8.585011262e-11
1.196804722e-10
1.656888422e-10
2.285762389e-10
3.136566052e-10
4.277779849e-10
5.799165713e-10
7.813111841e-10
1.045773038e-09
1.391263072e-09
1.839237184e-09
2.417180359e-09
3.158492791e-09
4.099747962e-09
5.316883528e-09
6.869469167e-09
8.85154618e-09
1.136710884e-08
1.45438116e-08
1.858617508e-08
2.369524547e-08
3.009629915e-08
3.796520501e-08
4.75752541e-08
5.913944966e-08
7.284741457e-08
8.897311215e-08
1.075975536e-07
1.289916315e-07
1.533242414e-07
1.804888031e-07
2.104445607e-07
2.431016943e-07
2.783702612e-07
3.158550653e-07
3.558335927e-07
3.976557584e-07
4.412055174e-07
4.852470735e-07
5.306109968e-07
5.762102393e-07
6.213938904e-07
6.666984731e-07
7.105382372e-07
7.533113351e-07
7.945209138e-07
8.338092972e-07
8.706041573e-07
9.041292015e-07
9.340651462e-07
9.600234114e-07
9.825041548e-07
1.000642802e-06
1.014455776e-06
1.024001869e-06
1.028843672e-06
1.028814475e-06
1.023570969e-06
1.013512435e-06
9.992117065e-07
9.794134945e-07
9.54308439e-07
9.249542679e-07
8.925306245e-07
8.569355986e-07
8.185045158e-07
7.766299686e-07
7.333848739e-07
6.859205667e-07
6.377502158e-07
5.897452025e-07
5.418550412e-07
4.928201826e-07
4.466563086e-07
4.027052789e-07
3.594541834e-07
3.138942139e-07
2.552611879e-07
4.865802931e-07
7.437224608e-07
1.135366912e-06
1.52280588e-06
)


101
(
2.182553724e-21
9.452252028e-17
4.412385907e-15
2.631706105e-14
8.537148861e-14
2.063403153e-13
4.216099889e-13
7.807669131e-13
1.351772649e-12
2.232516688e-12
3.561961654e-12
5.537569121e-12
8.428018709e-12
1.264160774e-11
1.871937871e-11
2.741679775e-11
3.980780404e-11
5.744170953e-11
8.212323904e-11
1.170555556e-10
1.656853565e-10
2.328809147e-10
3.260890536e-10
4.541416537e-10
6.285741974e-10
8.648848174e-10
1.183112817e-09
1.608749203e-09
2.175819026e-09
2.92740664e-09
3.921076102e-09
5.231518411e-09
6.949337683e-09
9.238118802e-09
1.225244075e-08
1.622023918e-08
2.14019486e-08
2.810231881e-08
3.674921235e-08
4.772977365e-08
6.148997483e-08
7.834352395e-08
9.880159884e-08
1.231761881e-07
1.517700906e-07
1.850143484e-07
2.22900719e-07
2.657203098e-07
3.134629866e-07
3.6600565e-07
4.231606641e-07
4.847953416e-07
5.505055269e-07
6.195876539e-07
6.914841147e-07
7.661792257e-07
8.435454147e-07
9.212505924e-07
1.000168959e-06
1.079062012e-06
1.156725207e-06
1.233471539e-06
1.308107035e-06
1.380178772e-06
1.448971705e-06
1.514007497e-06
1.575554205e-06
1.63168254e-06
1.682328963e-06
1.726388778e-06
1.76432301e-06
1.795483983e-06
1.819990011e-06
1.837558723e-06
1.847853725e-06
1.850189362e-06
1.844435463e-06
1.831258781e-06
1.810956567e-06
1.782638746e-06
1.745734156e-06
1.701729924e-06
1.651444138e-06
1.596044853e-06
1.535319765e-06
1.468289995e-06
1.39815611e-06
1.321943231e-06
1.242247289e-06
1.162820968e-06
1.0806061e-06
9.972896887e-07
9.164288226e-07
8.383802886e-07
7.614833749e-07
6.752832167e-07
5.645634392e-07
9.37271594e-07
1.324706203e-06
1.831281964e-06
2.305573888e-06
)


101
(
2.161776712e-21
8.256199275e-17
4.364884403e-15
2.674096994e-14
8.866729427e-14
2.187908796e-13
4.561297161e-13
8.613422712e-13
1.520137469e-12
2.558099982e-12
4.157151927e-12
6.579794757e-12
1.019081385e-11
1.55466848e-11
2.340321691e-11
3.483084285e-11
5.136782239e-11
7.525159933e-11
1.092015678e-10
1.579157595e-10
2.267272945e-10
3.232279885e-10
4.589677724e-10
6.481888966e-10
9.098893942e-10
1.270115806e-09
1.763617769e-09
2.436506517e-09
3.352393915e-09
4.596157041e-09
6.28467349e-09
8.57503798e-09
1.166751686e-08
1.589884474e-08
2.160144256e-08
2.923907516e-08
3.933798362e-08
5.247969097e-08
6.939564416e-08
9.070069293e-08
1.171115223e-07
1.490537504e-07
1.872698285e-07
2.321494525e-07
2.840164999e-07
3.433256866e-07
4.097346729e-07
4.834390856e-07
5.642757444e-07
6.520170298e-07
7.461123963e-07
8.462167964e-07
9.517659274e-07
1.061523314e-06
1.174237523e-06
1.290669612e-06
1.409399037e-06
1.528434489e-06
1.647619172e-06
1.766374207e-06
1.882849353e-06
1.996664638e-06
2.106837596e-06
2.212582823e-06
2.31333522e-06
2.407987273e-06
2.496643776e-06
2.57825531e-06
2.651966747e-06
2.716501654e-06
2.77196217e-06
2.817773176e-06
2.854122067e-06
2.880598261e-06
2.896932658e-06
2.90227582e-06
2.896585852e-06
2.88056907e-06
2.853818052e-06
2.816749543e-06
2.76839995e-06
2.709265273e-06
2.64084295e-06
2.564452025e-06
2.479922359e-06
2.38628104e-06
2.286736718e-06
2.180242523e-06
2.067034353e-06
1.951657753e-06
1.832232359e-06
1.710430466e-06
1.589402852e-06
1.471708812e-06
1.356378549e-06
1.223585596e-06
1.05271897e-06
1.55545746e-06
2.051730807e-06
2.626274077e-06
3.140150493e-06
)


101
(
2.141001597e-21
7.085008113e-17
4.313954306e-15
2.715037908e-14
9.200746043e-14
2.317332405e-13
4.927808745e-13
9.485520719e-13
1.705690833e-12
2.923222108e-12
4.83600416e-12
7.788089166e-12
1.226703208e-11
1.902063087e-11
2.908670748e-11
4.395512344e-11
6.578938962e-11
9.7763222e-11
1.438724029e-10
2.108974223e-10
3.068817219e-10
4.433883005e-10
6.380074316e-10
9.131328236e-10
1.299440227e-09
1.840037449e-09
2.594463266e-09
3.644978653e-09
5.108628912e-09
7.147068282e-09
9.985330363e-09
1.392853346e-08
1.936951726e-08
2.693359053e-08
3.723044535e-08
5.106559813e-08
6.931903607e-08
9.289797091e-08
1.228548287e-07
1.600944534e-07
2.055254699e-07
2.596137995e-07
3.232154734e-07
3.966853211e-07
4.802034006e-07
5.741567044e-07
6.778090089e-07
7.910331536e-07
9.13259458e-07
1.044224444e-06
1.182872627e-06
1.328561427e-06
1.480491929e-06
1.63709588e-06
1.796729154e-06
1.959477119e-06
2.124058575e-06
2.288034547e-06
2.451040492e-06
2.612179094e-06
2.769785304e-06
2.922716403e-06
3.069950021e-06
3.210393547e-06
3.343422133e-06
3.46834715e-06
3.584270183e-06
3.690599623e-06
3.786642065e-06
3.87073365e-06
3.942898081e-06
4.002454209e-06
4.04941604e-06
4.083576428e-06
4.104790726e-06
4.112318994e-06
4.105689947e-06
4.085652742e-06
4.05205958e-06
4.00533003e-06
3.944945501e-06
3.870810656e-06
3.784404342e-06
3.687077904e-06
3.579284021e-06
3.460198557e-06
3.331661534e-06
3.194965136e-06
3.049900984e-06
2.899243786e-06
2.743271628e-06
2.584137572e-06
2.424287685e-06
2.266519468e-06
2.112964843e-06
1.933781743e-06
1.702944578e-06
2.298174432e-06
2.852478284e-06
3.413056024e-06
3.887853183e-06
)


101
(
2.120226482e-21
5.940153917e-17
4.259616277e-15
2.75440074e-14
9.538659527e-14
2.451654937e-13
5.316277371e-13
1.04275524e-12
1.909714531e-12
3.331555307e-12
5.607718959e-12
9.183532319e-12
1.470155956e-11
2.315382061e-11
3.594385335e-11
5.51125049e-11
8.365427772e-11
1.259991665e-10
1.878949468e-10
2.789833708e-10
4.111327429e-10
6.016123043e-10
8.768120963e-10
1.271395112e-09
1.834238598e-09
2.635856376e-09
3.777262656e-09
5.402618485e-09
7.720949142e-09
1.102312341e-08
1.5710076e-08
2.232173451e-08
3.154634695e-08
4.441727953e-08
6.189437975e-08
8.519720972e-08
1.155939776e-07
1.543105442e-07
2.026815497e-07
2.619223189e-07
3.329660145e-07
4.161546626e-07
5.123242001e-07
6.216626486e-07
7.439930344e-07
8.795267471e-07
1.027168048e-06
1.186329777e-06
1.355950797e-06
1.535591813e-06
1.72333393e-06
1.918379601e-06
2.119963527e-06
2.326010946e-06
2.534509462e-06
2.744703485e-06
2.955986833e-06
3.16507126e-06
3.37173271e-06
3.57424049e-06
3.77147341e-06
3.961645227e-06
4.143653913e-06
4.316332423e-06
4.479009451e-06
4.630804532e-06
4.77069556e-06
4.898074308e-06
5.012234417e-06
5.111944673e-06
5.196814341e-06
5.26612973e-06
5.319908751e-06
5.357956761e-06
5.380330872e-06
5.386494605e-06
5.375806299e-06
5.348944549e-06
5.305957691e-06
5.24738403e-06
5.173235661e-06
5.083098896e-06
4.97828097e-06
4.860260732e-06
4.729622088e-06
4.58640273e-06
4.431305864e-06
4.266306807e-06
4.092221563e-06
3.910646465e-06
3.722047612e-06
3.529751077e-06
3.336347264e-06
3.143730101e-06
2.956843229e-06
2.737456421e-06
2.456264299e-06
3.074972802e-06
3.610228701e-06
4.069388403e-06
4.413098071e-06
)


101
(
2.099451351e-21
4.823110159e-17
4.201898722e-15
2.792055859e-14
9.879883713e-14
2.590837122e-13
5.727302733e-13
1.144310821e-12
2.133527871e-12
3.786966605e-12
6.482119048e-12
1.078907603e-11
1.754391654e-11
2.804712553e-11
4.417114041e-11
6.867190807e-11
1.05636378e-10
1.611618538e-10
2.433694456e-10
3.658213577e-10
5.456611122e-10
8.082847458e-10
1.192805936e-09
1.752447458e-09
2.564413358e-09
3.742562078e-09
5.455008278e-09
7.945289464e-09
1.156762954e-08
1.68106364e-08
2.433203729e-08
3.49944126e-08
4.98708813e-08
7.050421176e-08
9.822840589e-08
1.346990026e-07
1.81552686e-07
2.40279029e-07
3.124152719e-07
3.993366976e-07
5.018938811e-07
6.201971992e-07
7.548665065e-07
9.056805894e-07
1.071965676e-06
1.253700955e-06
1.449460478e-06
1.658137121e-06
1.878146254e-06
2.108603418e-06
2.346973299e-06
2.592173391e-06
2.843302506e-06
3.097957198e-06
3.353961459e-06
3.609852454e-06
3.864952479e-06
4.115997001e-06
4.362336633e-06
4.601988928e-06
4.833898636e-06
5.056119863e-06
5.267347991e-06
5.466429562e-06
5.652580089e-06
5.82489932e-06
5.982308311e-06
6.124116622e-06
6.249571907e-06
6.357761069e-06
6.44836977e-06
6.520493538e-06
6.574426037e-06
6.609888205e-06
6.627163072e-06
6.626026957e-06
6.605468545e-06
6.566672253e-06
6.509684354e-06
6.43508771e-06
6.343713314e-06
6.234865588e-06
6.109714521e-06
5.970029727e-06
5.816582666e-06
5.649762035e-06
5.469886937e-06
5.27950911e-06
5.079155378e-06
4.871238203e-06
4.656089809e-06
4.436476187e-06
4.216357065e-06
3.9967667e-06
3.784023286e-06
3.534277331e-06
3.215058449e-06
3.772879114e-06
4.207269947e-06
4.50084484e-06
4.640073636e-06
)


101
(
2.078676221e-21
3.735341437e-17
4.140835262e-15
2.827872763e-14
1.022378081e-13
2.73481354e-13
6.16142778e-13
1.253574488e-12
2.378485543e-12
4.293514419e-12
7.469714834e-12
1.262952768e-11
2.084843329e-11
3.381266877e-11
5.398981043e-11
8.505386509e-11
1.325120526e-10
2.046541771e-10
3.127799829e-10
4.757619481e-10
7.179777031e-10
1.076387667e-09
1.60858447e-09
2.395560152e-09
3.558089307e-09
5.27670569e-09
7.821788278e-09
1.158345354e-08
1.7123486e-08
2.520403962e-08
3.682712178e-08
5.325056875e-08
7.596325258e-08
1.070856677e-07
1.482877702e-07
2.01634178e-07
2.690635718e-07
3.522402058e-07
4.528006811e-07
5.720858786e-07
7.108142884e-07
8.685759668e-07
1.045698119e-06
1.241514482e-06
1.454776437e-06
1.684944612e-06
1.930171079e-06
2.189142438e-06
2.459596599e-06
2.74007327e-06
3.027796197e-06
3.321139679e-06
3.618737432e-06
3.918249965e-06
4.217383166e-06
4.514105969e-06
4.807405373e-06
5.094171116e-06
5.373566666e-06
5.643265314e-06
5.902153978e-06
6.148376735e-06
6.380627526e-06
6.597456659e-06
6.798121548e-06
6.981928536e-06
7.147750135e-06
7.29483741e-06
7.422215689e-06
7.529501056e-06
7.616492282e-06
7.682138843e-06
7.727268381e-06
7.751285665e-06
7.754909141e-06
7.738591938e-06
7.700766884e-06
7.643123393e-06
7.565326413e-06
7.469251075e-06
7.355562441e-06
7.22353487e-06
7.075080352e-06
6.911282875e-06
6.733350699e-06
6.542921916e-06
6.339240826e-06
6.125516238e-06
5.901904873e-06
5.671373857e-06
5.435586329e-06
5.194789553e-06
4.954613652e-06
4.715854635e-06
4.48508505e-06
4.215152478e-06
3.871115459e-06
4.29215449e-06
4.56252698e-06
4.667195651e-06
4.654506816e-06
)


101
(
2.057901121e-21
2.67831313e-17
4.076439957e-15
2.861719911e-14
1.056966845e-13
2.883494915e-13
6.6191314e-13
1.370895502e-12
2.645980536e-12
4.855460004e-12
8.58167354e-12
1.473155482e-11
2.467438479e-11
4.057467453e-11
6.564840441e-11
1.047372879e-10
1.651752216e-10
2.581053377e-10
3.990479163e-10
6.139809477e-10
9.372618801e-10
1.422251849e-09
2.153574235e-09
3.252691888e-09
4.905703461e-09
7.391272496e-09
1.112341094e-08
1.668994782e-08
2.492399797e-08
3.693027576e-08
5.41215956e-08
7.819569105e-08
1.110476735e-07
1.55368052e-07
2.130923442e-07
2.866382251e-07
3.781458978e-07
4.893278661e-07
6.218137611e-07
7.767759727e-07
9.545185978e-07
1.15415611e-06
1.375689759e-06
1.617790275e-06
1.878592903e-06
2.157056681e-06
2.450886478e-06
2.758468342e-06
3.076843784e-06
3.404154923e-06
3.737402277e-06
4.074387261e-06
4.413138995e-06
4.751398286e-06
5.086771907e-06
5.417011954e-06
5.740680235e-06
6.054677153e-06
6.358248645e-06
6.648805916e-06
6.925036822e-06
7.185145464e-06
7.427939908e-06
7.651729262e-06
7.856288091e-06
8.040207747e-06
8.203262852e-06
8.344701686e-06
8.463261367e-06
8.558875957e-06
8.631164167e-06
8.679813251e-06
8.705642654e-06
8.708274659e-06
8.688649675e-06
8.64783984e-06
8.585067394e-06
8.500249586e-06
8.394979944e-06
8.271014349e-06
8.128985132e-06
7.969109588e-06
7.794023707e-06
7.60334696e-06
7.399452119e-06
7.184223605e-06
6.957317297e-06
6.721527431e-06
6.477527948e-06
6.227796879e-06
5.97558682e-06
5.719347384e-06
5.464762691e-06
5.213595618e-06
4.971436224e-06
4.689802075e-06
4.332235954e-06
4.571344974e-06
4.652904243e-06
4.585836831e-06
4.409798125e-06
)


101
(
2.037125991e-21
1.653436897e-17
4.008903551e-15
2.893464809e-14
1.091681342e-13
3.036766534e-13
7.100821956e-13
1.496614184e-12
2.937428759e-12
5.477272581e-12
9.829814708e-12
1.712370752e-11
2.908607735e-11
4.847013038e-11
7.942588387e-11
1.282696198e-10
2.046642599e-10
3.234410195e-10
5.056874658e-10
7.866800655e-10
1.214844326e-09
1.866554587e-09
2.865700012e-09
4.390502912e-09
6.71990661e-09
1.026871057e-08
1.563878882e-08
2.366337286e-08
3.550234576e-08
5.26511315e-08
7.695459219e-08
1.105544874e-07
1.557315693e-07
2.156666058e-07
2.924652546e-07
3.888336863e-07
5.069960329e-07
6.485506544e-07
8.149605016e-07
1.007152731e-06
1.224986414e-06
1.46705743e-06
1.7328118e-06
2.020342459e-06
2.327196231e-06
2.651780647e-06
2.991261816e-06
3.343612096e-06
3.705476885e-06
4.074493807e-06
4.447363102e-06
4.821491111e-06
5.19435751e-06
5.563505745e-06
5.92654527e-06
6.281272879e-06
6.625783787e-06
6.957048562e-06
7.274305771e-06
7.574993373e-06
7.857567425e-06
8.120266065e-06
8.361749673e-06
8.580636145e-06
8.777044047e-06
8.948962459e-06
9.097402413e-06
9.221235704e-06
9.319518532e-06
9.391599993e-06
9.438012283e-06
9.459063102e-06
9.455212073e-06
9.426857982e-06
9.375265101e-06
9.301262822e-06
9.20453474e-06
9.086411853e-06
8.947619676e-06
8.790163291e-06
8.615097987e-06
8.424393849e-06
8.219183098e-06
8.000222979e-06
7.76974185e-06
7.530076384e-06
7.281303196e-06
7.025312878e-06
6.763790955e-06
6.498397825e-06
6.233097511e-06
5.96654335e-06
5.702849597e-06
5.444237943e-06
5.196560626e-06
4.910195992e-06
4.548766905e-06
4.601075124e-06
4.509057701e-06
4.316149926e-06
4.036142535e-06
)


101
(
2.016350861e-21
6.621010645e-18
3.938159267e-15
2.922975507e-14
1.126443387e-13
3.194485136e-13
7.606824454e-13
1.631058298e-12
3.25422475e-12