/*--------------------------------*- C++ -*----------------------------------*\
| =========                 |                                                 |
| \\      /  F ield         | OpenFOAM: The Open Source CFD Toolbox           |
|  \\    /   O peration     | Version:  2.3.1                                 |
|   \\  /    A nd           | Web:      www.OpenFOAM.org                      |
|    \\/     M anipulation  |                                                 |
\*---------------------------------------------------------------------------*/
FoamFile
{
    version     2.0;
    format      ascii;
    class       dictionary;
    location    "constant";
    object      CO;
}
// * * * * * * * * * * * * * * * * * * * * * * * * * * * * * * * * * * * * * //

CO_table
101
(

101
(
0.0006146104909
0.002622212525
0.004797207594
0.007004678817
0.009164861605
0.01123592921
0.01320134079
0.01504491996
0.0167685363
0.01837346003
0.01986401059
0.02124398184
0.02252058525
0.02369326912
0.02476950878
0.02575402333
0.02664926109
0.02745652462
0.0281884118
0.028835697
0.02941310553
0.02992441449
0.03036602648
0.03074603584
0.03106938939
0.03133921932
0.03155879577
0.03173157886
0.03185923836
0.03194516848
0.03199155169
0.03200154359
0.03198053
0.03191922624
0.03182848167
0.03170829595
0.0315607445
0.03138854603
0.0311907428
0.03096668104
0.03071871113
0.03045167849
0.03016300779
0.02985471304
0.02952930946
0.02918550165
0.02882561129
0.02844890592
0.02805721174
0.02765023356
0.02722965511
0.02679562655
0.02634880739
0.02588989503
0.02541959729
0.02493842159
0.0244454893
0.02394352158
0.02343112066
0.02290984313
0.02237940605
0.02184064638
0.02129394241
0.02073946449
0.0201776989
0.01960887298
0.01903347695
0.01845182079
0.01786395265
0.01727050095
0.01667158349
0.01606749902
0.015458282
0.01484465161
0.01422693726
0.01360540706
0.01297970416
0.01235037959
0.01171783776
0.01108231633
0.01044403314
0.009802894626
0.009159456895
0.008513780117
0.007866059209
0.007216532627
0.006565398341
0.005912820562
0.005258956359
0.004603987962
0.003948000109
0.0032912099
0.002633760433
0.001975746407
0.001317335964
0.0006585552055
-9.454374122e-12
5.828399599e-35
2.011015773e-22
-3.122769413e-21
0
)


101
(
0.0006139854744
0.002601561487
0.004755062364
0.006941174143
0.009081105542
0.01113347592
0.0130819385
0.0149106445
0.01662127135
0.01821520563
0.01969670603
0.0210696067
0.02234090194
0.02351055824
0.02458547095
0.02557044614
0.02646811797
0.02727993608
0.02801687181
0.0286725685
0.02925830589
0.02977897476
0.03023252586
0.03062487554
0.03096108626
0.03124457759
0.03147851054
0.03166614304
0.03180951075
0.03191145713
0.0319743271
0.03200088699
0.03199548462
0.03195410565
0.03188104427
0.0317788284
0.03164921094
0.03149441809
0.0313149885
0.03111062213
0.03088228684
0.03063301636
0.03036348653
0.03007421675
0.02976687568
0.02944202557
0.02910045367
0.02874272495
0.02836950951
0.02798142287
0.02757916588
0.02716350265
0.02673494005
0.02629405495
0.02584146666
0.02537777191
0.02490312994
0.02441798369
0.02392310179
0.02341863967
0.02290514852
0.02238291697
0.02185242844
0.02131404572
0.02076806681
0.02021482941
0.01965463746
0.01908786141
0.01851477759
0.01793559676
0.01735070022
0.01676033642
0.01616476201
0.01556418573
0.01495900349
0.01434944938
0.01373572244
0.01311790425
0.01249628779
0.01187119776
0.01124285701
0.01061145188
0.00997710345
0.009340091332
0.008700490947
0.008058517779
0.007414364959
0.006768267979
0.006120349479
0.005470865654
0.004819736683
0.004167301113
0.003513699188
0.002859060754
0.002203572579
0.001549657708
0.0008990039412
0.000926021054
0.0009530189544
0.0009798589383
0.001006698917
)


101
(
0.0006133604578
0.002580908346
0.004712906837
0.006877638667
0.008997281566
0.01103090115
0.01296234419
0.01477607082
0.01647359357
0.01805639063
0.01952866876
0.02089429044
0.02216005779
0.02332636695
0.02439966927
0.02538477587
0.02628448177
0.02710038384
0.02784217552
0.02850548995
0.02909941712
0.02962910892
0.03009381147
0.03049818698
0.03084696833
0.03114374058
0.03139165074
0.03159380583
0.03175243393
0.03187009941
0.03194911936
0.03199202554
0.03200242434
0.0319792075
0.0319241654
0.03183978215
0.03172798619
0.03159070162
0.03142914527
0.03124361335
0.03103455119
0.03080368369
0.03055273046
0.03028226254
0.02999329233
0.02968696602
0.02936379801
0.02902464284
0.02866992508
0.0283004174
0.02791657207
0.0275191907
0.02710882848
0.02668599801
0.02625123275
0.02580511954
0.02534827099
0.02488051139
0.02440289928
0.02391548579
0.02341888692
0.02291333618
0.02239924743
0.02187704808
0.02134702376
0.02080950885
0.02026475715
0.01971310872
0.01915492401
0.0185903269
0.01801969011
0.01744326828
0.01686139993
0.01627420508
0.01568199294
0.01508494982
0.01448339722
0.01387741192
0.0132671496
0.01265292937
0.01203497399
0.01141354838
0.0107887264
0.010160763
0.009529719956
0.0088957988
0.00825908271
0.007619858195
0.006978261633
0.006334639771
0.005688768044
0.005041150247
0.004391756942
0.003740851667
0.003088714147
0.002440111788
0.001798001164
0.001852035235
0.001906030981
0.001959711395
0.002013391731
)


101
(
0.0006127354413
0.002560253124
0.004670741095
0.006814072599
0.008913390121
0.01092820568
0.01284255918
0.01464120177
0.01632550601
0.01789702027
0.01935990587
0.02071804356
0.02197806448
0.0231407191
0.02421212246
0.02519703729
0.02609838854
0.02691791587
0.02766431665
0.02833457383
0.02893641887
0.02947482785
0.02995001096
0.03036598815
0.03072702771
0.03103672322
0.03129823378
0.03151456651
0.03168804113
0.03182108466
0.03191592696
0.03197492517
0.03200115819
0.03199504805
0.03195770093
0.03189102452
0.03179693048
0.03167716999
0.03153323309
0.03136591313
0.03117561042
0.03096327789
0.0307307376
0.03047880691
0.0302082436
0.02992028269
0.02961543958
0.02929464992
0.02895830589
0.02860719191
0.02824168462
0.02786253083
0.02747030311
0.02706550117
0.02664860298
0.02622015288
0.02578093322
0.02533066208
0.02487035197
0.02440006215
0.02392040661
0.02343161422
0.02293405771
0.02242816319
0.02191422853
0.02139257931
0.02086344934
0.02032714549
0.01978404242
0.01923425392
0.01867813111
0.01811590788
0.01754794434
0.01697436224
0.01639542731
0.01581128439
0.01522225111
0.01462843573
0.01402992531
0.01342699553
0.01281984872
0.01220877374
0.0115938632
0.01097534816
0.0103532693
0.009727843934
0.00909907606
0.008467196161
0.007832333037
0.007194980894
0.006554777102
0.005912403593
0.00526770888
0.004620952996
0.003972627515
0.003329903103
0.002696996764
0.002778046674
0.002859039619
0.002939562191
0.003020084653
)


101
(
0.0006121104248
0.002539595842
0.004628565221
0.006750476152
0.008829431651
0.01082539029
0.01272258478
0.01450604017
0.01617701175
0.01773709967
0.01919042443
0.02054087642
0.0217949338
0.02295363745
0.0240228505
0.02500725488
0.02590987331
0.0267325792
0.0274833003
0.02815990975
0.02876931912
0.02931613839
0.02980122313
0.03022832467
0.03060126936
0.03092353662
0.03119827706
0.03142843194
0.03161635741
0.0317644152
0.03187474465
0.03194955882
0.03199155403
0.03200188903
0.03198171617
0.03193249592
0.03185592616
0.0317536322
0.03162716447
0.03147763737
0.03130559955
0.03111164345
0.03089739761
0.03066379737
0.03041154636
0.03014184372
0.02985522487
0.0295526519
0.02923453828
0.02890166355
0.02855437953
0.02819337713
0.02781921475
0.02743238855
0.0270333493
0.02662260074
0.02620096731
0.02576818855
0.02532521701
0.02487210788
0.02440945889
0.02393749758
0.02345657463
0.02296709931
0.02246937789
0.02196372976
0.02145038113
0.02092961238
0.02040178571
0.01986701245
0.0193256353
0.01877786283
0.01822405024
0.01766433032
0.01709894983
0.016528026
0.01595184542
0.01537054304
0.01478416227
0.01419294433
0.0135970365
0.01299672115
0.01239212356
0.01178346418
0.01117076953
0.01055426754
0.009933908683
0.009309908002
0.008682264904
0.008051620491
0.007417529966
0.006780856556
0.006141365686
0.005499241729
0.004855218276
0.004219001429
0.003595991966
0.003704060901
0.003812053605
0.003919416233
0.004026778477
)


101
(
0.0006114854081
0.002518936522
0.004586379292
0.006686849527
0.008745406585
0.01072245573
0.01260242227
0.01437058877
0.01602811393
0.01757663388
0.01902023141
0.0203627992
0.02161067763
0.02276514375
0.02383187435
0.02481545324
0.02571897025
0.02654442009
0.02729914097
0.02798157169
0.02859814404
0.02915304983
0.02964752488
0.03008525546
0.03046971337
0.03080419333
0.03109179738
0.0313354138
0.03153740435
0.03170010096
0.03182556978
0.03191590375
0.03197351494
0.03199984886
0.03199632237
0.03196417909
0.03190489384
0.03181993707
0.03171081134
0.03157879096
0.03142460762
0.03124874563
0.03105261777
0.03083716135
0.03060307676
0.03035151227
0.03008300858
0.02979852566
0.02949850559
0.02918372652
0.02885453974
0.02851159447
0.02815542235
0.02778650869
0.02740529049
0.0270122417
0.02660817989
0.02619288354
0.02576726567
0.02533137827
0.02488579483
0.02443073695
0.02396653858
0.02349358918
0.02301219639
0.02252267523
0.02202525263
0.02152019143
0.02100783271
0.02048827778
0.01996186557
0.0194287836
0.01888937469
0.01834377921
0.01779223359
0.01723483234
0.01667182191
0.01610336345
0.01552947199
0.01495036806
0.0143661402
0.01377701891
0.01318315658
0.0125847729
0.01198189074
0.01137475548
0.01076326381
0.010147634
0.0095277673
0.008904327084
0.008276822631
0.007646335358
0.007012545141
0.006375621208
0.005736427839
0.005107376891
0.004494985568
0.004630078233
0.004765074433
0.00489927445
0.005033474857
)


101
(
0.0006108603917
0.002498275198
0.004544183417
0.006623192977
0.008661315418
0.01061940285
0.01248207302
0.01423485041
0.01587881582
0.01741562799
0.01884933386
0.02018382203
0.02142530798
0.02257525904
0.02363921571
0.02462165712
0.0255257129
0.02635348383
0.02711186055
0.02779962267
0.02842293068
0.0289855772
0.02948897687
0.02993684323
0.03033239258
0.03067871077
0.03097881174
0.03123552686
0.03145120257
0.03162815688
0.03176840336
0.03187394107
0.03194696902
0.03198896671
0.0320016211
0.03198612661
0.03194380497
0.03187597795
0.0317840422
0.03166931146
0.0315326574
0.0313745824
0.03119634284
0.03099882929
0.03078273797
0.03054916853
0.03029865711
0.03003214139
0.029750084
0.02945326266
0.02914204321
0.02881704855
0.02847878298
0.02812771431
0.02776426689
0.0273888929
0.02700238365
0.02660455567
0.02619629152
0.02577764872
0.02534917697
0.02491108836
0.02446370059
0.02400737978
0.02354242876
0.02306915456
0.02258779138
0.02209859436
0.02160188535
0.02109775011
0.02058651842
0.02006835919
0.01954360152
0.01901239358
0.01847496438
0.01793138962
0.01738186846
0.01682658261
0.01626552629
0.01569891452
0.01512679132
0.01454931997
0.01396664277
0.0133789777
0.0127863502
0.01218903128
0.01158687573
0.01098011164
0.010368568
0.009752884627
0.009132490716
0.008508700427
0.007881139138
0.007250001979
0.006616204872
0.005994996193
0.005393981361
0.005556091147
0.005718085543
0.005879126984
0.006040168642
)


101
(
0.0006102353751
0.002477611878
0.00450197765
0.006559506673
0.008577158538
0.01051623233
0.01236153821
0.0140988277
0.01572912053
0.01725408683
0.01867773853
0.02000395469
0.02123883666
0.0223840033
0.02344489647
0.02442589122
0.02533013384
0.02615981445
0.02692148678
0.02761411853
0.02824372228
0.0288137422
0.02932562938
0.0297831502
0.03018934998
0.03054711371
0.03085933887
0.0311287876
0.03135777316
0.03154860264
0.03170325415
0.03182365806
0.03191185761
0.03196923577
0.03199767729
0.03199840614
0.03197267536
0.03192169886
0.03184675187
0.03174910964
0.03162971924
0.03148914151
0.03132853548
0.03114874333
0.03095044947
0.03073470852
0.03050204949
0.03025337432
0.02998915207
0.029710154
0.02941676703
0.02910960475
0.02878915211
0.02845585496
0.02811012248
0.0277523884
0.02738341015
0.02700303053
0.02661211026
0.02621071918
0.02579938867
0.02537832281
0.02494782337
0.02450823076
0.02405983519
0.02360292814
0.02313775108
0.02266456128
0.02218367042
0.02169514883
0.02119931067
0.0206963043
0.02018644307
0.01966988214
0.01914684756
0.01861740132
0.01808169219
0.01753991223
0.01699203622
0.01643828454
0.01587866914
0.01531329572
0.01474227339
0.01416579769
0.01358389365
0.01299686171
0.01240451311
0.0118071141
0.01120442316
0.0105970914
0.009984361029
0.00936782195
0.008747044404
0.00812229886
0.007494512071
0.006881821809
0.006292989904
0.006482112784
0.006671101656
0.006858980753
0.007046857904
)


101
(
0.0006096103587
0.002456946604
0.004459762113
0.006495790886
0.00849293646
0.01041294504
0.01224081923
0.01396252341
0.01557903143
0.01709201542
0.0185054524
0.01982320704
0.02105127572
0.0221913961
0.02324893909
0.02422818077
0.02513226545
0.0259634553
0.02672805209
0.02742511129
0.02806056622
0.02863757287
0.02915752668
0.02962423547
0.0300406348
0.0304094342
0.03073340109
0.03101521424
0.03125713685
0.03146146013
0.03163013702
0.03176505199
0.03186813917
0.03194062607
0.03198451751
0.03200107649
0.03199154698
0.03195708739
0.0318988692
0.03181809534
0.03171573072
0.03159238701
0.0314491596
0.0312868553
0.0311061455
0.03090804366
0.03069307555
0.03046210214
0.03021558763
0.02995428553
0.02967859755
0.02938913817
0.02908638901
0.02877077932
0.02844269852
0.02810256167
0.02775108916
0.02738814106
0.02701455266
0.0266304104
0.02623623501
0.02583222934
0.02541868181
0.02499590884
0.02456418191
0.02412376701
0.02367490434
0.02321785687
0.02275293805
0.02228021315
0.02179997842
0.02131235407
0.02081763315
0.02031597632
0.01980760964
0.01929258793
0.01877101344
0.01824307863
0.01770873426
0.01716821081
0.01662150123
0.01606865953
0.01550976063
0.01494495686
0.01437426579
0.01379801679
0.01321596621
0.01262844604
0.01203513915
0.0114367514
0.01083227963
0.01022357389
0.009610173265
0.008992429508
0.008371313145
0.007767868059
0.007191992537
0.007408132094
0.007624118438
0.007838836619
0.008053553021
)


101
(
0.0006089853418
0.002436279375
0.004417536848
0.006432045769
0.008408649546
0.01030954164
0.01211991723
0.01382594005
0.01542855165
0.01692941844
0.01833248204
0.0196415885
0.02086263685
0.02199745598
0.02305136571
0.02402855078
0.02493213922
0.02576444832
0.02653159213
0.02723264985
0.02787351169
0.02845710332
0.02898470996
0.02946015428
0.02988629988
0.03026571144
0.03060102581
0.03089482784
0.03114931515
0.03136675309
0.03154907233
0.03169812846
0.03181578608
0.03190310112
0.03196213735
0.03199417277
0.03200046518
0.03198216117
0.03194036372
0.03187620054
0.03179062102
0.0316842642
0.03155816752
0.03141311531
0.03124976831
0.03106910115
0.03087164253
0.03065821479
0.03042927096
0.03018553822
0.02992742381
0.02965553922
0.02937037048
0.02907234616
0.02876184129
0.0284392489
0.02810525213
0.02775971969
0.02740345424
0.0270365566
0.02665954226
0.02627261891
0.02587606906
0.02547019181
0.02505524039
0.02463144661
0.02419903494
0.02375826825
0.02330946662
0.02285270488
0.02238827163
0.02191625601
0.02143692249
0.02095042913
0.02045700192
0.01995669495
0.01944957395
0.01893582872
0.01841537364
0.01788844737
0.01735503941
0.01681516171
0.01626885052
0.01571620418
0.01515722647
0.01459227928
0.01402104661
0.01344392525
0.01286055587
0.01227169448
0.01167610979
0.01107584621
0.01047044386
0.009860333932
0.009246576827
0.008653113378
0.008090994236
0.008334152452
0.008577138091
0.008818695251
0.009060249403
)


101
(
0.0006083603254
0.002415610249
0.004375302009
0.006368271644
0.00832429838
0.01020602305
0.01199883366
0.01368908042
0.01527768473
0.01676630097
0.01815883443
0.01945910881
0.02067293216
0.02180220143
0.02285219893
0.02382702699
0.02472978678
0.025562835
0.02633214566
0.02703678267
0.02768260979
0.02827237279
0.02880722011
0.02929095913
0.02972640008
0.03011599076
0.03046224618
0.03076765276
0.03103433042
0.03126450606
0.03146008453
0.0316229029
0.03175478639
0.03185662789
0.03193051365
0.03197770383
0.03199946499
0.03199695273
0.03197123476
0.03192338465
0.0318543279
0.03176471128
0.03165550389
0.03152747045
0.03138126153
0.0312178145
0.03103766757
0.03084161323
0.03063009132
0.0304037951
0.0301631295
0.02990869729
0.02964098755
0.02936043355
0.02906741072
0.02876229588
0.0284457337
0.02811759734
0.02777864793
0.02742899435
0.02706914556
0.02669931919
0.02631979797
0.02593087328
0.02553278761
0.02512573952
0.02470992308
0.02428558534
0.02385304912
0.02341240831
0.0229639597
0.02250776989
0.02204406846
0.0215730017
0.02109478913
0.02060948726
0.02011713138
0.01961791697
0.0191117197
0.01859876826
0.01807905257
0.01755256865
0.01701931185
0.01647931547
0.01593255082
0.01537943555
0.01481957085
0.01425338267
0.01368051451
0.01310177275
0.01251572917
0.01192453507
0.01132777723
0.01072595836
0.01012026901
0.009537540804
0.008989998627
0.009260174066
0.009530157549
0.009798551287
0.01006694865
)


101
(
0.000607735309
0.002394939236
0.004333057657
0.006304468696
0.008239883362
0.01010238999
0.01187756969
0.013551947
0.01512643391
0.01660266767
0.01798451611
0.01927577716
0.02048217325
0.02160564999
0.02265146082
0.02362363473
0.024525239
0.02535865551
0.02612975261
0.02683755739
0.02748791231
0.02808342471
0.02862509863
0.0291166995
0.02956098968
0.0299603216
0.030317101
0.03063371764
0.03091220645
0.03115474381
0.03136320029
0.03153939732
0.03168514311
0.03180118474
0.03188961815
0.03195165838
0.03198856143
0.03200149121
0.03199150108
0.03195963659
0.03190680888
0.03183366832
0.03174110767
0.03162986118
0.03150056799
0.03135412604
0.03119108251
0.03101220969
0.03081794571
0.03060894469
0.03038560173
0.0301485011
0.02989813165
0.0296349327
0.0293592855
0.02907156354
0.02877237866
0.0284616096
0.02813996763
0.02780756027
0.02746488569
0.02711216978
0.02674970048
0.0263777689
0.02599661795
0.02560642192
0.0252073437
0.02479959483
0.02438348527
0.02395912545
0.023526833
0.02308667025
0.02263883885
0.02218346429
0.02172074866
0.02125074602
0.02077346468
0.02028911394
0.01979754243
0.0192989572
0.0187933292
0.01828066143
0.01776092904
0.01723408605
0.01670004798
0.0161592872
0.01561136049
0.01505667001
0.01449486411
0.01392685486
0.01335100043
0.01276954077
0.01218209698
0.01158925619
0.01099236203
0.01042114194
0.009889004108
0.01018619486
0.01048317366
0.01077839848
0.01107362508
)


101
(
0.0006071102926
0.002374266363
0.004290803888
0.006240637158
0.008155404962
0.00999864323
0.01175612659
0.01341454233
0.01497480252
0.01643852334
0.0178095337
0.01909160276
0.02029037178
0.02140781884
0.02244917335
0.02341839957
0.02431852665
0.02515194919
0.02592445453
0.02663502166
0.02728947186
0.02789030664
0.0284383893
0.02893742392
0.02939012224
0.0297987558
0.03016563399
0.03049305585
0.03078296938
0.03103749124
0.03125844727
0.031447639
0.03160687022
0.03173676362
0.0318394257
0.03191601301
0.03196775034
0.03199579564
0.03200118826
0.03198496464
0.03194804477
0.03189109204
0.03181492267
0.03172022817
0.03160762702
0.0314779746
0.03133182523
0.03116993395
0.03099274407
0.03080088087
0.03059472595
0.03037483745
0.03014169369
0.02989573594
0.02963735585
0.02936692979
0.02908504811
0.02879160095
0.02848724939
0.0281720907
0.02784660179
0.02751101405
0.02716561948
0.0268107131
0.02644654824
0.02607328776
0.02569107303
0.02530007373
0.02490056618
0.02449266046
0.02407669737
0.02365275087
0.02322101284
0.02278159053
0.02233465876
0.02188025686
0.02141836621
0.02094921044
0.02047262326
0.01998879781
0.01949766825
0.01899923443
0.01849348709
0.0179803116
0.01745953649
0.01693165249
0.01639623189
0.01585363823
0.01530347681
0.01474681223
0.01418181366
0.01361077022
0.01303333034
0.01245018076
0.01186282798
0.01130391456
0.01078800717
0.01111221058
0.01143618164
0.01175822737
0.01208027651
)


101
(
0.0006064852762
0.002353591656
0.004248540798
0.006176777268
0.008070863648
0.009894783563
0.01163450562
0.01327686892
0.01482279394
0.01627387273
0.01763389374
0.01890659469
0.02009753933
0.02120872468
0.02224535819
0.02321134711
0.02410968029
0.02494275465
0.02571629348
0.02642922358
0.02708734186
0.02769306891
0.0282471384
0.02875318073
0.02921385064
0.02963134666
0.03000789318
0.03034570626
0.0306466494
0.03091277449
0.03114585282
0.03134765799
0.03151999302
0.03166337217
0.03177992287
0.03187074324
0.03193701359
0.03197986682
0.03200031433
0.03199938961
0.0319780389
0.03193695733
0.03187689924
0.03179851174
0.03170237748
0.03158930024
0.03145983522
0.03131471929
0.03115441098
0.03097951356
0.03079039727
0.03058759218
0.03037156038
0.03014273505
0.02990151366
0.02964828254
0.02938361813
0.02910742958
0.02882033698
0.02852242194
0.02821413078
0.02789569379
0.02756740265
0.02722955446
0.02688241615
0.02652615458
0.0261609046
0.0257868008
0.0254040735
0.02501281006
0.02461336147
0.0242058186
0.02379038243
0.02336715824
0.02293629496
0.02249780581
0.02205163139
0.02159800699
0.02113675951
0.0206680839
0.02019187354
0.01970810128
0.01921678805
0.01871778733
0.0182108306
0.0176963687
0.0171740105
0.01664412471
0.01610623177
0.0155615184
0.01500804787
0.01444812803
0.01388140624
0.01330868945
0.0127316375
0.01218584094
0.01168700628
0.01203821383
0.01238916826
0.01273802102
0.01308687214
)


101
(
0.0006058602593
0.002332915127
0.004206268454
0.006112889221
0.007986259837
0.009790811696
0.01151270795
0.01313892914
0.01467041144
0.01610872045
0.01745760264
0.01872076181
0.01990368721
0.02100838367
0.02204003656
0.02300250271
0.02389873011
0.02473110965
0.02550531172
0.02622021111
0.02688157622
0.0274917649
0.02805139539
0.02856401927
0.0290322276
0.02945814886
0.0298439304
0.03019171283
0.03050328086
0.03078062141
0.03102544413
0.03123948403
0.03142453981
0.03158102916
0.03171110996
0.03181583121
0.03189632659
0.03195369026
0.03198888671
0.03200293181
0.03199680717
0.03197126136
0.03192700804
0.03186466197
0.03178476005
0.03168803973
0.03157505099
0.03144650683
0.031302878
0.03114476105
0.03097252289
0.03078666171
0.03058761974
0.03037581858
0.03015165062
0.02991551188
0.02966797186
0.02940896792
0.02913908629
0.02885839717
0.02856731069
0.02826604697
0.02795489291
0.0276341425
0.0273040741
0.02696486412
0.02661665708
0.02625957006
0.02589378952
0.02551936373
0.02513662966
0.02474568796
0.02434675606
0.02393995813
0.02352543375
0.02310316973
0.02267305072
0.02223530646
0.02178975598
0.02133661353
0.02087574805
0.02040708422
0.01993065482
0.01944631949
0.01895373989
0.01845327631
0.01794454
0.01742796851
0.01690299364
0.01637086149
0.0158295973
0.01528152191
0.01472625074
0.01416473427
0.01359876232
0.01306690462
0.01258599844
0.01296419758
0.01334212287
0.01371775917
0.01409338762
)


101
(
0.0006052352424
0.002312236821
0.004163986989
0.00604897331
0.007901594071
0.009686728499
0.01139073491
0.01300072554
0.0145176585
0.01594307135
0.017280667
0.01853411309
0.01970882694
0.02080681187
0.02183322966
0.02279189194
0.0236857065
0.02451705152
0.02529155194
0.02600803253
0.0266722294
0.0272864502
0.02785121294
0.02836999071
0.02884530638
0.02927921798
0.02967380042
0.03003112485
0.03035290404
0.03064106365
0.0308972491
0.0311231476
0.03132054402
0.03148976307
0.03163300207
0.03175127264
0.03184566955
0.03191724318
0.03196689519
0.03199560148
0.03200437244
0.03199401727
0.03196523805
0.03191863925
0.03185471948
0.03177413448
0.03167741021
0.03156523309
0.03143808429
0.03129655301
0.03114101526
0.03097194807
0.03078976661
0.03059487549
0.03038765879
0.03016850998
0.0299379972
0.02969609338
0.02944336109
0.02917986685
0.02890598403
0.02862191207
0.02832792863
0.02802432063
0.02771137342
0.02738926992
0.02705817282
0.02671819968
0.02636950856
0.02601210775
0.0256462987
0.02527217095
0.02488995399
0.02449980037
0.02410186365
0.02369612298
0.02328240453
0.02286090624
0.02243141979
0.02199419045
0.02154908886
0.02109599424
0.02063491742
0.02016572885
0.01968807102
0.01920220593
0.01870767325
0.01820501694
0.01769362411
0.01717473376
0.01664636113
0.01611086862
0.01556778918
0.01501825937
0.01446416942
0.01394707896
0.01348496598
0.01389014091
0.01429501876
0.01469740781
0.01509981135
)


101
(
0.0006046102265
0.002291556795
0.004121696566
0.00598502988
0.007816866965
0.009582534924
0.01126858794
0.01286226072
0.01436453874
0.01577693039
0.01710309354
0.0183466576
0.01951297004
0.02060402515
0.02162495846
0.02257954034
0.02347063982
0.02430061726
0.02507505659
0.02579273622
0.02645935634
0.02707718258
0.02764664722
0.02817114892
0.02865314121
0.02909461047
0.02949756048
0.02986399663
0.03019556556
0.03049413809
0.03076129748
0.03099867724
0.03120803803
0.0313896078
0.0315456256
0.03167707778
0.03178503298
0.03187050397
0.03193432061
0.03197739687
0.03200075014
0.03200524829
0.0319915999
0.03196042756
0.03191221095
0.03184752376
0.0317668508
0.03167083668
0.0315599665
0.03143482442
0.03129580097
0.03114336079
0.03097789976
0.03079979924
0.03060942759
0.03040717189
0.03019358763
0.02996869077
0.02973303339
0.02948668752
0.02922999345
0.02896312566
0.0286863441
0.02839992447
0.0281041555
0.0277992209
0.02748530074
0.02716252603
0.02683104493
0.02649083569
0.02614215879
0.02578507136
0.02541979695
0.02504651172
0.02466539606
0.02427645194
0.02387946631
0.02347459068
0.02306155781
0.02264062586
0.02221169431
0.02177462792
0.02132939394
0.02087584301
0.02041363882
0.01994297756
0.01946326214
0.01897512419
0.01847798059
0.01797302356
0.01745823152
0.01693608276
0.01640594832
0.01586920088
0.01532781993
0.01482635312
0.01438389257
0.01481601756
0.01524782013
0.0156769208
0.01610602481
)


101
(
0.0006039852096
0.002270875018
0.004079397169
0.005921058993
0.00773207876
0.009478231462
0.01114626792
0.01272353666
0.01421105506
0.01561030177
0.01692488813
0.01815840346
0.01931612708
0.0204000381
0.0214152426
0.02236547239
0.02325355929
0.0240818424
0.02485586709
0.02557436938
0.02624301095
0.02686402054
0.02743775639
0.02796755003
0.02845578698
0.02890438219
0.02931526794
0.02969038481
0.03003131705
0.03033988713
0.0306176223
0.03086610142
0.03108705205
0.031280598
0.03144901438
0.03159327078
0.03171442349
0.03181345838
0.0318911373
0.03194830041
0.03198594362
0.03200497709
0.0320061171
0.03199002976
0.03195720761
0.03190815827
0.03184331298
0.03176325464
0.03166846375
0.03155951256
0.03143680981
0.03130082029
0.03115192642
0.03099048723
0.03081685125
0.03063138849
0.03043463954
0.03022665612
0.03000798734
0.02977872561
0.0295391893
0.02928952783
0.0290299735
0.0287607869
0.02848225461
0.02819455743
0.02789788844
0.02759239336
0.02727822729
0.02695535509
0.02662400161
0.02628418285
0.02593609598
0.02557992338
0.02521586609
0.0248439689
0.02446401863
0.02407613558
0.02367996297
0.02327573503
0.02286337805
0.02244278434
0.02201389271
0.02157649053
0.02113026425
0.02067540502
0.02021115049
0.01973814954
0.0192559183
0.01876560797
0.01826509894
0.01775706572
0.01724065722
0.01671749389
0.01618966895
0.01570468431
0.01528274717
0.0157417915
0.01620048304
0.01665624387
0.01711199615
)


101
(
0.0006033601927
0.002250191551
0.004037088964
0.005857061003
0.007647230083
0.009373819075
0.01102377627
0.0125845559
0.01405721107
0.01544319039
0.01674605743
0.01796935955
0.01911830938
0.02019486592
0.02120410216
0.02214971311
0.02303449488
0.02386076291
0.02463402537
0.02535298015
0.02602324811
0.02664702419
0.02722460227
0.02775925428
0.02825330201
0.02870859094
0.02912698199
0.0295103497
0.02986021651
0.0301783612
0.03046626334
0.03072545177
0.03095761594
0.03116276792
0.03134320684
0.03149988606
0.03163386077
0.03174610604
0.03183732757
0.03190828795
0.03195994152
0.03199321334
0.03200881566
0.03200746804
0.03198970589
0.03195600052
0.03190673951
0.0318424262
0.03176351239
0.03167055565
0.03156397846
0.03144425066
0.03131175729
0.03116683977
0.03100982286
0.03084105454
0.03066104704
0.03046988336
0.0302681128
0.03005585883
0.02983343104
0.02960096075
0.0293586499
0.02910673416
0.02884549375
0.02857510511
0.02829576727
0.02800763807
0.02771088603
0.02740547936
0.02709162098
0.02676928711
0.0264386392
0.02609984558
0.02575310614
0.0253985048
0.02503586425
0.02466531255
0.02428640574
0.02389931333
0.02350395551
0.02310026604
0.02268820792
0.02226748804
0.02183777368
0.02139929518
0.02095115957
0.02049394492
0.02002728426
0.01955234712
0.01906684778
0.01857370129
0.01807183002
0.01756306468
0.01704965898
0.0165820347
0.01618149751
0.01666741778
0.01715295255
0.01763530884
0.01811767325
)


101
(
0.0006027351768
0.002229506454
0.003994772121
0.005793036268
0.007562321566
0.009269298735
0.01090111444
0.01244532097
0.01390301035
0.01527560117
0.01656660803
0.01777953468
0.01891952819
0.01998852353
0.02099155688
0.02193228723
0.0228134764
0.02363741448
0.02440957295
0.02512861619
0.02580012241
0.02642625433
0.02700724887
0.0275463253
0.02804574802
0.02850729677
0.0289327626
0.02932395254
0.02968232546
0.03000961759
0.03030726828
0.03057676493
0.03081976024
0.0310361484
0.03122823998
0.03139696378
0.03154337979
0.0316684648
0.03177288476
0.03185733564
0.0319227201
0.03196995105
0.03199971368
0.03201277134
0.03200972114
0.03199103712
0.03195708489
0.03190828806
0.0318450491
0.03176788971
0.03167724192
0.0315735835
0.03145730929
0.03132875831
0.0311882344
0.03103605728
0.03087270305
0.03069827135
0.03051330652
0.03031797072
0.03011258571
0.02989727351
0.02967220918
0.02943759526
0.0291936964
0.02894068425
0.02867875926
0.02840808647
0.02812884804
0.02784102564
0.02754481414
0.02724016312
0.02692719735
0.02660605991
0.02627692547
0.02593989196
0.02559482559
0.02524190941
0.02488064981
0.02451113246
0.02413322487
0.02374688028
0.02335213181
0.02294863756
0.02253599021
0.02211446412
0.02168309957
0.0212423519
0.02079192323
0.02033309208
0.01986335626
0.01938587303
0.01889936284
0.01840583101
0.01790772654
0.01745834627
0.01708009612
0.0175928345
0.01810515319
0.01861402797
0.0191229134
)


101
(
0.0006021101599
0.002208819696
0.003952446626
0.005728984864
0.007477353472
0.009164670952
0.0107782833
0.01230583375
0.01374845577
0.01510753823
0.01638654572
0.01758893674
0.01871979376
0.01978102463
0.02077762507
0.02171321809
0.02259053238
0.0234118315
0.02418255026
0.02490132371
0.02557368669
0.02620177082
0.0267857608
0.02732882905
0.02783318925
0.02830056154
0.02873267042
0.02913125484
0.02949770721
0.02983371883
0.03014069254
0.03042008509
0.03067351833
0.03090076952
0.03110414776
0.03128454474
0.03144302076
0.03158056537
0.03169782046
0.03179543229
0.03187425442
0.03193517067
0.0319788122
0.03200596408
0.03201728425
0.03201327566
0.03199432314
0.03196078778