/*--------------------------------*- C++ -*----------------------------------*\
| =========                 |                                                 |
| \\      /  F ield         | OpenFOAM: The Open Source CFD Toolbox           |
|  \\    /   O peration     | Version:  2.3.1                                 |
|   \\  /    A nd           | Web:      www.OpenFOAM.org                      |
|    \\/     M anipulation  |                                                 |
\*---------------------------------------------------------------------------*/
FoamFile
{
    version     2.0;
    format      ascii;
    class       dictionary;
    location    "constant";
    object      DPSE1;
}
// * * * * * * * * * * * * * * * * * * * * * * * * * * * * * * * * * * * * * //

DPSE1_table
101
(

101
(
-0.6128670405
-0.6152560412
-0.6171590206
-0.6188279172
-0.6203908282
-0.62191913
-0.6234467253
-0.6249904183
-0.6265553239
-0.6281407201
-0.6297426418
-0.6313562739
-0.6329752454
-0.634593775
-0.6362055664
-0.6378046963
-0.6393875229
-0.6409493934
-0.6424884114
-0.6439997326
-0.6454850425
-0.6469437626
-0.6483728023
-0.6497725676
-0.6511454092
-0.6524912501
-0.6538112258
-0.6551053264
-0.6563731169
-0.6576187481
-0.6588398951
-0.660037897
-0.6612188211
-0.6623726808
-0.6635063651
-0.6646224446
-0.6657190702
-0.6667979742
-0.667860122
-0.6689045883
-0.669930851
-0.6709426034
-0.6719405137
-0.6729230138
-0.6738920464
-0.6748493487
-0.6757937772
-0.6767245013
-0.6776460404
-0.6785549869
-0.679452725
-0.6803413295
-0.6812203034
-0.6820922579
-0.6829537215
-0.6838050913
-0.6846495352
-0.6854875825
-0.6863178355
-0.6871438126
-0.687961095
-0.6887704715
-0.6895763807
-0.6903769072
-0.691172518
-0.6919654712
-0.6927521272
-0.6935327616
-0.6943115436
-0.6950870272
-0.6958593255
-0.6966308144
-0.6973973805
-0.6981597242
-0.6989223201
-0.6996834226
-0.7004426804
-0.7012006251
-0.7019597633
-0.7027161756
-0.703470067
-0.704225547
-0.704981091
-0.7057367474
-0.7064949016
-0.7072515676
-0.7080069201
-0.7087653652
-0.709524958
-0.7102858643
-0.7110503867
-0.7118144711
-0.7125782219
-0.7133460344
-0.7141159458
-0.7148880684
-0.7156907752
-0.764784598
-0.8121284812
-0.8577001324
-0.9015011856
)


101
(
-0.6128824039
-0.6157076169
-0.6180441564
-0.6201707082
-0.622222767
-0.6242723206
-0.6263487282
-0.6284765477
-0.6306506102
-0.6328718606
-0.6351333926
-0.6374309172
-0.6397513767
-0.6421027755
-0.6444616614
-0.6468255132
-0.649196073
-0.6515723053
-0.6539133776
-0.6562881642
-0.6586134961
-0.6609198259
-0.6632432591
-0.6655315645
-0.6677919664
-0.6700327739
-0.6722533569
-0.6744494912
-0.6766303173
-0.6787868854
-0.6809212963
-0.6830257129
-0.6850813377
-0.6872088154
-0.6892519951
-0.6912774397
-0.6932765835
-0.695237981
-0.6971964924
-0.6991654836
-0.7011084947
-0.7029843758
-0.7048753078
-0.706742195
-0.7085661389
-0.7103956773
-0.7121912262
-0.7139846548
-0.7157516842
-0.7175117008
-0.7192415405
-0.7209590279
-0.7226598258
-0.7243437234
-0.7260048807
-0.7276460457
-0.7292967416
-0.7309000012
-0.7325092013
-0.7340926048
-0.7356666386
-0.737218215
-0.7387547242
-0.7402788428
-0.7417866261
-0.7432828436
-0.7447589376
-0.746216589
-0.747665984
-0.7490946758
-0.7505098506
-0.7519121446
-0.7533024433
-0.7546687465
-0.7560182471
-0.7573454988
-0.7586633795
-0.7599634019
-0.7612436785
-0.7625020606
-0.763738018
-0.7649624881
-0.7661628106
-0.7673441985
-0.7685021863
-0.7696354488
-0.7707419052
-0.7718286545
-0.7728903387
-0.7739335028
-0.7749452631
-0.7759368481
-0.7769038808
-0.7778501528
-0.7787782365
-0.779752325
-0.7808312838
-0.8279988027
-0.8733703985
-0.9169527409
-0.9587973358
)


101
(
-0.6128977671
-0.6161592195
-0.6189291774
-0.6215123629
-0.6240515707
-0.6266193873
-0.6292407198
-0.6319472577
-0.6347244752
-0.6375742408
-0.6404870571
-0.6434588091
-0.6464706234
-0.6495415074
-0.6526351215
-0.6557497059
-0.6588915934
-0.6620633672
-0.6651945447
-0.6684038359
-0.671556641
-0.6746918816
-0.6778781024
-0.6810343801
-0.6841614658
-0.6872729043
-0.6903687223
-0.6934418393
-0.6965064612
-0.6995475644
-0.7025668157
-0.7055512367
-0.7084651184
-0.7114976484
-0.7144345922
-0.7173407124
-0.7202127564
-0.7230322235
-0.7258479339
-0.7286894079
-0.7315085773
-0.7342335525
-0.7369704014
-0.73968215
-0.7423345052
-0.7449894318
-0.7476016969
-0.7502095439
-0.7527836819
-0.755346611
-0.7578699148
-0.7603721623
-0.7628503428
-0.7653029455
-0.7677219678
-0.7701099601
-0.7725069548
-0.7748426572
-0.7771757343
-0.7794733331
-0.7817524665
-0.7839992066
-0.7862194357
-0.7884169693
-0.7905880959
-0.792737173
-0.7948544159
-0.7969405817
-0.7990079283
-0.8010419835
-0.8030498048
-0.8050318327
-0.8069901319
-0.8089113565
-0.8108010441
-0.812651801
-0.814477113
-0.8162702932
-0.818025633
-0.8197407801
-0.821414416
-0.8230587346
-0.8246603482
-0.8262231084
-0.8277411384
-0.8292128159
-0.8306318593
-0.8320084433
-0.8333349684
-0.8346236273
-0.8358520252
-0.83704105
-0.8381800506
-0.8392770844
-0.8403370626
-0.8414838992
-0.842807416
-0.8880198099
-0.9314440195
-0.9731071838
-1.013099808
)


101
(
-0.6129131302
-0.6166108517
-0.6198140914
-0.6228529011
-0.6258772739
-0.6289603849
-0.6321227805
-0.6354026924
-0.6387770832
-0.6422481104
-0.6458039579
-0.6494403961
-0.6531334779
-0.6569108672
-0.6607267019
-0.6645782566
-0.6684754741
-0.6724244135
-0.6763324013
-0.6803506765
-0.6843151003
-0.6882616044
-0.6922824269
-0.6962836403
-0.700256181
-0.7042148387
-0.7081609489
-0.7120858966
-0.7160063644
-0.7199048743
-0.7237811829
-0.7276187401
-0.731370577
-0.7352588068
-0.7390573944
-0.7428162471
-0.746532086
-0.7501831933
-0.7538229659
-0.7574926014
-0.7611445563
-0.7646906913
-0.7682372052
-0.7717539583
-0.7752015914
-0.7786428573
-0.7820338032
-0.7854136703
-0.7887535932
-0.7920754785
-0.7953501254
-0.7985945521
-0.8018062757
-0.8049838086
-0.8081178207
-0.8112098885
-0.8143031452
-0.8173271555
-0.8203373841
-0.8233027159
-0.8262390803
-0.8291330023
-0.8319896543
-0.834812352
-0.8375982197
-0.8403511092
-0.8430608297
-0.8457272378
-0.8483628608
-0.8509532152
-0.8535049594
-0.8560177297
-0.8584932663
-0.8609191485
-0.8633002877
-0.86562821
-0.8679141757
-0.8701534774
-0.872338282
-0.8744653995
-0.8765326326
-0.8785521112
-0.8805112702
-0.8824125911
-0.884249622
-0.8860212084
-0.8877169163
-0.8893475401
-0.8909036047
-0.8924033655
-0.893816482
-0.8951736495
-0.8964575563
-0.8976784403
-0.8988466288
-0.9001391746
-0.9016757258
-0.9449722284
-0.9865281577
-1.026383777
-1.064658706
)


101
(
-0.6129284932
-0.6170625157
-0.6206989066
-0.6241923426
-0.6276999115
-0.6312953687
-0.6349949911
-0.6388429947
-0.6428086002
-0.646893716
-0.6510844157
-0.6553761183
-0.6597404347
-0.6642117118
-0.6687371941
-0.6733121329
-0.6779490626
-0.6826572366
-0.6873277381
-0.6921319604
-0.6968902377
-0.701630561
-0.7064605322
-0.711282668
-0.7160787422
-0.7208617225
-0.7256337313
-0.7303854899
-0.7351347585
-0.7398634216
-0.7445692729
-0.7492329949
-0.7538001419
-0.7585055408
-0.7631294594
-0.7677103016
-0.7722402489
-0.7766952625
-0.781128692
-0.7855883653
-0.7900315355
-0.7943644005
-0.7986862429
-0.8029705161
-0.8071778203
-0.8113686199
-0.81550066
-0.8196128046
-0.8236779048
-0.8277168856
-0.8317010317
-0.8356458495
-0.8395486176
-0.8434081067
-0.8472144065
-0.8509682283
-0.8547125855
-0.8583800311
-0.862022617
-0.8656106409
-0.86915866
-0.8726537339
-0.8761008405
-0.8795024699
-0.8828564734
-0.8861663174
-0.8894217409
-0.8926219255
-0.8957790716
-0.8988788935
-0.9019280148
-0.9049252488
-0.9078714405
-0.9107552757
-0.9135816025
-0.9163414298
-0.9190436148
-0.9216851589
-0.9242566372
-0.9267541636
-0.929174133
-0.9315281662
-0.9338048244
-0.9360055322
-0.9381236439
-0.9401587262
-0.9420971375
-0.9439504659
-0.9457052279
-0.9473854461
-0.9489548431
-0.9504533191
-0.9518585417
-0.9531803247
-0.9544354149
-0.9558507215
-0.9575712956
-0.999039051
-1.038841617
-1.077026121
-1.113733312
)


101
(
-0.6129438561
-0.6175142144
-0.6215836314
-0.6255307077
-0.629519519
-0.6336243947
-0.6378574329
-0.6422683069
-0.6468191948
-0.6515113021
-0.6563287499
-0.6612664097
-0.6662919908
-0.671444864
-0.6766674149
-0.6819522968
-0.6873136683
-0.6927635878
-0.6981815873
-0.7037505105
-0.7092838743
-0.7148003789
-0.7204161197
-0.726035105
-0.731632188
-0.7372167868
-0.7427908172
-0.7483446695
-0.7538964165
-0.7594281836
-0.7649362515
-0.7703991798
-0.7757575673
-0.7812477314
-0.786661395
-0.7920312446
-0.7973446232
-0.8025747291
-0.8077725041
-0.8129882287
-0.8181843989
-0.823267677
-0.8283301514
-0.8333460885
-0.8382773165
-0.8431817205
-0.8480183374
-0.8528249677
-0.8575763046
-0.8622924169
-0.8669456476
-0.8715503924
-0.8761034173
-0.8806035862
-0.8850407588
-0.8894150918
-0.8937683556
-0.8980363962
-0.9022684761
-0.9064363011
-0.9105529584
-0.9146059248
-0.9186001541
-0.9225373027
-0.9264157687
-0.9302387292
-0.9339960814
-0.9376866058
-0.9413220259
-0.9448880916
-0.948391532
-0.9518305443
-0.9552049953
-0.9585045667
-0.9617342318
-0.9648846559
-0.9679624053
-0.9709662289
-0.9738855733
-0.9767160325
-0.9794525828
-0.9821055619
-0.9846646503
-0.9871305017
-0.9894965299
-0.9917632198
-0.9939142949
-0.9959623798
-0.9978906426
-0.9997260547
-1.001427886
-1.003045067
-1.004551031
-1.005956171
-1.007280801
-1.008800325
-1.010680988
-1.05043818
-1.088623387
-1.125284972
-1.160579241
)


101
(
-0.6129592188
-0.61796595
-0.6224682736
-0.6268680162
-0.631336131
-0.6359475174
-0.6407101858
-0.6456787681
-0.6508090339
-0.6561011085
-0.6615372749
-0.667111696
-0.6727886403
-0.6786111133
-0.6845181947
-0.6904997051
-0.6965705653
-0.7027451719
-0.7088951647
-0.7152088282
-0.7214980898
-0.7277728262
-0.7341524477
-0.740544661
-0.7469198832
-0.7532834182
-0.7596360126
-0.7659676439
-0.7722961923
-0.7786044097
-0.7848875883
-0.7911228308
-0.7972475957
-0.8034935586
-0.8096637881
-0.8157893579
-0.8218544412
-0.827829746
-0.8337626653
-0.8397030249
-0.8456172601
-0.8514153529
-0.8571837731
-0.8628964983
-0.868516594
-0.8740995217
-0.8796053556
-0.8850703858
-0.8904709063
-0.8958261895
-0.9011099639
-0.906335933
-0.9115003743
-0.9166021102
-0.9216308154
-0.9265863233
-0.9315087989
-0.9363372471
-0.9411184888
-0.9458257868
-0.9504708512
-0.9550415247
-0.95954277
-0.9639754148
-0.9683382541
-0.972634138
-0.9768532935
-0.9809943728
-0.9850687254
-0.989062064
-0.9929810858
-0.9968235203
-1.000588327
-1.004266177
-1.007862246
-1.011366967
-1.01478467
-1.018115726
-1.021348815
-1.024479344
-1.027501153
-1.030423089
-1.033235252
-1.035937677
-1.038523965
-1.040995634
-1.043334359
-1.04555401
-1.047635031
-1.049606114
-1.05142206
-1.053140275
-1.054731006
-1.056206094
-1.057587422
-1.059197048
-1.061219734
-1.099401709
-1.136115314
-1.171406655
-1.205442502
)


101
(
-0.6129745815
-0.6184177256
-0.6233528425
-0.6282042896
-0.6331497849
-0.6382647946
-0.6435533328
-0.6490745205
-0.6547782911
-0.6606633792
-0.6667103105
-0.6729124063
-0.6792308872
-0.685711234
-0.6922903876
-0.6989553302
-0.7057210178
-0.7126036707
-0.7194698582
-0.7265092326
-0.7335351319
-0.7405498654
-0.7476725268
-0.7548150446
-0.7619454813
-0.7690652527
-0.7761732589
-0.7832587803
-0.7903390883
-0.7973976337
-0.8044291502
-0.8114099113
-0.8182756631
-0.8252504133
-0.8321466324
-0.8389956538
-0.8457804749
-0.8524703379
-0.8591089146
-0.8657438356
-0.8723438137
-0.8788229051
-0.8852634218
-0.8916390511
-0.8979139375
-0.9041413182
-0.9102822496
-0.9163712644
-0.9223858846
-0.9283444824
-0.9342222948
-0.9400327631
-0.9457718953
-0.951438402
-0.9570217525
-0.9625215544
-0.9679762908
-0.9733277815
-0.9786207182
-0.9838300371
-0.9889662719
-0.9940176702
-0.9989892406
-1.003880999
-1.008691994
-1.013424633
-1.018069482
-1.02262531
-1.02710335
-1.031489318
-1.035789769
-1.040001991
-1.04412407
-1.048147633
-1.052078171
-1.055906032
-1.059633418
-1.063262031
-1.066779981
-1.070182797
-1.073463478
-1.0766296
-1.079671205
-1.082587512
-1.085372263
-1.088027997
-1.090534537
-1.092907564
-1.095125062
-1.097217798
-1.099134554
-1.100941436
-1.102605739
-1.104141617
-1.105571611
-1.107260654
-1.109413735
-1.146164359
-1.181554853
-1.215625955
-1.248551831
)


101
(
-0.612989944
-0.6188695436
-0.6242373459
-0.6295395478
-0.6349605156
-0.6405762811
-0.6463869533
-0.6524556996
-0.6587271353
-0.6651983505
-0.6718481676
-0.6786689565
-0.6856192264
-0.6927459681
-0.6999848446
-0.7073201388
-0.7147662573
-0.7223407177
-0.7299071517
-0.7376539057
-0.745397314
-0.7531335924
-0.7609791824
-0.7688498446
-0.7767127608
-0.7845660999
-0.7924066019
-0.8002225259
-0.8080301545
-0.8158135222
-0.8235670668
-0.8312667891
-0.8388478589
-0.8465253778
-0.8541192122
-0.8616611591
-0.8691344161
-0.8765079923
-0.8838223953
-0.8911224119
-0.8983776552
-0.9055059108
-0.9125861631
-0.9195921055
-0.9264889344
-0.9333278601
-0.940071024
-0.9467511696
-0.9533467697
-0.9598750902
-0.9663127114
-0.9726730558
-0.9789522577
-0.985149081
-0.9912527044
-0.9972625383
-1.003215435
-1.009055733
-1.014826046
-1.020503036
-1.02609631
-1.031594675
-1.037003279
-1.042321412
-1.047548263
-1.052685651
-1.057724311
-1.062663254
-1.067513878
-1.072262161
-1.076914482
-1.081467588
-1.085918656
-1.090260229
-1.09449822
-1.098623026
-1.102634973
-1.106536817
-1.110316093
-1.113968612
-1.117486866
-1.120877343
-1.124129923
-1.127242758
-1.130209665
-1.133034132
-1.135694016
-1.138207323
-1.140549678
-1.142754484
-1.144763885
-1.146651809
-1.148383235
-1.149974641
-1.151449734
-1.153213896
-1.155489249
-1.190953671
-1.225166832
-1.258161564
-1.290117628
)


101
(
-0.6130053063
-0.6193214073
-0.6251217938
-0.6308738137
-0.636768362
-0.6428820364
-0.649211132
-0.6558224467
-0.6626557441
-0.6697062663
-0.6769511663
-0.684381771
-0.6919541661
-0.699716052
-0.7076024346
-0.7155951209
-0.7237075185
-0.7319579315
-0.7402086379
-0.7486449692
-0.7570870124
-0.7655262806
-0.7740751875
-0.78265257
-0.7912256112
-0.7997899832
-0.8083402722
-0.8168634821
-0.8253745658
-0.8338579142
-0.842307758
-0.8507002364
-0.8589708796
-0.8673256861
-0.8755903694
-0.8837966165
-0.8919283239
-0.8999552604
-0.9079156812
-0.9158516015
-0.9237327974
-0.9314801322
-0.9391694269
-0.9467746507
-0.9542620874
-0.961681075
-0.9689949891
-0.976234933
-0.9833802006
-0.990446815
-0.9974124638
-1.004290495
-1.011077373
-1.017772276
-1.024364267
-1.030852527
-1.037272337
-1.043570334
-1.049787
-1.05590064
-1.061920138
-1.067834978
-1.073650632
-1.079365872
-1.084980052
-1.090494294
-1.09589921
-1.101193965
-1.106390246
-1.111474581
-1.116453448
-1.121323039
-1.126079574
-1.130716261
-1.135239431
-1.139639701
-1.143915879
-1.148071633
-1.152093728
-1.155978267
-1.159717633
-1.163317426
-1.166767276
-1.170064058
-1.173201704
-1.176184611
-1.178988464
-1.181633481
-1.184093737
-1.186404961
-1.18850334
-1.190468956
-1.192265279
-1.193910853
-1.195431297
-1.197269784
-1.199664504
-1.233984616
-1.267160298
-1.299214508
-1.330331337
)


101
(
-0.6130206686
-0.619773319
-0.6260061939
-0.6322071067
-0.6385733587
-0.6451821143
-0.6520259469
-0.6591748939
-0.6665642859
-0.6741873578
-0.6820196121
-0.6900512561
-0.6982361999
-0.7066221907
-0.7151440099
-0.7237812538
-0.7325460046
-0.7414568777
-0.7503759481
-0.7594844848
-0.7686065963
-0.7777302803
-0.7869632509
-0.796226598
-0.8054879042
-0.8147410196
-0.823978602
-0.8331863102
-0.8423775141
-0.8515366788
-0.8606577688
-0.8697173163
-0.8786519055
-0.8876588096
-0.8965686572
-0.9054122794
-0.9141741294
-0.9228251814
-0.9314022651
-0.9399452136
-0.948423825
-0.9567615317
-0.9650308186
-0.9732059645
-0.9812543184
-0.9892234665
-0.9970781755
-1.004848202
-1.012513632
-1.020089144
-1.027553351
-1.034919433
-1.042184174
-1.049347308
-1.056398152
-1.063335779
-1.070193988
-1.076921541
-1.083556765
-1.090079422
-1.09649772
-1.10280194
-1.108997982
-1.11508438
-1.121060818
-1.126927802
-1.132675524
-1.138303029
-1.143822231
-1.149220421
-1.154504499
-1.159670318
-1.164713059
-1.169626427
-1.174417039
-1.179075807
-1.183600227
-1.187994993
-1.192246135
-1.196349654
-1.20029797
-1.204096373
-1.207734158
-1.21120674
-1.214507836
-1.217643201
-1.220586236
-1.223358556
-1.225933683
-1.228349465
-1.23053702
-1.232580641
-1.234443238
-1.236145106
-1.237714333
-1.239629771
-1.242145701
-1.275456988
-1.30772711
-1.338967948
-1.369369501
)


101
(
-0.6130360307
-0.6202252819
-0.6268905561
-0.6335394497
-0.6403755446
-0.6474765745
-0.6548314826
-0.6625131803
-0.670452939
-0.6786418659
-0.6870538216
-0.6956778293
-0.7044658358
-0.7134650925
-0.7226104398
-0.73187954
-0.741282932
-0.750839119
-0.7604107746
-0.77017452
-0.7799584753
-0.789748073
-0.7996461245
-0.8095752555
-0.8195035196
-0.8294234553
-0.8393261049
-0.8491958393
-0.8590443065
-0.8688557829
-0.8786238002
-0.8883253655
-0.8978986205
-0.9075326806
-0.9170627219
-0.926518134
-0.9358834805
-0.945130894
-0.9542962938
-0.9634180044
-0.9724661078
-0.9813664754
-0.9901881744
-0.9989055292
-1.007486888
-1.015978115
-1.024345359
-1.032617333
-1.040775168
-1.048832175
-1.05676773
-1.064594679
-1.072310068
-1.079914229
-1.087396867
-1.094757242
-1.102027934
-1.109159725
-1.116188786
-1.123096081
-1.129889129
-1.13655899
-1.143112111
-1.149546958
-1.155863753
-1.162062641
-1.168133451
-1.174074674
-1.179898215
-1.185592043
-1.191163739
-1.196609211
-1.201922803
-1.207098518
-1.212143047
-1.21704749
-1.22180819
-1.226430978
-1.230901425
-1.235215171
-1.239364321
-1.243354381
-1.24717463
-1.250818816
-1.254280002
-1.257565258
-1.26064649
-1.263545606
-1.266235701
-1.268757703
-1.271037384
-1.273162767
-1.275096093
-1.276859467
-1.278483636
-1.280481805
-1.283124082
-1.315554816
-1.347043072
-1.377588305
-1.407385753
)


101
(
-0.6130513927
-0.6206772992
-0.6277748897
-0.6348708649
-0.642174958
-0.6497654754
-0.6576278225
-0.665837442
-0.6743218798
-0.6830700282
-0.6920541076
-0.7012619018
-0.7106435779
-0.7202454483
-0.7300025853
-0.739890982
-0.7499195068
-0.760106183
-0.7703148354
-0.7807171223
-0.7911450539
-0.8015822199
-0.8121265988
-0.8227018259
-0.8332763023
-0.843841583
-0.8543874071
-0.8648970136
-0.8753803176
-0.8858212152
-0.8962125988
-0.90653187
-0.9167190039
-0.926955618
-0.9370813803
-0.9471239862
-0.9570676607
-0.966885355
-0.9766121214
-0.9862852565
-0.995875682
-1.005311886
-1.014659632
-1.023893023
-1.032981173
-1.041968222
-1.050821639
-1.059569247
-1.068193391
-1.076706312
-1.085088081
-1.093351094
-1.101492463
-1.109513046
-1.117403033
-1.125162075
-1.132821798
-1.140335088
-1.147736046
-1.155006667
-1.162153611
-1.169168668
-1.176058826
-1.1828226
-1.189460953
-1.195973896
-1.202351158
-1.208590612
-1.214703741
-1.220678881
-1.226524305
-1.232236299
-1.237808792
-1.243236088
-1.24852477
-1.253665865
-1.258654679
-1.263498142
-1.26818153
-1.272700348
-1.277046052
-1.281224162
-1.285224587
-1.289039657
-1.292661115
-1.296096734
-1.299318103
-1.302347025
-1.3051553
-1.307787712
-1.310165234
-1.31237872
-1.314389698
-1.316222327
-1.317909884
-1.319999488
-1.322775883
-1.354445934
-1.385267636
-1.415227706
-1.444528246
)


101
(
-0.6130667546
-0.6211293739
-0.6286592044
-0.6362013749
-0.6439716377
-0.652048876
-0.6604150505
-0.6691478151
-0.6781712854
-0.687472082
-0.6970207831
-0.7068038834
-0.7167699309
-0.7269639407
-0.7373213039
-0.7478165888
-0.7584569321
-0.7692595755
-0.780089855
-0.7911143405
-0.8021687436
-0.8132353389
-0.8244075188
-0.8356095753
-0.8468100574
-0.8579997047
-0.8691672183
-0.8802948992
-0.8913910192
-0.9024390041
-0.9134309193
-0.9243443997
-0.9351213253
-0.9459363473
-0.9566337898
-0.9672397069
-0.9777377163
-0.9881011608
-0.9983639569
-1.008562563
-1.018669147
-1.02861519
-1.038463593
-1.048188223
-1.057758619
-1.067217059
-1.076532179
-1.085730962
-1.094797186
-1.103742249
-1.112546993
-1.121223362
-1.12976843
-1.138183399
-1.14645887
-1.154595055
-1.162622821
-1.170497271
-1.178250715
-1.185866073
-1.19334901
-1.200691929
-1.207902281
-1.214978609
-1.221922661
-1.228734679
-1.235404542
-1.241929676
-1.248320986
-1.254566672
-1.260675505
-1.266644217
-1.272466715
-1.278137889
-1.283664238
-1.289036497
-1.294248698
-1.299308787
-1.304201957
-1.308923765
-1.313464997
-1.317830752
-1.322011822
-1.325999756
-1.329784767
-1.333374276
-1.336740004
-1.339904358
-1.342837065
-1.345586108
-1.348069279
-1.35037956
-1.352477322
-1.354388984
-1.356150184
-1.35834169
-1.361262604
-1.39228434
-1.422547587
-1.452026431
-1.480928975
)


101
(
-0.6130821164
-0.6215815096
-0.6295435107
-0.6375310035
-0.6457656244
-0.6543268377
-0.6631932533
-0.6724444378
-0.6820013371
-0.6918482677
-0.701954165
-0.712304187
-0.7228454042
-0.7336212483
-0.7445674543
-0.7556573787
-0.7668964166
-0.7783007918
-0.7897375709
-0.8013682211
-0.8130319616
-0.8247101135
-0.8364917985
-0.8483017856
-0.8601085725
-0.8719021335
-0.883670317
-0.8953946709
-0.9070819857
-0.9187152336
-0.9302855312
-0.9417705369
-0.9531139494
-0.9644838891
-0.9757294775
-0.9868753901
-0.9979046218
-1.008790615
-1.019565785
-1.030265499
-1.040863375
-1.051294313
-1.061618925
-1.071811131
-1.081840681
-1.091747755
-1.101501993
-1.111129486
-1.120615376
-1.129970621
-1.139176997
-1.14824598
-1.157174563
-1.165964239
-1.174605811
-1.183100057
-1.191477327
-1.199694999
-1.207783885
-1.215727851
-1.223531535
-1.231187769
-1.238704422
-1.246079958
-1.253316869
-1.260415767
-1.267366933
-1.274167756
-1.280828554
-1.287337171
-1.293702406
-1.299921287
-1.305987824
-1.311897856
-1.317658106
-1.323259008
-1.328693049
-1.333968884
-1.339071535
-1.343996944
-1.348735485
-1.353291519
-1.357656279
-1.361821246
-1.365775595
-1.369525375
-1.373041851
-1.376349256
-1.379415011
-1.382289147
-1.384887536
-1.387305029
-1.389500524
-1.391502752
-1.393349373
-1.395654919
-1.398733058
-1.429212701
-1.459019811
-1.488116264
-1.516714195
)


101
(
-0.6130974781
-0.6220337094
-0.630427818
-0.6388597733
-0.6475569567
-0.6565994193
-0.6659625139
-0.6757274432
-0.6858122114
-0.6961988201
-0.7068545619
-0.7177632166
-0.7288704982
-0.7402180316
-0.7517418777
-0.7634143582
-0.7752391585
-0.7872312993
-0.799259712
-0.8114808021
-0.8237371128
-0.8360092435
-0.848382381
-0.8607817305
-0.873175589
-0.8855531388
-0.8979014817
-0.91020156
-0.9224588664
-0.9346560222
-0.9467831721
-0.9588178271
-0.9707053014
-0.9826074277
-0.9943782602
-1.006041405
-1.017579439
-1.02896581
-1.040231148
-1.051409319
-1.062475257
-1.073367392
-1.084144763
-1.094781832
-1.105248724
-1.115583286
-1.125755765
-1.135791338
-1.145676478
-1.155421758
-1.165010123
-1.174452863
-1.183746802
-1.192893609
-1.201884247
-1.210719843
-1.219430409
-1.227975645
-1.236385163
-1.244643896
-1.252755529
-1.260713068
-1.268524745
-1.276188908
-1.283708716
-1.291085081
-1.298308853
-1.305377666
-1.3123016
-1.319068129
-1.325685685
-1.332151197
-1.33845875
-1.344605195
-1.350597901
-1.356427354
-1.36208448
-1.367578099
-1.372892669
-1.378024784
-1.382964814
-1.387716348
-1.392270547
-1.396618777
-1.400750033
-1.404668945
-1.408344927
-1.411804652
-1.41501404
-1.418023884
-1.420748588
-1.42328539
-1.425590743
-1.427696515
-1.429641669
-1.432074708
-1.435324627
-1.46536292
-1.49481173
-1.523621556
-1.552016208
)


101
(
-0.6131128396
-0.6224859761
-0.6313121353
-0.6401877059
-0.6493456725
-0.6588666785
-0.6687229142
-0.678996962
-0.6896040829
-0.700523971
-0.7117222785
-0.7231813718
-0.7348457097
-0.7467549395
-0.7588454033
-0.7710885276
-0.7834863494
-0.7960525514
-0.808657993
-0.8214541129
-0.8342865933
-0.8471354528
-0.8600822596
-0.8730527082
-0.8860148275
-0.8989569592
-0.9118654909
-0.9247208526
-0.9375273951
-0.95026755
-0.9629305743
-0.9754937321
-0.9879037334
-1.000316214
-1.01259015
-1.024748391
-1.036773412
-1.048638816
-1.06037332
-1.072008897
-1.083521362
-1.094852575
-1.106060474
-1.117120674
-1.12800408
-1.138746288
-1.149317789
-1.159742602
-1.170008391
-1.180125435
-1.190077949
-1.199877262
-1.209520234
-1.219008591
-1.228333351
-1.237495927
-1.246525816
-1.255385122
-1.264102582
-1.272664343
-1.281073241
-1.289322401
-1.29742023
-1.305364944
-1.313160322
-1.320807355
-1.328297582
-1.33562906
-1.342811967
-1.349833555
-1.356701795
-1.363413245
-1.369961602
-1.376344673
-1.382570642
-1.388630543
-1.394514202
-1.400230168
-1.405761905
-1.411106196
-1.416253811
-1.421208219
-1.425960074
-1.430500023
-1.434817542
-1.438916308
-1.442762857
-1.446385859
-1.449751029
-1.452909183
-1.455772577
-1.458442426
-1.46087099
-1.463094374
-1.4651525
-1.467728328
-1.471165474
-1.500859592
-1.530045125
-1.558661673
-1.586939542
)


101
(
-0.613128201
-0.6229383145
-0.6321964761
-0.6415148295
-0.6511318185
-0.6611286841
-0.671474549
-0.6822531395
-0.6933771452
-0.7048239731
-0.7165576414
-0.7285590758
-0.740771562
-0.7532326446
-0.765878885
-0.7786809231
-0.7916392176
-0.8047660294
-0.8179341653
-0.8312902131
-0.8446828292
-0.8580915331
-0.8715945243
-0.8851181182
-0.8986300717
-0.9121178658
-0.9255671647
-0.9389579183
-0.9522934444
-0.9655561483
-0.9787345742
-0.991805748
-1.004717584
-1.017619541
-1.030375337
-1.043007306
-1.055498146
-1.067821871
-1.080005434
-1.09207874
-1.104017906
-1.11576784
-1.1273855
-1.13884818
-1.150128206
-1.16125933
-1.172212052
-1.183008894
-1.19363852
-1.204110836
-1.214411399
-1.22455184
-1.234529207
-1.244345337
-1.253991231
-1.263468419
-1.272805896
-1.281967966
-1.290982665
-1.299837618
-1.308535067
-1.317068226
-1.325445524
-1.333665004
-1.341730932
-1.349644407
-1.357397446
-1.364988576
-1.372428391
-1.379704141
-1.386823508
-1.393782483
-1.400574067
-1.407196672
-1.413659147
-1.419953325
-1.426068579
-1.432013632
-1.43777023
-1.44333471
-1.448698158
-1.453864641
-1.458824406
-1.46356681
-1.468081658
-1.472372678
-1.476403024
-1.480202107
-1.483736559
-1.487057346
-1.490073235
-1.492891172
-1.495457883
-1.497813846
-1.500000639
-1.502735378
-1.506377226
-1.535821869
-1.564837682
-1.593353494
-1.621560105
)


101
(
-0.6131435623
-0.6233907277
-0.6330808495
-0.6428411669
-0.6529154339
-0.6633854953
-0.6742175016
-0.685496106
-0.6971315763
-0.7090990625
-0.7213609556
-0.733896726
-0.7466485516
-0.7596517858
-0.7728431403
-0.7861925481
-0.7996989621
-0.8133731725
-0.8270899302
-0.8409910985
-0.8549281752
-0.8688802114
-0.8829222499
-0.8969813482
-0.9110250686
-0.92504005
-0.9390112327
-0.9529180689
-0.9667628838
-0.9805281793
-0.9942020089
-1.007761289
-1.021155028
-1.034526522
-1.047743929
-1.060829133
-1.073765332
-1.08652731
-1.09914057
-1.111632946
-1.123980474
-1.136130509
-1.148138875
-1.159984755
-1.171642487
-1.183144652
-1.194461961
-1.205615157
-1.216593409
-1.227406258
-1.238040513
-1.248508232
-1.258806963
-1.268938776
-1.278894598
-1.28867598
-1.298311277
-1.307766806
-1.317070049
-1.326210226
-1.335189319
-1.344000732
-1.352652819
-1.361143323
-1.369476901
-1.377654756
-1.385669245
-1.393519325
-1.401216094
-1.408747086
-1.416119934
-1.423329998
-1.430369498
-1.437237087
-1.443941854
-1.450476318
-1.45683003
-1.463012435
-1.46900361
-1.474798776
-1.480388744
-1.485778241
-1.490957997
-1.495915771
-1.500641063
-1.505138081
-1.509367278
-1.513357348
-1.517075961
-1.520575271
-1.52375923
-1.526741313
-1.529462751
-1.531967486
-1.534299661
-1.537211
-1.541076557
-1.570365282
-1.599304879
-1.627752981
-1.656102428
)


101
(
-0.6131589234
-0.6238432187
-0.6339652655
-0.6441667412
-0.6546965589
-0.6656371725
-0.6769518563
-0.6887259922
-0.7008675554
-0.7133494764
-0.726132527
-0.73919472
-0.752477175
-0.7660129972
-0.7797389797
-0.7936244014
-0.8076667819
-0.821875417
-0.8361269838
-0.8505587527
-0.8650249675
-0.8795042062
-0.8940685323
-0.9086458296
-0.9232036019
-0.9377277102
-0.9522023909
-0.9666065775
-0.9809415942
-0.995190086
-1.009339814
-1.023367799
-1.037224175
-1.051046105
-1.064705885
-1.07822484
-1.091586824
-1.104767674
-1.117791853
-1.13068542
-1.143424147
-1.155957259
-1.16833907
-1.180550468
-1.192568168
-1.204424411
-1.216090546
-1.227585602
-1.238898849
-1.250039109
-1.260994362
-1.271777162
-1.282385711
-1.292822626
-1.303078793
-1.31315572
-1.323081024
-1.332822768
-1.342407772
-1.351826973
-1.36108247
-1.370168015
-1.379092001
-1.3878517
-1.39645197
-1.404894164
-1.413170847
-1.421281335
-1.429237239
-1.437026531
-1.444656952
-1.452123488
-1.459417591
-1.466537888
-1.473493276
-1.480276543
-1.486877459
-1.493306966
-1.499544117
-1.505582641
-1.511412219
-1.517037794
-1.522451342
-1.527639516
-1.532590384
-1.537308959
-1.541753624
-1.545951683
-1.549870917
-1.553566187
-1.556935581
-1.560099292
-1.562993202
-1.565664327
-1.568159807
-1.571266873
-1.575377193
-1.604603417
-1.633498979
-1.662131483
-1.690622688
)


101
(
-0.6131742844
-0.6242957929
-0.634849738
-0.6454915819
-0.6564752422
-0.6678837869
-0.6796777105
-0.6919429435
-0.7045852797
-0.7175754727
-0.7308726868
-0.7444534779
-0.7582579568
-0.7723169404
-0.786567239
-0.8009775114
-0.8155439106
-0.8302742352
-0.8450470652
-0.8599951996
-0.8749755719
-0.8899662813
-0.9050365244
-0.9201150863
-0.9351695454
-0.9501851113
-0.9651453722
-0.9800287334
-0.9948354957
-1.009548417
-1.024155076
-1.038632862
-1.052933166
-1.067187188
-1.08127105
-1.095205331
-1.10897449
-1.122555662
-1.135972653
-1.149250166
-1.162363785
-1.175264234
-1.188003878
-1.200564882
-1.212926315
-1.225120648
-1.237120647
-1.248944024
-1.260579933
-1.272036041
-1.283301217
-1.294388426
-1.30529672
-1.316029521
-1.326577962
-1.336943405
-1.347152664
-1.357175227
-1.367037191
-1.376731081
-1.3862593
-1.395616431
-1.404810991
-1.413839804
-1.422707664
-1.431416006
-1.43995756
-1.448331966
-1.456551238
-1.464603787
-1.472497676
-1.480227799
-1.487784922
-1.49516759
-1.50238428
-1.509427458
-1.51628674
-1.522974967
-1.529470979
-1.535767282
-1.541851798
-1.547729008
-1.553392093
-1.558827509
-1.564021541
-1.568979144
-1.573657472
-1.578082609
-1.58222084
-1.586131188
-1.589705254
-1.593069477
-1.596155138
-1.599011787
-1.601689988
-1.605013485
-1.60939188
-1.638591676
-1.667707229
-1.696433897
-1.724785105
)


101
(
-0.6131896453
-0.6247484531
-0.6357342772
-0.6468157114
-0.6582515227
-0.6701253973
-0.6823951463
-0.6951470862
-0.7082849245
-0.7217772849
-0.7355817395
-0.7496733883
-0.7639913876
-0.7785642377
-0.7933287079
-0.8082528566
-0.8233315302
-0.8385710451
-0.8538518517
-0.8693024066
-0.8847822879
-0.9002691153
-0.9158293034
-0.93139259
-0.9469267413
-0.9624164683
-0.9778448209
-0.9931897019
-1.008450366
-1.023609609
-1.038654851