/*--------------------------------*- C++ -*----------------------------------*\
| =========                 |                                                 |
| \\      /  F ield         | OpenFOAM: The Open Source CFD Toolbox           |
|  \\    /   O peration     | Version:  2.3.1                                 |
|   \\  /    A nd           | Web:      www.OpenFOAM.org                      |
|    \\/     M anipulation  |                                                 |
\*---------------------------------------------------------------------------*/
FoamFile
{
    version     2.0;
    format      ascii;
    class       dictionary;
    location    "constant";
    object      DPSI17;
}
// * * * * * * * * * * * * * * * * * * * * * * * * * * * * * * * * * * * * * //

DPSI17_table
101
(

101
(
-1.988332341e-19
-2.355738267e-18
-1.187584173e-17
-3.138422062e-17
-5.81132911e-17
-8.809147519e-17
-1.209029113e-16
-1.559045246e-16
-1.922926552e-16
-2.308797626e-16
-2.723005595e-16
-3.16897792e-16
-3.664482133e-16
-4.213347913e-16
-4.802918158e-16
-5.446027691e-16
-6.155926428e-16
-6.885441199e-16
-7.681791875e-16
-8.52829322e-16
-9.342320655e-16
-1.020708955e-15
-1.10728311e-15
-1.182848331e-15
-1.243473095e-15
-1.283502507e-15
-1.296887439e-15
-1.277475898e-15
-1.222154187e-15
-1.131438668e-15
-1.009220822e-15
-8.706881234e-16
-6.886532386e-16
-4.815149143e-16
-2.843144704e-16
-7.374428228e-15
-1.994787745e-14
-1.207796175e-14
1.451748643e-15
1.91820189e-15
2.27187868e-15
2.559358877e-15
2.800417139e-15
2.962075488e-15
3.061116734e-15
3.113034232e-15
3.108504547e-15
3.060704194e-15
2.972678399e-15
2.847069865e-15
2.698729968e-15
2.530407218e-15
2.349185093e-15
2.159976995e-15
1.974656342e-15
1.781521289e-15
1.600863214e-15
1.435572906e-15
1.276831268e-15
1.132721027e-15
1.004010564e-15
8.968631782e-16
7.974994481e-16
7.052832818e-16
6.30472778e-16
5.711649896e-16
5.166410407e-16
4.702754931e-16
4.330955828e-16
4.016850452e-16
3.749074673e-16
3.525215335e-16
3.328797267e-16
-1.15977838e-15
-2.086920925e-15
-2.937186904e-16
8.969317556e-16
8.125203431e-16
7.365752873e-16
6.674240459e-16
6.009512485e-16
5.410827155e-16
-6.802582648e-16
-1.433138466e-15
1.533310064e-16
1.17715568e-15
9.57985086e-16
7.735533528e-16
-4.424729348e-16
-3.072201039e-16
1.013170143e-15
8.844569588e-16
2.860894203e-16
5.126671951e-17
4.052867906e-16
3.994267348e-16
1.114978533e-16
-4.48877063e-22
1.065925503e-31
1.386270925e-31
-2.366455876e-31
)


101
(
-1.54597126e-19
-1.704038778e-18
-7.87157004e-18
-1.92158439e-17
-3.340652547e-17
-4.844115718e-17
-6.436745543e-17
-8.132184115e-17
-9.939908694e-17
-1.192824503e-16
-1.4160897e-16
-1.666753229e-16
-1.961085456e-16
-2.304277273e-16
-2.6882922e-16
-3.129060122e-16
-3.657807294e-16
-4.202513955e-16
-4.870654835e-16
-5.629995421e-16
-6.336027923e-16
-7.226701105e-16
-8.248295981e-16
-9.219549293e-16
-1.017123843e-15
-1.108312978e-15
-1.18847085e-15
-1.255410326e-15
-1.302526902e-15
-1.323788759e-15
-1.316034045e-15
-1.265067908e-15
-1.217661634e-15
-1.13177007e-15
-9.801313258e-16
-1.131889651e-15
-1.745023868e-15
-1.705221634e-15
-9.391054085e-16
-4.413584601e-16
-1.564938839e-16
3.419950806e-17
1.74354583e-16
3.298653429e-16
4.595467369e-16
5.70401818e-16
6.693641632e-16
7.480339942e-16
8.107717738e-16
8.543260091e-16
8.83834719e-16
8.926281606e-16
8.938729862e-16
8.820632129e-16
8.496726475e-16
7.910613311e-16
7.345482176e-16
6.773707968e-16
6.108276198e-16
5.478230453e-16
4.84024833e-16
4.287889324e-16
3.761678857e-16
3.243299633e-16
2.748499904e-16
2.346931523e-16
2.041578503e-16
1.78437541e-16
1.610259215e-16
1.509113601e-16
1.45868374e-16
1.464947058e-16
1.575123639e-16
1.783205063e-16
2.000828414e-16
2.193381327e-16
2.377071852e-16
2.598700756e-16
2.869619054e-16
3.170545029e-16
3.483206981e-16
3.828287618e-16
4.232801427e-16
4.62975793e-16
4.912718487e-16
5.131070102e-16
5.40307585e-16
5.740832754e-16
6.149192234e-16
6.592770907e-16
6.887795664e-16
7.134067434e-16
7.557019407e-16
7.985764598e-16
8.441241333e-16
8.939927899e-16
-1.596400693e-15
-9.707607054e-15
-3.089722794e-14
-7.74294056e-14
-1.115235675e-13
)


101
(
-1.38224405e-19
-1.628394842e-18
-7.803709309e-18
-1.975543554e-17
-3.566529598e-17
-5.371746579e-17
-7.408277225e-17
-9.709262778e-17
-1.230784753e-16
-1.530833189e-16
-1.882427882e-16
-2.29335847e-16
-2.791157008e-16
-3.390058764e-16
-4.088466871e-16
-4.919765444e-16
-5.941600097e-16
-7.062966734e-16
-8.45836858e-16
-1.009950416e-15
-1.177767835e-15
-1.387491683e-15
-1.634980909e-15
-1.892847949e-15
-2.166302768e-15
-2.453437722e-15
-2.742017995e-15
-3.028701138e-15
-3.29888452e-15
-3.536809636e-15
-3.730131145e-15
-3.829613105e-15
-3.96276607e-15
-4.001344093e-15
-3.841770515e-15
-4.083299006e-15
-5.060848438e-15
-5.617099286e-15
-5.003592113e-15
-4.024878684e-15
-3.147945023e-15
-2.570127803e-15
-2.229803745e-15
-1.820869839e-15
-1.44835168e-15
-1.112807067e-15
-7.684109892e-16
-4.436716993e-16
-1.352164799e-16
1.486748465e-16
4.150691561e-16
6.209024828e-16
8.016300063e-16
9.726512655e-16
1.107262245e-15
1.139875969e-15
1.160346904e-15
1.149856716e-15
1.086285585e-15
1.015160409e-15
9.1726414e-16
8.435497856e-16
7.499062841e-16
6.292816923e-16
5.044689577e-16
4.036564031e-16
3.252117589e-16
2.341689997e-16
1.732747762e-16
1.411744258e-16
1.237923311e-16
1.044436636e-16
1.206435805e-16
2.228178592e-16
3.585322345e-16
4.916298932e-16
6.183732339e-16
7.648730473e-16
9.458322233e-16
1.163677398e-15
1.409217681e-15
1.684343457e-15
1.995905749e-15
2.344564574e-15
2.690855363e-15
2.983831533e-15
3.245631932e-15
3.544489336e-15
3.886269706e-15
4.2589702e-15
4.629685856e-15
4.924205183e-15
5.221071418e-15
5.598004599e-15
6.045815522e-15
6.571769156e-15
-1.699085188e-14
-8.036699564e-14
-2.141562414e-13
-4.458847524e-13
-5.968419387e-13
)


101
(
-1.274038352e-19
-1.614445115e-18
-7.976462045e-18
-2.077218528e-17
-3.863776776e-17
-6.00533832e-17
-8.552356505e-17
-1.157931414e-16
-1.51664476e-16
-1.948385236e-16
-2.473292232e-16
-3.108597365e-16
-3.900407329e-16
-4.881027398e-16
-6.065067375e-16
-7.518185177e-16
-9.347010376e-16
-1.145418951e-15
-1.412110306e-15
-1.735651022e-15
-2.089186552e-15
-2.533184806e-15
-3.070996614e-15
-3.667036991e-15
-4.333072575e-15
-5.072208824e-15
-5.869196686e-15
-6.724093323e-15
-7.613811308e-15
-8.508755443e-15
-9.383368195e-15
-1.01209285e-14
-1.100935855e-14
-1.175886379e-14
-1.192885526e-14
-1.283693648e-14
-1.483690648e-14
-1.663372054e-14
-1.735931115e-14
-1.679678812e-14
-1.539281175e-14
-1.431464518e-14
-1.382872502e-14
-1.32158429e-14
-1.270560657e-14
-1.22413998e-14
-1.167845176e-14
-1.102572807e-14
-1.027950219e-14
-9.458555404e-15
-8.539321197e-15
-7.727429786e-15
-6.893735667e-15
-5.981152968e-15
-5.128039915e-15
-4.381926295e-15
-3.512735581e-15
-2.824015606e-15
-2.253895924e-15
-1.719512633e-15
-1.355097861e-15
-8.959875782e-16
-5.188597541e-16
-2.694389683e-16
-3.305896096e-17
1.871043445e-16
4.81190823e-16
5.150656235e-16
4.256579507e-16
5.393293928e-16
7.225444157e-16
7.324530214e-16
6.920131937e-16
9.730602879e-16
1.387315815e-15
1.834658583e-15
2.324055827e-15
2.806071785e-15
3.295723976e-15
3.957185789e-15
4.927119791e-15
6.120819555e-15
7.456826189e-15
9.014594486e-15
1.07560207e-14
1.255837962e-14
1.415345524e-14
1.569428908e-14
1.741242911e-14
1.936102809e-14
2.1374604e-14
2.32334351e-14
2.490239349e-14
2.664091186e-14
2.914248416e-14
3.241819306e-14
-9.557844423e-14
-3.949966018e-13
-9.689396015e-13
-1.886784605e-12
-2.44688671e-12
)


101
(
-1.178724418e-19
-1.606474829e-18
-8.163202147e-18
-2.183357116e-17
-4.179311893e-17
-6.695195735e-17
-9.832055138e-17
-1.372915541e-16
-1.85445567e-16
-2.455533264e-16
-3.210647355e-16
-4.153616859e-16
-5.35992489e-16
-6.894160795e-16
-8.804230759e-16
-1.121264979e-15
-1.431199726e-15
-1.80281931e-15
-2.281704569e-15
-2.878891646e-15
-3.565468196e-15
-4.438075831e-15
-5.520067003e-15
-6.775892619e-15
-8.237165109e-15
-9.926105549e-15
-1.183701611e-14
-1.399104433e-14
-1.636767281e-14
-1.892501907e-14
-2.163695605e-14
-2.427304831e-14
-2.744474862e-14
-3.063697496e-14
-3.300536398e-14
-3.596559776e-14
-4.047316053e-14
-4.596344387e-14
-5.097347355e-14
-5.401623531e-14
-5.451183878e-14
-5.466123589e-14
-5.572637851e-14
-5.648506151e-14
-5.76325794e-14
-5.893077687e-14
-5.994031855e-14
-6.055627187e-14
-6.08324636e-14
-6.062669079e-14
-5.962640797e-14
-5.855309248e-14
-5.727480372e-14
-5.542071362e-14
-5.283271684e-14
-5.068960746e-14
-4.778538806e-14
-4.45359268e-14
-4.057516553e-14
-3.625013364e-14
-3.325081449e-14
-2.92043831e-14
-2.522310497e-14
-2.196947838e-14
-1.682133659e-14
-1.13174989e-14
-6.727918604e-15
-2.785514609e-15
-3.038791506e-16
4.591377992e-15
1.007510326e-14
1.287299471e-14
1.470201368e-14
1.732495751e-14
2.084280531e-14
2.509543019e-14
2.813733191e-14
2.968356774e-14
3.110428415e-14
3.123185889e-14
3.340629519e-14
3.671797099e-14
3.920545984e-14
4.273742817e-14
4.768880827e-14
5.322192201e-14
5.781923994e-14
6.197898922e-14
6.691651856e-14
7.32982411e-14
7.983236447e-14
8.594752155e-14
9.192287238e-14
9.753338354e-14
1.071188268e-13
1.217759358e-13
-4.092838703e-13
-1.540364607e-12
-3.635333961e-12
-6.073362394e-12
-7.097181917e-12
)


101
(
-1.087197339e-19
-1.598164336e-18
-8.349166815e-18
-2.292526762e-17
-4.512996154e-17
-7.444675816e-17
-1.125964441e-16
-1.619154104e-16
-2.251694558e-16
-3.067639575e-16
-4.123707925e-16
-5.480752711e-16
-7.259390624e-16
-9.577957194e-16
-1.254501238e-15
-1.637914515e-15
-2.14173405e-15
-2.766536146e-15
-3.58646322e-15
-4.634363941e-15
-5.889683178e-15
-7.50945473e-15
-9.560962366e-15
-1.203101029e-14
-1.500321113e-14
-1.855330948e-14
-2.272114635e-14
-2.759804433e-14
-3.320930658e-14
-3.95439389e-14
-4.658471264e-14
-5.396832056e-14
-6.297301567e-14
-7.277281255e-14
-8.182860709e-14
-9.175690344e-14
-1.038047304e-13
-1.187524389e-13
-1.357433109e-13
-1.516012367e-13
-1.631240966e-13
-1.733618201e-13
-1.850907338e-13
-1.962748487e-13
-2.088693137e-13
-2.227717709e-13
-2.375334792e-13
-2.526829137e-13
-2.677579166e-13
-2.816776345e-13
-2.929645909e-13
-3.036267026e-13
-3.148217715e-13
-3.260300181e-13
-3.325056522e-13
-3.375630879e-13
-3.414330112e-13
-3.476200145e-13
-3.436150854e-13
-3.247184433e-13
-3.199937004e-13
-3.076427451e-13
-2.867414787e-13
-2.78496408e-13
-2.535871791e-13
-2.158740146e-13
-1.796501787e-13
-1.314431227e-13
-1.110247591e-13
-7.602600265e-14
-9.784529072e-15
3.973954758e-14
7.757193472e-14
1.128078493e-13
1.581147495e-13
1.996669539e-13
2.375558196e-13
2.867373182e-13
3.211600355e-13
3.248782361e-13
3.192483506e-13
3.327332176e-13
3.484942262e-13
3.501705589e-13
3.571006441e-13
3.699802922e-13
3.716494097e-13
3.57621283e-13
3.469385662e-13
3.44041641e-13
3.511370956e-13
3.489380976e-13
3.458701521e-13
3.467676433e-13
3.660508205e-13
4.07724224e-13
-1.60433595e-12
-5.443627266e-12
-1.425592659e-11
-2.461989804e-11
-2.823897542e-11
)


101
(
-9.974384186e-20
-1.588764507e-18
-8.533055211e-18
-2.404641377e-17
-4.865351176e-17
-8.257271715e-17
-1.284777056e-16
-1.900145251e-16
-2.716580104e-16
-3.802008261e-16
-5.246137386e-16
-7.151609068e-16
-9.706564397e-16
-1.311438763e-15
-1.758600623e-15
-2.349643293e-15
-3.141648369e-15
-4.152897554e-15
-5.503878889e-15
-7.26901927e-15
-9.457227042e-15
-1.232798683e-14
-1.603580351e-14
-2.063652589e-14
-2.633386828e-14
-3.333295441e-14
-4.18020952e-14
-5.201646572e-14
-6.416547421e-14
-7.839112434e-14
-9.480544395e-14
-1.129110906e-13
-1.352924837e-13
-1.609347096e-13
-1.873574077e-13
-2.166027697e-13
-2.499309853e-13
-2.9028932e-13
-3.395039493e-13
-3.936251207e-13
-4.451726865e-13
-4.98075632e-13
-5.57974283e-13
-6.20877882e-13
-6.908779424e-13
-7.692942708e-13
-8.600529046e-13
-9.636631421e-13
-1.073447118e-12
-1.18868724e-12
-1.298133903e-12
-1.402499807e-12
-1.515401172e-12
-1.647710735e-12
-1.76093475e-12
-1.841822295e-12
-1.932775925e-12
-2.03460799e-12
-2.086872223e-12
-2.093835944e-12
-2.137100456e-12
-2.130735413e-12
-2.040391295e-12
-1.990506177e-12
-1.922717871e-12
-1.768904004e-12
-1.590673622e-12
-1.351453402e-12
-1.134873936e-12
-9.319799289e-13
-6.589762497e-13
-3.52159491e-13
-5.25230295e-14
2.41129045e-13
5.730400937e-13
8.463316719e-13
1.128913617e-12
1.508412963e-12
1.822676016e-12
2.02527535e-12
2.074856774e-12
2.152515106e-12
2.30729704e-12
2.352589568e-12
2.402593882e-12
2.491828884e-12
2.535734357e-12
2.438073198e-12
2.231842489e-12
2.129725681e-12
2.119871837e-12
1.978565555e-12
1.815043513e-12
1.669724324e-12
1.662536913e-12
1.785040247e-12
-7.156468967e-12
-2.184607429e-11
-4.883970396e-11
-7.583105572e-11
-8.201528526e-11
)


101
(
-9.090437666e-20
-1.57817602e-18
-8.714409614e-18
-2.519621092e-17
-5.236839796e-17
-9.136495971e-17
-1.460968075e-16
-2.219648235e-16
-3.25814629e-16
-4.678085533e-16
-6.616545205e-16
-9.238276605e-16
-1.282996588e-15
-1.772451681e-15
-2.429651632e-15
-3.316700715e-15
-4.527403752e-15
-6.113374674e-15
-8.268970903e-15
-1.114229704e-14
-1.480956936e-14
-1.97025621e-14
-2.613851506e-14
-3.432986498e-14
-4.47307362e-14
-5.783051246e-14
-7.410111104e-14
-9.423729544e-14
-1.188679783e-13
-1.486103811e-13
-1.840589444e-13
-2.248077236e-13
-2.759649278e-13
-3.370590112e-13
-4.052019325e-13
-4.839334318e-13
-5.747916247e-13
-6.853434895e-13
-8.244098053e-13
-9.904634321e-13
-1.17160798e-12
-1.377514152e-12
-1.620688679e-12
-1.891416949e-12
-2.197815541e-12
-2.539530902e-12
-2.930996155e-12
-3.388798833e-12
-3.888053601e-12
-4.423811991e-12
-4.936972205e-12
-5.435203611e-12
-5.977568047e-12
-6.558550052e-12
-7.085083586e-12
-7.533927654e-12
-7.942050916e-12
-8.330743526e-12
-8.580801732e-12
-8.665311902e-12
-8.844455785e-12
-8.914270761e-12
-8.747305279e-12
-8.536716175e-12
-8.232377618e-12
-7.684176181e-12
-7.123134728e-12
-6.435291002e-12
-5.596402432e-12
-4.826174708e-12
-3.802263654e-12
-2.595339703e-12
-1.424510433e-12
-3.133477853e-13
9.36743652e-13
2.117562599e-12
3.207964513e-12
4.461315841e-12
5.723756757e-12
7.02487452e-12
7.957827087e-12
8.379799558e-12
8.977997998e-12
9.471702486e-12
9.757979464e-12
1.032829275e-11
1.082626417e-11
1.075044462e-11
1.017328209e-11
9.65127285e-12
9.698785803e-12
9.285982899e-12
8.371400483e-12
7.735156506e-12
7.602160009e-12
8.312361713e-12
-2.515106597e-11
-7.203321634e-11
-1.312468401e-10
-1.861204683e-10
-1.953669086e-10
)


101
(
-8.2199218e-20
-1.566378799e-18
-8.892801996e-18
-2.637366312e-17
-5.627882568e-17
-1.008590773e-16
-1.655927071e-16
-2.581692222e-16
-3.886286458e-16
-5.717624607e-16
-8.27901286e-16
-1.182463136e-15
-1.678187256e-15
-2.367476091e-15
-3.312900848e-15
-4.614118034e-15
-6.421018134e-15
-8.842593263e-15
-1.218831998e-14
-1.673032344e-14
-2.267529304e-14
-3.073841583e-14
-4.152756649e-14
-5.556500254e-14
-7.378538373e-14
-9.726104254e-14
-1.271248185e-13
-1.64966929e-13
-2.124544602e-13
-2.714671284e-13
-3.440927198e-13
-4.309995292e-13
-5.424924446e-13
-6.814391299e-13
-8.472428488e-13
-1.048477186e-12
-1.290788282e-12
-1.595324662e-12
-1.98518418e-12
-2.468667114e-12
-3.036450258e-12
-3.702300195e-12
-4.487320087e-12
-5.37865654e-12
-6.394100557e-12
-7.519222959e-12
-8.766403241e-12
-1.020362081e-11
-1.174422544e-11
-1.328715901e-11
-1.478993121e-11
-1.631922648e-11
-1.780038641e-11
-1.934056167e-11
-2.091989084e-11
-2.214083108e-11
-2.307009818e-11
-2.400004854e-11
-2.464779866e-11
-2.487643101e-11
-2.516439715e-11
-2.50492805e-11
-2.457412325e-11
-2.409032278e-11
-2.336036942e-11
-2.219061193e-11
-2.059592364e-11
-1.863624469e-11
-1.614202998e-11
-1.384591853e-11
-1.14281265e-11
-8.928405722e-12
-6.412977854e-12
-3.206260613e-12
1.844130154e-13
3.318460978e-12
6.387878927e-12
9.578937702e-12
1.288090594e-11
1.616789016e-11
1.927733991e-11
2.127001392e-11
2.311053683e-11
2.483344183e-11
2.636021831e-11
2.801740303e-11
2.961644198e-11
3.055856125e-11
2.992637285e-11
2.91630395e-11
2.954043278e-11
2.859810748e-11
2.618798401e-11
2.48965667e-11
2.461460285e-11
2.90492718e-11
-6.111717367e-11
-1.767761024e-10
-2.743608348e-10
-3.631074237e-10
-3.762316992e-10
)


101
(
-7.363551693e-20
-1.553364353e-18
-9.067793701e-18
-2.757759905e-17
-6.038847458e-17
-1.110906771e-16
-1.871101748e-16
-2.990572975e-16
-4.611767098e-16
-6.944812596e-16
-1.028355058e-15
-1.500762381e-15
-2.174139176e-15
-3.128366654e-15
-4.463300635e-15
-6.334422779e-15
-8.975221662e-15
-1.258765941e-14
-1.765695493e-14
-2.46554478e-14
-3.401952552e-14
-4.691804851e-14
-6.446422549e-14
-8.774674084e-14
-1.18570062e-13
-1.591384054e-13
-2.119409416e-13
-2.804229641e-13
-3.685933969e-13
-4.814740861e-13
-6.254149577e-13
-8.055977373e-13
-1.043462927e-12
-1.352031403e-12
-1.741879504e-12
-2.237203593e-12
-2.857482718e-12
-3.656546564e-12
-4.676315721e-12
-5.932990171e-12
-7.418867589e-12
-9.163433255e-12
-1.119232693e-11
-1.346658593e-11
-1.602298417e-11
-1.880858526e-11
-2.182483965e-11
-2.512425839e-11
-2.850186976e-11
-3.184126406e-11
-3.514857407e-11
-3.839393631e-11
-4.140060366e-11
-4.437257733e-11
-4.716059454e-11
-4.95314195e-11
-5.113555861e-11
-5.251157231e-11
-5.374473412e-11
-5.395043392e-11
-5.40818869e-11
-5.357560836e-11
-5.233768821e-11
-5.10184847e-11
-4.915591683e-11
-4.669606486e-11
-4.337272938e-11
-3.933143754e-11
-3.480521503e-11
-3.030148708e-11
-2.552367373e-11
-2.016468806e-11
-1.480445543e-11
-9.156301951e-12
-3.074941967e-12
3.381972228e-12
9.851731873e-12
1.57399116e-11
2.211039797e-11
2.921429975e-11
3.554617644e-11
4.044826856e-11
4.466645985e-11
4.874877667e-11
5.302571657e-11
5.634730481e-11
6.01909255e-11
6.360148549e-11
6.409425223e-11
6.403226582e-11
6.483420246e-11
6.37847869e-11
6.04698208e-11
5.85960217e-11
5.97531578e-11
7.021011882e-11
-1.165963635e-10
-3.392405431e-10
-4.627033062e-10
-5.696839509e-10
-5.801793648e-10
)


101
(
-6.522275435e-20
-1.539128597e-18
-9.238939426e-18
-2.880672036e-17
-6.470057208e-17
-1.220951792e-16
-2.107988206e-16
-3.450867757e-16
-5.446311593e-16
-8.386460288e-16
-1.268656519e-15
-1.88985022e-15
-2.791749923e-15
-4.092877237e-15
-5.946961056e-15
-8.590537163e-15
-1.23789977e-14
-1.765847612e-14
-2.517647278e-14
-3.571882641e-14
-5.010448476e-14
-7.021214164e-14
-9.800028204e-14
-1.355531359e-13
-1.862079441e-13
-2.542846927e-13
-3.449675264e-13
-4.655125332e-13
-6.251840875e-13
-8.364332361e-13
-1.116098567e-12
-1.482315554e-12
-1.981350911e-12
-2.649382419e-12
-3.523222303e-12
-4.662433266e-12
-6.113499766e-12
-7.971123819e-12
-1.028893535e-11
-1.308832695e-11
-1.634133395e-11
-2.009171548e-11
-2.435029601e-11
-2.901288276e-11
-3.415130497e-11
-3.960222348e-11
-4.529010633e-11
-5.121732713e-11
-5.71487645e-11
-6.298020546e-11
-6.869929751e-11
-7.417492798e-11
-7.906399579e-11
-8.32607418e-11
-8.715744723e-11
-9.100354027e-11
-9.340352853e-11
-9.493148463e-11
-9.624080724e-11
-9.604978898e-11
-9.529051923e-11
-9.395944178e-11
-9.156962636e-11
-8.840543718e-11
-8.443989314e-11
-8.028559461e-11
-7.501666452e-11
-6.840622908e-11
-6.096860828e-11
-5.303405284e-11
-4.489652179e-11
-3.633291405e-11
-2.75808891e-11
-1.834236552e-11
-8.348661029e-12
2.268382145e-12
1.261066947e-11
2.238488652e-11
3.262489018e-11
4.391600729e-11
5.465804725e-11
6.389930431e-11
7.183798728e-11
7.916091801e-11
8.732641116e-11
9.39998077e-11
1.005358037e-10
1.073479145e-10
1.09791087e-10
1.117488695e-10
1.146417015e-10
1.138927973e-10
1.10405288e-10
1.077996714e-10
1.136150192e-10
1.373886464e-10
-1.83156541e-10
-5.456684582e-10
-6.580044717e-10
-7.391792546e-10
-7.310810695e-10
)


101
(
-5.697096144e-20
-1.523669429e-18
-9.405777354e-18
-3.00595455e-17
-6.921776342e-17
-1.339077617e-16
-2.368133474e-16
-3.967419033e-16
-6.402606433e-16
-1.007214189e-15
-1.55513718e-15
-2.362424691e-15
-3.555253877e-15
-5.30546214e-15
-7.842841322e-15
-1.151906268e-14
-1.686387118e-14
-2.443974806e-14
-3.537808799e-14
-5.094375229e-14
-7.256802468e-14
-1.03227481e-13
-1.462505375e-13
-2.054599244e-13
-2.868527446e-13
-3.985335306e-13
-5.509894681e-13
-7.593449042e-13
-1.044162771e-12
-1.433908985e-12
-1.967580101e-12
-2.69124334e-12
-3.701115988e-12
-5.074014395e-12
-6.885437379e-12
-9.248927328e-12
-1.224159275e-11
-1.59888157e-11
-2.052837e-11
-2.587296453e-11
-3.193791825e-11
-3.875069317e-11
-4.630893696e-11
-5.439124047e-11
-6.304062692e-11
-7.18870941e-11
-8.077827737e-11
-8.981574806e-11
-9.874751833e-11
-1.07338604e-10
-1.155041021e-10
-1.232223888e-10
-1.29941155e-10
-1.352171256e-10
-1.402389947e-10
-1.448949459e-10
-1.474719639e-10
-1.487105293e-10
-1.494767892e-10
-1.48688651e-10
-1.464467003e-10
-1.432802618e-10
-1.389143811e-10
-1.336013782e-10
-1.271189382e-10
-1.198892223e-10
-1.119421016e-10
-1.026362015e-10
-9.18052168e-11
-8.00698686e-11
-6.789346314e-11
-5.533247506e-11
-4.249888423e-11
-2.908460022e-11
-1.478881642e-11
2.375546222e-13
1.492680966e-11
2.952087191e-11
4.421246493e-11
5.938276326e-11
7.497441082e-11
8.926236429e-11
1.016493773e-10
1.132857244e-10
1.257764543e-10
1.367329684e-10
1.461877206e-10
1.5624093e-10
1.629037225e-10
1.676677882e-10
1.725649629e-10
1.740016047e-10
1.713183536e-10
1.674609235e-10
1.785384404e-10
2.188414371e-10
-2.396662925e-10
-7.396860871e-10
-8.118312162e-10
-8.438883605e-10
-8.140873266e-10
)


101
(
-4.889031823e-20
-1.506988521e-18
-9.567837794e-18
-3.133441483e-17
-7.394202351e-17
-1.465629822e-16
-2.65312885e-16
-4.545331182e-16
-7.494289473e-16
-1.203432445e-15
-1.894871944e-15
-2.93290487e-15
-4.49260994e-15
-6.818154038e-15
-1.024456323e-14
-1.528390659e-14
-2.27107321e-14
-3.340406689e-14
-4.904909645e-14
-7.162670538e-14
-1.035215756e-13
-1.493859715e-13
-2.147108417e-13
-3.06264757e-13
-4.347032813e-13
-6.150455146e-13
-8.679334227e-13
-1.223846077e-12
-1.725413517e-12
-2.431312378e-12
-3.420606335e-12
-4.787942069e-12
-6.709914888e-12
-9.318188194e-12
-1.272740675e-11
-1.710511483e-11
-2.253324067e-11
-2.913321279e-11
-3.693497518e-11
-4.589045477e-11
-5.57803399e-11
-6.659008284e-11
-7.82773529e-11
-9.046682596e-11
-1.031786646e-10
-1.158836738e-10
-1.28265517e-10
-1.404099969e-10
-1.522184036e-10
-1.633830032e-10
-1.736470887e-10
-1.83142821e-10
-1.912733037e-10
-1.974755222e-10
-2.02743749e-10
-2.072856743e-10
-2.094797511e-10
-2.098579305e-10
-2.093870909e-10
-2.072027345e-10
-2.031164922e-10
-1.975176783e-10
-1.904160561e-10
-1.820546687e-10
-1.726875189e-10
-1.621185465e-10
-1.503992934e-10
-1.376570787e-10
-1.231502476e-10
-1.073513077e-10
-9.092826085e-11
-7.387282427e-11
-5.651467739e-11
-3.874664011e-11
-2.019723276e-11
-6.344790176e-13
1.889025121e-11
3.813770344e-11
5.733075413e-11
7.672565219e-11
9.668532462e-11
1.157659063e-10
1.329029947e-10
1.488141158e-10
1.65062157e-10
1.806322802e-10
1.939603222e-10
2.065266355e-10
2.172271145e-10
2.256940683e-10
2.323544031e-10
2.356111668e-10
2.349625015e-10
2.306266029e-10
2.468066855e-10
3.046128681e-10
-2.712837569e-10
-8.762968509e-10
-8.692237702e-10
-8.246945336e-10
-7.720284537e-10
)


101
(
-4.099101907e-20
-1.48909048e-18
-9.724640362e-18
-3.262949358e-17
-7.887461079e-17
-1.600941745e-16
-2.964594384e-16
-5.190000412e-16
-8.736066497e-16
-1.430840319e-15
-2.2957108e-15
-3.617554665e-15
-5.63577939e-15
-8.691264297e-15
-1.326215772e-14
-2.008062438e-14
-3.025967695e-14
-4.513138023e-14
-6.716763546e-14
-9.939758244e-14
-1.456591887e-13
-2.131434857e-13
-3.107738399e-13
-4.502748503e-13
-6.503034478e-13
-9.382836628e-13
-1.353454536e-12
-1.953885375e-12
-2.819763914e-12
-4.057753768e-12
-5.808570748e-12
-8.238647084e-12
-1.16289685e-11
-1.615700922e-11
-2.195641124e-11
-2.923301872e-11
-3.803231223e-11
-4.843137e-11
-6.046692019e-11
-7.395439546e-11
-8.84254188e-11
-1.038348876e-10
-1.201125793e-10
-1.366706953e-10
-1.535135149e-10
-1.700889905e-10
-1.858896351e-10
-2.009094698e-10
-2.152055999e-10
-2.282208898e-10
-2.396876187e-10
-2.502916834e-10
-2.591947302e-10
-2.655539555e-10
-2.701603238e-10
-2.738880713e-10
-2.750663227e-10
-2.738845394e-10
-2.713375128e-10
-2.667975769e-10
-2.601957941e-10
-2.515094869e-10
-2.411273504e-10
-2.29320709e-10
-2.162693696e-10
-2.017166421e-10
-1.858347428e-10
-1.688313813e-10
-1.502609195e-10
-1.303308927e-10
-1.093993553e-10
-8.775277185e-11
-6.576348866e-11
-4.346531567e-11
-2.061777341e-11
3.282554644e-12
2.735252965e-11
5.107863609e-11
7.454827966e-11
9.777441706e-11
1.214467596e-10
1.445980676e-10
1.658036441e-10
1.855737669e-10
2.049626166e-10
2.238704707e-10
2.408220498e-10
2.557117262e-10
2.687991707e-10
2.803409306e-10
2.889919812e-10
2.931391024e-10
2.938394199e-10
2.892870364e-10
3.100956233e-10
3.826932109e-10
-2.585857789e-10
-9.042493756e-10
-7.9616649e-10
-6.561280019e-10
-5.729610969e-10
)


101
(
-3.328324618e-20
-1.469982646e-18
-9.875696734e-18
-3.394275956e-17
-8.401604822e-17
-1.745335842e-16
-3.304178964e-16
-5.907065013e-16
-1.014365572e-15
-1.693277411e-15
-2.766345927e-15
-4.43465704e-15
-7.021113157e-15
-1.099427176e-14
-1.702407848e-14
-2.614106822e-14
-3.992087679e-14
-6.033290085e-14
-9.096693349e-14
-1.363412054e-13
-2.0246679e-13
-3.003804341e-13
-4.445054053e-13
-6.548608774e-13
-9.6338572e-13
-1.418481949e-12
-2.090210387e-12
-3.080424065e-12
-4.525967591e-12
-6.600093701e-12
-9.520699515e-12
-1.353678392e-11
-1.904853395e-11
-2.624989396e-11
-3.525318623e-11
-4.628096479e-11
-5.929790021e-11
-7.429946604e-11
-9.127230687e-11
-1.0986968e-10
-1.293839174e-10
-1.496811134e-10
-1.705760337e-10
-1.912854258e-10
-2.119030115e-10
-2.319539633e-10
-2.507285483e-10
-2.680852429e-10
-2.841105725e-10
-2.981592746e-10
-3.100414037e-10
-3.207553639e-10
-3.294071041e-10
-3.351074239e-10
-3.384083866e-10
-3.402545212e-10
-3.394138082e-10
-3.358396396e-10
-3.303599923e-10
-3.226584453e-10
-3.127260946e-10
-3.0035289e-10
-2.860544005e-10
-2.701702585e-10
-2.528614183e-10
-2.339040904e-10
-2.13430726e-10
-1.91661807e-10
-1.684285176e-10
-1.44036707e-10
-1.184889259e-10
-9.22251487e-11
-6.570805377e-11
-3.893900919e-11
-1.196855824e-11
1.615712938e-11
4.438630227e-11
7.191321431e-11
9.916913426e-11
1.25544723e-10
1.519875469e-10
1.782272636e-10
2.023651794e-10
2.246737236e-10
2.461842954e-10
2.672307572e-10
2.861221203e-10
3.026748285e-10
3.169659009e-10
3.291362688e-10
3.388706594e-10
3.433433452e-10
3.438695445e-10
3.385886533e-10
3.626861258e-10
4.469229323e-10
-1.878349446e-10
-7.981214626e-10
-5.977798658e-10
-3.624907919e-10
-2.377015295e-10
)


101
(
-2.577712156e-20
-1.44967421e-18
-1.002051289e-17
-3.527198541e-17
-8.936589469e-17
-1.899118521e-16
-3.67354943e-16
-6.702405424e-16
-1.173380569e-15
-1.99491601e-15
-3.316326644e-15
-5.404612369e-15
-8.689795758e-15
-1.380698609e-14
-2.167986231e-14
-3.373819578e-14
-5.218393834e-14
-7.987104008e-14
-1.219547518e-13
-1.850606491e-13
-2.784590878e-13
-4.190500608e-13
-6.298856867e-13
-9.444657124e-13
-1.415909908e-12
-2.125054143e-12
-3.187151225e-12
-4.765059328e-12
-7.071506852e-12
-1.036493766e-11
-1.494507738e-11
-2.111947649e-11
-2.941178834e-11
-3.99976157e-11
-5.291459459e-11
-6.838554276e-11
-8.625398957e-11
-1.064062127e-10
-1.287113773e-10
-1.526802799e-10
-1.772954209e-10
-2.023073857e-10
-2.27558482e-10
-2.520592023e-10
-2.758381829e-10
-2.984865712e-10
-3.194579224e-10
-3.384329082e-10
-3.552446848e-10
-3.694962016e-10
-3.809996976e-10
-3.906151177e-10
-3.978162626e-10
-4.019198646e-10
-4.030619764e-10
-4.020510312e-10
-3.981098788e-10
-3.912903064e-10
-3.820936332e-10
-3.702795397e-10
-3.56140516e-10
-3.395027915e-10
-3.206208388e-10
-2.99870945e-10
-2.777795243e-10
-2.540561229e-10
-2.286460831e-10
-2.016476597e-10
-1.733199817e-10
-1.442304199e-10
-1.138863802e-10
-8.305531985e-11
-5.208888767e-11
-2.091769933e-11
9.649046632e-12
4.133348819e-11
7.31869262e-11
1.042484854e-10
1.343491423e-10
1.626881025e-10
1.9125557e-10
2.190660105e-10
2.446797449e-10
2.686146557e-10
2.904036718e-10
3.115725316e-10
3.308541211e-10
3.475033151e-10
3.616778756e-10
3.721648852e-10
3.810876157e-10
3.852833699e-10
3.842735833e-10
3.772828936e-10
4.028801052e-10
4.948592568e-10
-6.220425328e-11
-5.702294949e-10
-3.155255936e-10
-7.887491472e-11
2.216752224e-11
)


101
(
-1.84827736e-20
-1.428167545e-18
-1.015858851e-17
-3.661477104e-17
-9.492281653e-17
-2.062576829e-16
-4.074378073e-16
-7.58216112e-16
-1.35243689e-15
-2.340254603e-15
-3.956076212e-15
-6.550060143e-15
-1.068833212e-14
-1.722088043e-14
-2.740336321e-14
-4.319298273e-14
-6.762934288e-14
-1.047827453e-13
-1.619690169e-13
-2.488325028e-13
-3.795255747e-13
-5.799183002e-13
-8.860617956e-13
-1.352315806e-12
-2.063769769e-12
-3.145850088e-12
-4.772219146e-12
-7.18251805e-12
-1.067998576e-11
-1.561570273e-11
-2.236401171e-11
-3.125394964e-11
-4.290865765e-11
-5.745080936e-11
-7.481159566e-11
-9.519423297e-11
-1.182725388e-10
-1.438114106e-10
-1.715486899e-10
-2.00736348e-10
-2.301362494e-10
-2.595275293e-10
-2.886176048e-10
-3.161935119e-10
-3.423601428e-10
-3.667873582e-10
-3.890276661e-10
-4.085784775e-10
-4.251862897e-10
-4.387407421e-10
-4.489210276e-10
-4.563347097e-10
-4.608695773e-10
-4.62165935e-10
-4.601573276e-10
-4.554385706e-10
-4.473661858e-10
-4.363462145e-10
-4.226998153e-10
-4.059780245e-10
-3.867066573e-10
-3.649345573e-10
-3.407057646e-10
-3.147009367e-10
-2.87113679e-10
-2.579320035e-10
-2.276365014e-10
-1.95445596e-10
-1.618645191e-10
-1.275578884e-10
-9.234509009e-11
-5.715131388e-11
-2.194485104e-11
1.316333381e-11
4.702661464e-11
8.095456484e-11
1.158376618e-10
1.498035267e-10
1.813681465e-10
2.112519525e-10
2.406468688e-10
2.679301999e-10
2.935457902e-10
3.176748549e-10
3.384592649e-10
3.580619092e-10
3.757162883e-10
3.90574542e-10
4.028585534e-10
4.104501439e-10
4.165903658e-10
4.193035703e-10
4.158325054e-10
4.062336709e-10
4.319287699e-10
5.280217212e-10
9.808226569e-11
-2.708718956e-10
-1.247950689e-11
2.132636837e-10
3.144616629e-10
)


101
(
-1.140996098e-20
-1.405526984e-18
-1.02894175e-17
-3.796844909e-17
-1.006845188e-16
-2.235975929e-16
-4.508333294e-16
-8.552677502e-16
-1.553435082e-15
-2.734128564e-15
-4.696917962e-15
-7.895972219e-15
-1.306896298e-14
-2.134073398e-14
-3.439764608e-14
-5.488653326e-14
-8.695855527e-14
-1.36344658e-13
-2.132516233e-13
-3.317903984e-13
-5.133762801e-13
-7.972812759e-13
-1.238122075e-12
-1.920016936e-12
-2.972998639e-12
-4.578573904e-12
-6.977634588e-12
-1.049715628e-11
-1.553655021e-11
-2.252652075e-11