/*--------------------------------*- C++ -*----------------------------------*\
| =========                 |                                                 |
| \\      /  F ield         | OpenFOAM: The Open Source CFD Toolbox           |
|  \\    /   O peration     | Version:  2.3.1                                 |
|   \\  /    A nd           | Web:      www.OpenFOAM.org                      |
|    \\/     M anipulation  |                                                 |
\*---------------------------------------------------------------------------*/
FoamFile
{
    version     2.0;
    format      ascii;
    class       dictionary;
    location    "constant";
    object      DPSI35;
}
// * * * * * * * * * * * * * * * * * * * * * * * * * * * * * * * * * * * * * //

DPSI35_table
101
(

101
(
5.01459671e-13
2.126987568e-11
4.885661683e-11
7.029528567e-11
8.364402789e-11
8.916315232e-11
8.753331491e-11
7.72822067e-11
6.136027119e-11
4.0403775e-11
1.727635218e-11
-6.034400681e-12
-2.632445196e-11
-4.264780641e-11
-5.283012746e-11
-5.76427704e-11
-5.850969698e-11
-5.744938164e-11
-5.711824013e-11
-5.881704972e-11
-6.320532829e-11
-6.951744548e-11
-7.715307651e-11
-8.365994142e-11
-8.769668113e-11
-8.846075532e-11
-8.570599739e-11
-7.992668738e-11
-7.154286282e-11
-6.162589919e-11
-5.090288736e-11
-4.040741639e-11
-3.131340413e-11
-2.114327593e-11
-1.448108324e-11
-1.051613492e-11
-2.014444778e-11
-2.679420968e-11
1.269293895e-11
2.474750709e-11
2.778839505e-11
2.759990063e-11
2.605220135e-11
2.369446059e-11
2.087483373e-11
1.702410411e-11
1.241059295e-11
6.50357288e-12
-1.785793749e-13
-8.069347829e-12
-1.658396035e-11
-2.605015975e-11
-3.636876105e-11
-4.751566175e-11
-5.934214061e-11
-7.174312248e-11
-8.574192999e-11
-9.900972023e-11
-1.138589285e-10
-1.286491092e-10
-1.443595184e-10
-1.605890726e-10
-1.769970391e-10
-1.940687501e-10
-2.115686775e-10
-2.295060409e-10
-2.474813297e-10
-2.656302843e-10
-2.846673231e-10
-3.036578637e-10
-3.231646691e-10
-3.435030349e-10
-3.655578716e-10
-3.891734923e-10
-4.247679892e-10
-4.407870474e-10
-4.431405681e-10
-4.544811855e-10
-4.705463977e-10
-4.880532507e-10
-5.060343011e-10
-5.256915862e-10
-5.474922921e-10
-5.789645833e-10
-5.805416526e-10
-5.834144958e-10
-5.954996347e-10
-6.10047699e-10
-6.274070756e-10
-6.587576703e-10
-6.532012809e-10
-6.606216767e-10
-6.829638123e-10
-6.910840062e-10
-7.098070943e-10
-7.198764671e-10
-7.52193201e-10
-8.240536446e-10
-8.967314761e-10
-9.71197825e-10
-1.046282207e-09
)


101
(
5.014722405e-13
2.128403931e-11
4.894398574e-11
7.057247213e-11
8.418787597e-11
9.002755757e-11
8.875425404e-11
7.892665217e-11
6.335143959e-11
4.270396351e-11
1.974227519e-11
-3.532388386e-12
-2.398026858e-11
-4.052169233e-11
-5.103708626e-11
-5.608234389e-11
-5.700506094e-11
-5.577206779e-11
-5.500092653e-11
-5.612460086e-11
-5.991768494e-11
-6.577960725e-11
-7.310942172e-11
-7.967211189e-11
-8.399320016e-11
-8.51564299e-11
-8.281007191e-11
-7.731914851e-11
-6.908532391e-11
-5.908196472e-11
-4.806813118e-11
-3.703348533e-11
-2.714429176e-11
-1.653627388e-11
-8.825357739e-12
-3.913410091e-12
-1.039267007e-11
-1.668208541e-11
1.450472318e-11
3.083489481e-11
3.743776863e-11
3.911320334e-11
3.846794454e-11
3.660340208e-11
3.409398802e-11
3.066330201e-11
2.645022216e-11
2.10183789e-11
1.468159208e-11
7.153897001e-12
-1.159607448e-12
-1.043330382e-11
-2.059829094e-11
-3.158804882e-11
-4.333896484e-11
-5.578981558e-11
-6.970630944e-11
-8.344561751e-11
-9.841912151e-11
-1.136626731e-10
-1.297164338e-10
-1.464020062e-10
-1.634334055e-10
-1.810453546e-10
-1.991032447e-10
-2.176958307e-10
-2.365128267e-10
-2.555498876e-10
-2.752840269e-10
-2.952314486e-10
-3.156032988e-10
-3.366926728e-10
-3.591321418e-10
-3.832153643e-10
-4.169724695e-10
-4.388880906e-10
-4.480437049e-10
-4.597984467e-10
-4.751100231e-10
-4.930202404e-10
-5.121414749e-10
-5.324702075e-10
-5.545822165e-10
-5.850361702e-10
-5.96412223e-10
-6.021574995e-10
-6.125171044e-10
-6.272111639e-10
-6.442233124e-10
-6.71319163e-10
-6.77752855e-10
-6.839045329e-10
-7.018192077e-10
-7.147668993e-10
-7.287728756e-10
-7.467882237e-10
-7.851402278e-10
-8.47625396e-10
-9.098994357e-10
-9.714313191e-10
-1.032618e-09
)


101
(
5.01484811e-13
2.129648142e-11
4.904790709e-11
7.097276705e-11
8.502670536e-11
9.141702264e-11
9.07870002e-11
8.178236353e-11
6.693870667e-11
4.70118494e-11
2.45520957e-11
1.566819563e-12
-1.895911126e-11
-3.571975165e-11
-4.672558774e-11
-5.214568243e-11
-5.315080219e-11
-5.157812088e-11
-4.992702024e-11
-4.982450019e-11
-5.226135226e-11
-5.69613282e-11
-6.336181639e-11
-6.967403319e-11
-7.428370399e-11
-7.608006282e-11
-7.452026077e-11
-6.972188893e-11
-6.201424903e-11
-5.217316879e-11
-4.096914768e-11
-2.927778097e-11
-1.818999907e-11
-6.908799711e-12
2.556051184e-12
8.96370837e-12
8.262399361e-12
3.806893e-12
2.035955958e-11
4.022856949e-11
5.293555616e-11
5.899699572e-11
6.087463517e-11
6.042156382e-11
5.879521886e-11
5.635769764e-11
5.316741927e-11
4.899666232e-11
4.379420722e-11
3.748951751e-11
3.018843482e-11
2.194022393e-11
1.276829114e-11
2.761663193e-12
-8.060163894e-12
-1.966368433e-11
-3.242956646e-11
-4.582503368e-11
-5.998383379e-11
-7.481377988e-11
-9.029789251e-11
-1.064861266e-10
-1.232297269e-10
-1.404878543e-10
-1.582420761e-10
-1.765988836e-10
-1.953893108e-10
-2.145234159e-10
-2.340414681e-10
-2.540039619e-10
-2.743086855e-10
-2.950373136e-10
-3.16428938e-10
-3.390490921e-10
-3.668084202e-10
-3.94401795e-10
-4.145597843e-10
-4.29262314e-10
-4.431774061e-10
-4.595277635e-10
-4.784359113e-10
-4.984634235e-10
-5.19248156e-10
-5.445511725e-10
-5.679199327e-10
-5.821046553e-10
-5.912672494e-10
-6.039411271e-10
-6.198645444e-10
-6.394345371e-10
-6.587988573e-10
-6.690962905e-10
-6.785898311e-10
-6.94803696e-10
-7.057762473e-10
-7.316012953e-10
-7.779801494e-10
-8.252130581e-10
-8.712673916e-10
-9.156202676e-10
-9.585496395e-10
)


101
(
5.014973814e-13
2.130836612e-11
4.915028475e-11
7.136954358e-11
8.586043551e-11
9.279943765e-11
9.2810269e-11
8.462245733e-11
7.051940821e-11
5.131618597e-11
2.937668686e-11
6.694090026e-12
-1.388836076e-11
-3.088370906e-11
-4.23919573e-11
-4.826239633e-11
-4.946133153e-11
-4.768212321e-11
-4.529809404e-11
-4.407151384e-11
-4.519385572e-11
-4.868901877e-11
-5.409579662e-11
-5.998364546e-11
-6.473692655e-11
-6.708898758e-11
-6.630938617e-11
-6.228384423e-11
-5.522158287e-11
-4.573550372e-11
-3.456610148e-11
-2.248437268e-11
-1.049387707e-11
1.594563089e-12
1.26103946e-11
2.108708494e-11
2.372298424e-11
2.192308403e-11
3.082351093e-11
4.801478384e-11
6.402284043e-11
7.467446499e-11
8.009612178e-11
8.183945558e-11
8.148063592e-11
7.999300348e-11
7.771650853e-11
7.462795149e-11
7.053709888e-11
6.538695995e-11
5.915186671e-11
5.191097861e-11
4.368656235e-11
3.454130938e-11
2.452489887e-11
1.367467773e-11
1.875957379e-12
-1.083438999e-11
-2.432989025e-11
-3.862116108e-11
-5.361993765e-11
-6.931989446e-11
-8.566302534e-11
-1.026128089e-10
-1.201622214e-10
-1.383584198e-10
-1.570630407e-10
-1.762009592e-10
-1.957410938e-10
-2.156990067e-10
-2.361348983e-10
-2.568780053e-10
-2.780182091e-10
-2.996681867e-10
-3.238881159e-10
-3.506456451e-10
-3.7608478e-10
-3.969220298e-10
-4.133697666e-10
-4.289278958e-10
-4.468163159e-10
-4.669182052e-10
-4.875321711e-10
-5.096234249e-10
-5.337517036e-10
-5.558353406e-10
-5.707131505e-10
-5.823302067e-10
-5.975892963e-10
-6.155870613e-10
-6.342282425e-10
-6.521826247e-10
-6.628328982e-10
-6.764544931e-10
-6.915684254e-10
-7.166263744e-10
-7.633657423e-10
-8.026871804e-10
-8.412231726e-10
-8.822455369e-10
-9.226663526e-10
)


101
(
5.015099984e-13
2.131967996e-11
4.925110078e-11
7.176277936e-11
8.668904782e-11
9.41748374e-11
9.482420374e-11
8.744758253e-11
7.409414133e-11
5.561959442e-11
3.42203543e-11
1.185881016e-11
-8.75339663e-12
-2.59869389e-11
-3.800152218e-11
-4.43807035e-11
-4.587185702e-11
-4.400943582e-11
-4.103001503e-11
-3.878286869e-11
-3.863688742e-11
-4.089212051e-11
-4.522998144e-11
-5.052706098e-11
-5.524918275e-11
-5.803498346e-11
-5.798405121e-11
-5.476055971e-11
-4.842470114e-11
-3.943505162e-11
-2.845562296e-11
-1.623563545e-11
-3.638763177e-12
9.17987117e-12
2.145237786e-11
3.215008219e-11
3.738290358e-11
3.825288321e-11
4.370976117e-11
5.695316969e-11
7.323901437e-11
8.716699936e-11
9.640335041e-11
1.011450594e-10
1.026790374e-10
1.023473321e-10
1.009611602e-10
9.881130208e-11
9.578133274e-11
9.173454562e-11
8.658049703e-11
8.035085477e-11
7.308463236e-11
6.484339162e-11
5.56612486e-11
4.554015792e-11
3.455539356e-11
2.260405682e-11
9.808481752e-12
-3.86727331e-12
-1.836122174e-11
-3.35819566e-11
-4.95232321e-11
-6.61158912e-11
-8.334805828e-11
-1.012628599e-10
-1.197927588e-10
-1.388154546e-10
-1.583540083e-10
-1.782851523e-10
-1.987661081e-10
-2.19659659e-10
-2.409559694e-10
-2.624801189e-10
-2.850429941e-10
-3.096617119e-10
-3.35640119e-10
-3.603798002e-10
-3.813054116e-10
-3.98609737e-10
-4.157858813e-10
-4.352647658e-10
-4.563171967e-10
-4.77762783e-10
-5.003226144e-10
-5.239528896e-10
-5.451371125e-10
-5.600420755e-10
-5.742381621e-10
-5.916564724e-10
-6.099791579e-10
-6.288410293e-10
-6.451321217e-10
-6.584986349e-10
-6.745546924e-10
-6.991575444e-10
-7.416795993e-10
-7.803628452e-10
-8.179014809e-10
-8.518799585e-10
-8.848189185e-10
)


101
(
5.01522523e-13
2.133040207e-11
4.935031655e-11
7.215242262e-11
8.751248239e-11
9.55432046e-11
9.682887256e-11
9.025819872e-11
7.766320461e-11
5.992394369e-11
3.908610856e-11
1.706853804e-11
-3.542706406e-12
-2.100709721e-11
-3.352419138e-11
-4.045643355e-11
-4.232454965e-11
-4.049309556e-11
-3.705212221e-11
-3.389051499e-11
-3.252907465e-11
-3.352168466e-11
-3.671812964e-11
-4.126844937e-11
-4.577942973e-11
-4.884667335e-11
-4.943076618e-11
-4.699970046e-11
-4.14452036e-11
-3.30675533e-11
-2.241732876e-11
-1.023468301e-11
2.726442953e-12
1.611704798e-11
2.931392844e-11
4.136827153e-11
4.948901984e-11
5.305633813e-11
5.744980163e-11
6.747364769e-11
8.225655628e-11
9.764120546e-11
1.10080089e-10
1.181603451e-10
1.222303122e-10
1.235077012e-10
1.231624632e-10
1.219148791e-10
1.198771257e-10
1.168970421e-10
1.128351713e-10
1.076449467e-10
1.013602229e-10
9.404310452e-11
8.575610384e-11
7.647750605e-11
6.625134881e-11
5.505619516e-11
4.296100991e-11
2.997054755e-11
1.61002675e-11
1.420440842e-12
-1.404714182e-11
-3.02596628e-11
-4.714751919e-11
-6.469858556e-11
-8.294242356e-11
-1.018017454e-10
-1.212459412e-10
-1.41159588e-10
-1.615304947e-10
-1.82402214e-10
-2.037784707e-10
-2.255021592e-10
-2.476732957e-10
-2.709113196e-10
-2.956464795e-10
-3.21352287e-10
-3.456923136e-10
-3.663966376e-10
-3.844389132e-10
-4.030818804e-10
-4.240360541e-10
-4.459085962e-10
-4.680315091e-10
-4.909675601e-10
-5.142723115e-10
-5.341442515e-10
-5.496539319e-10
-5.667127413e-10
-5.855210263e-10
-6.044761938e-10
-6.228931147e-10
-6.379961477e-10
-6.543941882e-10
-6.805715991e-10
-7.218523461e-10
-7.56521531e-10
-7.899025393e-10
-8.175178024e-10
-8.441813871e-10
)


101
(
5.01535092e-13
2.134051547e-11
4.944791936e-11
7.253845975e-11
8.833077108e-11
9.690477909e-11
9.882491289e-11
9.305544135e-11
8.122688078e-11
6.423020664e-11
4.397548023e-11
2.232702751e-11
1.750754914e-12
-1.593023471e-11
-2.894009563e-11
-3.645862108e-11
-3.87805212e-11
-3.70889386e-11
-3.331800207e-11
-2.935506592e-11
-2.684338453e-11
-2.656825696e-11
-2.856394752e-11
-3.222974836e-11
-3.635379312e-11
-3.95389769e-11
-4.063735291e-11
-3.894928741e-11
-3.419686414e-11
-2.651836652e-11
-1.63448832e-11
-4.327340577e-12
8.807998784e-12
2.262004454e-11
3.657234921e-11
4.982324708e-11
6.025755549e-11
6.651627767e-11
7.138058788e-11
7.934497823e-11
9.200308047e-11
1.072722014e-10
1.21777166e-10
1.329749773e-10
1.400090637e-10
1.434661003e-10
1.44514128e-10
1.44227461e-10
1.430911351e-10
1.411090772e-10
1.381253466e-10
1.340049655e-10
1.287502813e-10
1.224041997e-10
1.150321987e-10
1.066495304e-10
9.728290563e-11
8.688920567e-11
7.55204431e-11
6.322542672e-11
5.003752947e-11
3.595573822e-11
2.104733617e-11
5.317399893e-12
-1.117500125e-11
-2.835243059e-11
-4.624925603e-11
-6.481266996e-11
-8.402340259e-11
-1.038624451e-10
-1.241307598e-10
-1.448967372e-10
-1.661916865e-10
-1.879981006e-10
-2.102000486e-10
-2.329661674e-10
-2.566690124e-10
-2.817175522e-10
-3.072329161e-10
-3.309858329e-10
-3.514617943e-10
-3.703351834e-10
-3.906461145e-10
-4.127935448e-10
-4.352921409e-10
-4.580348801e-10
-4.814397373e-10
-5.039760412e-10
-5.225096021e-10
-5.398102233e-10
-5.588923607e-10
-5.787690251e-10
-5.983312595e-10
-6.151954689e-10
-6.326544381e-10
-6.593896951e-10
-6.984486137e-10
-7.259107471e-10
-7.527181636e-10
-7.79815928e-10
-8.069868668e-10
)


101
(
5.015476619e-13
2.13499994e-11
4.954387672e-11
7.29208467e-11
8.914391945e-11
9.825986863e-11
1.00813365e-10
9.584135774e-11
8.478597891e-11
6.853980095e-11
4.889053885e-11
2.763911147e-11
7.135371341e-12
-1.074086694e-11
-2.42277495e-11
-3.23546962e-11
-3.519880129e-11
-3.375109462e-11
-2.978021027e-11
-2.513608428e-11
-2.155188359e-11
-2.002124158e-11
-2.077576736e-11
-2.34385955e-11
-2.700630529e-11
-3.013950108e-11
-3.161312932e-11
-3.058411449e-11
-2.661575577e-11
-1.968624392e-11
-1.009191166e-11
1.619776689e-12
1.476676384e-11
2.88501302e-11
4.337968886e-11
5.763557287e-11
6.99605926e-11
7.8739504e-11
8.499139128e-11
9.210804516e-11
1.028021666e-10
1.169721339e-10
1.322897482e-10
1.459050244e-10
1.559411656e-10
1.620462356e-10
1.649731545e-10
1.658983508e-10
1.656888926e-10
1.646425589e-10
1.626677695e-10
1.596213344e-10
1.554346374e-10
1.50089504e-10
1.436568706e-10
1.362044596e-10
1.277464154e-10
1.182203956e-10
1.076786635e-10
9.614447149e-11
8.366168592e-11
7.023509336e-11
5.591198613e-11
4.074886795e-11
2.475462962e-11
8.023915175e-12
-9.436496775e-12
-2.761594535e-11
-4.650038236e-11
-6.611830323e-11
-8.627863392e-11
-1.069574978e-10
-1.281038081e-10
-1.498097447e-10
-1.720307113e-10
-1.947225338e-10
-2.179853184e-10
-2.42206635e-10
-2.674827492e-10
-2.92770736e-10
-3.159032166e-10
-3.363217553e-10
-3.563193987e-10
-3.782348017e-10
-4.011831391e-10
-4.242996333e-10
-4.476364727e-10
-4.71190856e-10
-4.925320159e-10
-5.110668499e-10
-5.304728537e-10
-5.511440229e-10
-5.717824502e-10
-5.90396561e-10
-6.091132399e-10
-6.351672826e-10
-6.734378298e-10
-6.97385193e-10
-7.204920738e-10
-7.418542929e-10
-7.620120569e-10
)


101
(
5.015603252e-13
2.135883969e-11
4.963816797e-11
7.329957804e-11
8.995192412e-11
9.960855386e-11
1.027946585e-10
9.861713074e-11
8.83408426e-11
7.285337922e-11
5.383189027e-11
3.300775159e-11
1.261666163e-11
-5.426765567e-12
-1.936962505e-11
-2.811688523e-11
-3.154123943e-11
-3.043515665e-11
-2.639230194e-11
-2.11930258e-11
-1.662607431e-11
-1.386731375e-11
-1.335599125e-11
-1.491145316e-11
-1.775320412e-11
-2.064874876e-11
-2.233922024e-11
-2.186312578e-11
-1.863656755e-11
-1.248282577e-11
-3.555742936e-12
7.717202869e-12
2.072259795e-11
3.492733824e-11
4.984579635e-11
6.488357552e-11
7.87442703e-11
8.980644356e-11
9.795225837e-11
1.052857682e-10
1.146267835e-10
1.272918934e-10
1.423568804e-10
1.574256792e-10
1.700933991e-10
1.790559437e-10
1.843339829e-10
1.868813018e-10
1.877677489e-10
1.876480448e-10
1.866440263e-10
1.846727803e-10
1.815799817e-10
1.772900409e-10
1.718521627e-10
1.653351973e-10
1.577976694e-10
1.49170013e-10
1.39517467e-10
1.288407167e-10
1.171572576e-10
1.044814142e-10
9.083212805e-11
7.62829104e-11
6.085904558e-11
4.463349965e-11
2.766617216e-11
9.922698535e-12
-8.562355429e-12
-2.783604713e-11
-4.777898132e-11
-6.829381285e-11
-8.930820621e-11
-1.108515809e-10
-1.329681936e-10
-1.556035654e-10
-1.787651837e-10
-2.025502884e-10
-2.272272788e-10
-2.527367299e-10
-2.77644874e-10
-3.001660228e-10
-3.208393879e-10
-3.423215332e-10
-3.654545004e-10
-3.891337384e-10
-4.126612095e-10
-4.366414255e-10
-4.59762925e-10
-4.801913001e-10
-5.003264608e-10
-5.216620263e-10
-5.430214764e-10
-5.633544246e-10
-5.830414263e-10
-6.095993302e-10
-6.469916816e-10
-6.67565833e-10
-6.871679583e-10
-7.036701535e-10
-7.179869265e-10
)


101
(
5.015728951e-13
2.136700194e-11
4.973074615e-11
7.367463727e-11
9.075481738e-11
1.00950853e-10
1.047686403e-10
1.013825788e-10
9.189178126e-11
7.717215315e-11
5.880000041e-11
3.84336312e-11
1.819637712e-11
1.857033494e-14
-1.435425566e-11
-2.372471448e-11
-2.777727801e-11
-2.710306378e-11
-2.311325795e-11
-1.749047568e-11
-1.204348539e-11
-8.097315121e-12
-6.299712587e-12
-6.659724299e-12
-8.610582102e-12
-1.107022576e-11
-1.280064925e-11
-1.275312997e-11
-1.0207099e-11
-4.833551862e-12
3.355518349e-12
1.405846015e-11
2.675824556e-11
4.093385521e-11
5.606578324e-11
7.16666209e-11
8.67449762e-11
9.980982258e-11
1.100556877e-10
1.184286177e-10
1.272315512e-10
1.384809993e-10
1.526013618e-10
1.681402976e-10
1.827590056e-10
1.944725251e-10
2.02428285e-10
2.070341057e-10
2.092994918e-10
2.101936702e-10
2.101579816e-10
2.09237726e-10
2.072598798e-10
2.041020283e-10
1.997076011e-10
1.941687507e-10
1.875968289e-10
1.799152612e-10
1.711908724e-10
1.614239682e-10
1.506085549e-10
1.387545749e-10
1.25900012e-10
1.120576119e-10
9.726183882e-11
8.157142589e-11
6.511714383e-11
4.787660802e-11
2.988897469e-11
1.110093975e-11
-8.47502688e-12
-2.872834537e-11
-4.957938145e-11
-7.095609038e-11
-9.287821995e-11
-1.153982337e-10
-1.385013286e-10
-1.621146741e-10
-1.863712933e-10
-2.115092924e-10
-2.370946684e-10
-2.614043021e-10
-2.835499983e-10
-3.050322676e-10
-3.280604717e-10
-3.521957842e-10
-3.76265212e-10
-4.005203347e-10
-4.247192717e-10
-4.469143922e-10
-4.679358441e-10
-4.89882749e-10
-5.121626149e-10
-5.339817796e-10
-5.547195717e-10
-5.818230275e-10
-6.168324004e-10
-6.336808839e-10
-6.497906344e-10
-6.638556653e-10
-6.783313951e-10
)


101
(
5.015853008e-13
2.137445921e-11
4.982156924e-11
7.404599246e-11
9.155261397e-11
1.022867987e-10
1.067351819e-10
1.041373835e-10
9.543902538e-11
8.149774325e-11
6.379552329e-11
4.391723639e-11
2.387544355e-11
5.599868542e-12
-9.172056497e-12
-1.915998341e-11
-2.387903458e-11
-2.371928185e-11
-1.990290001e-11
-1.399140049e-11
-7.780114799e-12
-2.704209901e-12
3.951939382e-13
1.300112404e-12
3.910463768e-13
-1.435930905e-12
-3.018920345e-12
-3.255308126e-12
-1.300994152e-12
3.320559511e-12
1.073729332e-11
2.077089564e-11
3.301354947e-11
4.701128228e-11
6.220739791e-11
7.816708685e-11
9.414302369e-11
1.088605435e-10
1.211770868e-10
1.311407234e-10
1.402553294e-10
1.505889823e-10
1.635115225e-10
1.787045163e-10
1.944161002e-10
2.084380495e-10
2.191492293e-10
2.261904868e-10
2.302313446e-10
2.323555591e-10
2.333161325e-10
2.333959302e-10
2.325150262e-10
2.305047524e-10
2.272304101e-10
2.227842957e-10
2.172161059e-10
2.105400288e-10
2.027734392e-10
1.939589031e-10
1.840833736e-10
1.731209621e-10
1.611269721e-10
1.480859142e-10
1.340327599e-10
1.189944859e-10
1.030960686e-10
8.641873236e-11
6.898540215e-11
5.073873208e-11
3.165090503e-11
1.177228576e-11
-8.778476789e-12
-2.992307422e-11
-5.16248018e-11
-7.395516127e-11
-9.689766439e-11
-1.203846258e-10
-1.444866999e-10
-1.692480569e-10
-1.947449462e-10
-2.201100585e-10
-2.43840723e-10
-2.660165515e-10
-2.888890881e-10
-3.132918718e-10
-3.380409537e-10
-3.626162796e-10
-3.874405112e-10
-4.111804594e-10
-4.332809759e-10
-4.559206415e-10
-4.791619336e-10
-5.021903302e-10
-5.24013537e-10
-5.513205115e-10
-5.851975531e-10
-5.98482756e-10
-6.110146912e-10
-6.215334803e-10
-6.327389585e-10
)


101
(
5.01597946e-13
2.138120491e-11
4.991063959e-11
7.441365302e-11
9.23453008e-11
1.036163376e-10
1.086941098e-10
1.068814148e-10
9.89824755e-11
8.583041486e-11
6.881771922e-11
4.945838754e-11
2.965457914e-11
1.132152593e-11
-3.813647977e-12
-1.440486662e-11
-1.981722003e-11
-2.02452498e-11
-1.671557014e-11
-1.064959058e-11
-3.803899297e-12
2.317979363e-12
6.705316623e-12
8.919270811e-12
9.1643834e-12
8.143517356e-12
6.905334276e-12
6.561599394e-12
8.054260814e-12
1.199302037e-11
1.864662111e-11
2.796521209e-11
3.965107253e-11
5.333576867e-11
6.845558192e-11
8.458937586e-11
1.011588399e-10
1.171394127e-10
1.313279019e-10
1.431739474e-10
1.533287693e-10
1.634549314e-10
1.75337295e-10
1.896706734e-10
2.05608775e-10
2.212232273e-10
2.344645477e-10
2.44181488e-10
2.504260029e-10
2.541127607e-10
2.562011856e-10
2.572732045e-10
2.574447821e-10
2.565750468e-10
2.545021951e-10
2.512088867e-10
2.467205713e-10
2.410821161e-10
2.343246639e-10
2.2649652e-10
2.176107763e-10
2.076215213e-10
1.965584258e-10
1.844144793e-10
1.712133678e-10
1.569849101e-10
1.417508167e-10
1.256779999e-10
1.088278686e-10
9.117178636e-11
7.268012421e-11
5.332985611e-11
3.317024388e-11
1.232560125e-11
-9.111233382e-12
-3.114352381e-11
-5.382570102e-11
-7.714173387e-11
-1.010833263e-10
-1.256163356e-10
-1.508422703e-10
-1.765485644e-10
-2.014961202e-10
-2.248039856e-10
-2.4776496e-10
-2.721290896e-10
-2.974789689e-10
-3.225847888e-10
-3.478061974e-10
-3.728475601e-10
-3.961752179e-10
-4.194681851e-10
-4.435839325e-10
-4.67772671e-10
-4.908157018e-10
-5.180036725e-10
-5.503070219e-10
-5.604275582e-10
-5.696017394e-10
-5.756248683e-10
-5.811363907e-10
)


101
(
5.016105704e-13
2.138720072e-11
4.999790292e-11
7.477754312e-11
9.313276175e-11
1.049392773e-10
1.106448713e-10
1.096139986e-10
1.025226174e-10
9.017105389e-11
7.38649587e-11
5.505595163e-11
3.553334752e-11
1.718522862e-11
1.726643797e-12
-9.445720705e-12
-1.556345291e-11
-1.663759164e-11
-1.349872739e-11
-7.411944291e-12
-7.838913282e-14
6.973022339e-12
1.259354123e-11
1.613770227e-11
1.762065092e-11
1.755605231e-11
1.68627865e-11
1.661463647e-11
1.781356142e-11
2.117855315e-11
2.711518436e-11
3.57123033e-11
4.678756171e-11
6.005277389e-11
7.496670859e-11
9.111143935e-11
1.080128363e-10
1.248812038e-10
1.406260911e-10
1.543903967e-10
1.660955925e-10
1.767547884e-10
1.880787948e-10
2.014177734e-10
2.168925221e-10
2.332625187e-10
2.485049035e-10
2.608738624e-10
2.696608701e-10
2.753198307e-10
2.787913126e-10
2.809319096e-10
2.821388835e-10
2.823897579e-10
2.815249981e-10
2.794103974e-10
2.761002828e-10
2.715702429e-10
2.65905025e-10
2.591101088e-10
2.512572665e-10
2.42290777e-10
2.322292761e-10
2.210732336e-10
2.088299631e-10
1.955132921e-10
1.811078526e-10
1.657413669e-10
1.495175233e-10
1.325014805e-10
1.146617015e-10
9.595670703e-11
7.633755745e-11
5.591263865e-11
3.480781628e-11
1.310157319e-11
-9.248466086e-12
-3.22748815e-11
-5.598326255e-11
-8.031792172e-11
-1.053092082e-10
-1.309320603e-10
-1.565826876e-10
-1.810789282e-10
-2.044914634e-10
-2.286976447e-10
-2.544019299e-10
-2.801961516e-10
-3.05896965e-10
-3.317129841e-10
-3.563859697e-10
-3.803938386e-10
-4.052756246e-10
-4.304888683e-10
-4.548238647e-10
-4.821089905e-10
-5.128542955e-10
-5.185786065e-10
-5.23582275e-10
-5.262552175e-10
-5.289372928e-10
)


101
(
5.016233278e-13
2.139242639e-11
5.008333379e-11
7.513763016e-11
9.391492809e-11
1.062555281e-10
1.125871285e-10
1.123345179e-10
1.060594605e-10
9.452064164e-11
7.893582162e-11
6.070842232e-11
4.151092806e-11
2.319183208e-11
7.453213978e-12
-4.271042899e-12
-1.109316589e-11
-1.285536981e-11
-1.020055942e-11
-4.220638685e-12
3.446288527e-12
1.128705782e-11
1.805323711e-11
2.292607168e-11
2.572229659e-11
2.675599206e-11
2.679672236e-11
2.684443962e-11
2.792560625e-11
3.084857575e-11
3.614533141e-11
4.403850225e-11
5.446519872e-11
6.722954176e-11
8.183000984e-11
9.785453247e-11
1.148853514e-10
1.323205035e-10
1.492621862e-10
1.647660401e-10
1.782656683e-10
1.900883533e-10
2.015179773e-10
2.141076542e-10
2.287589597e-10
2.451186581e-10
2.616166903e-10
2.762856358e-10
2.877369811e-10
2.957413065e-10
3.009516591e-10
3.043502259e-10
3.066309278e-10
3.07976138e-10
3.082978696e-10
3.074200701e-10
3.053422721e-10
3.020172968e-10
2.975028895e-10
2.918182459e-10
2.85053206e-10
2.771649738e-10
2.68150613e-10
2.580496029e-10
2.468678365e-10
2.345441758e-10
2.211043351e-10
2.065755547e-10
1.910971501e-10
1.747835505e-10
1.576334259e-10
1.396371517e-10
1.207099627e-10
1.008704693e-10
8.021119049e-11
5.885045858e-11
3.688083978e-11
1.423274511e-11
-9.161795702e-12
-3.322961926e-11
-5.800295337e-11
-8.342409713e-11
-1.092877684e-10
-1.346748211e-10
-1.589076295e-10
-1.831250154e-10
-2.088351578e-10
-2.352336107e-10
-2.615414661e-10
-2.878353947e-10
-3.137032665e-10
-3.384868501e-10
-3.643379172e-10
-3.90400615e-10
-4.159953936e-10
-4.433515728e-10
-4.728244649e-10
-4.747450245e-10
-4.759167083e-10
-4.75061218e-10
-4.705259301e-10
)


101
(
5.016360828e-13
2.139684544e-11
5.016686405e-11
7.549382324e-11
9.46916289e-11
1.075648519e-10
1.145206956e-10
1.150425227e-10
1.095919553e-10
9.887887406e-11
8.403097099e-11
6.641343517e-11
4.758621624e-11
2.934413617e-11
1.337366139e-11
1.133556875e-12
-6.385795547e-12
-8.86968254e-12
-6.785010085e-12
-1.043815788e-12
6.805910741e-12
1.529335774e-11
2.310860292e-11
2.928158195e-11
3.344180043e-11
3.570158196e-11
3.665400775e-11
3.719117286e-11
3.833133429e-11
4.095770106e-11
4.572053868e-11
5.295839047e-11
6.271474179e-11
7.49136118e-11
8.911316207e-11
1.04917966e-10
1.219329614e-10
1.396807145e-10
1.574643654e-10
1.743987866e-10
1.896848929e-10
2.030799013e-10
2.152790196e-10
2.276423878e-10
2.414965258e-10
2.573212645e-10
2.742900821e-10
2.906481477e-10
3.04587115e-10
3.151550809e-10
3.224949545e-10
3.274550165e-10
3.309220761e-10
3.333681287e-10
3.348610755e-10
3.35245572e-10
3.344346336e-10
3.323817199e-10
3.290856447e-10
3.245859567e-10
3.189506175e-10
3.122043155e-10
3.043097955e-10
2.953276411e-10
2.852510615e-10
2.740171976e-10
2.616462552e-10
2.481079221e-10
2.335393253e-10
2.180076179e-10
2.016038906e-10
1.84357654e-10
1.662059476e-10
1.471197056e-10
1.270891091e-10
1.061821776e-10
8.459243106e-11
6.232218194e-11
3.938046495e-11
1.565628517e-11
-8.847954326e-12
-3.40430124e-11
-5.985328202e-11
-8.571062874e-11
-1.10766452e-10
-1.352980075e-10
-1.609010167e-10
-1.876613888e-10
-2.146334383e-10
-2.414266762e-10
-2.682690043e-10
-2.938664265e-10
-3.2062387e-10
-3.476462348e-10
-3.743477733e-10
-4.019142011e-10
-4.30654405e-10
-4.289085455e-10
-4.264863493e-10
-4.225434537e-10
-4.192619392e-10
)


101
(
5.016482783e-13
2.14003991e-11
5.024838505e-11
7.584596405e-11
9.546263399e-11
1.088669379e-10
1.164452945e-10
1.177374273e-10
1.13118878e-10
1.032450366e-10
8.915188154e-11
7.216791164e-11
5.375668954e-11
3.564448747e-11
1.949555726e-11
6.78298274e-12
-1.421787285e-12
-4.657682106e-12
-3.223643607e-12
2.137510792e-12
1.002613182e-11
1.901988114e-11
2.778572251e-11
3.520839057e-11
4.075307481e-11
4.434279421e-11
4.636887137e-11
4.758808073e-11
4.897892516e-11
5.147200105e-11
5.581894112e-11
6.246943516e-11
7.156678447e-11
8.315828207e-11
9.688663801e-11
1.123933008e-10
1.292892003e-10
1.471604865e-10
1.654735855e-10
1.834844754e-10
2.003473942e-10
2.154599309e-10
2.289475816e-10
2.417170175e-10
2.551230088e-10
2.702276159e-10
2.870315094e-10
3.043490251e-10
3.203196903e-10
3.334448647e-10
3.432213721e-10
3.501004602e-10
3.549686444e-10
3.585847054e-10
3.612291598e-10
3.628427996e-10
3.633289626e-10
3.625905064e-10
3.605904792e-10
3.573414287e-10
3.529082423e-10
3.473546666e-10
3.406654234e-10
3.328671307e-10
3.239284871e-10
3.138806591e-10
3.026572245e-10
2.902436395e-10
2.766930705e-10
2.620721436e-10
2.46524768e-10
2.300815372e-10
2.127567015e-10
1.945195752e-10
1.752937182e-10
1.55036891e-10
1.338624533e-10
1.120295517e-10
8.953133411e-11
6.625393619e-11
4.217500622e-11
1.726462062e-11
-8.42038663e-12
-3.441655235e-11
-6.008058857e-11
-8.508618703e-11
-1.107039878e-10
-1.375863195e-10
-1.651855123e-10
-1.925932257e-10
-2.201589191e-10
-2.46794576e-10
-2.741264227e-10
-3.022244962e-10
-3.299942948e-10
-3.578018705e-10
-3.854670643e-10
-3.803238033e-10
-3.746185144e-10
-3.679975651e-10
-3.636589511e-10
)


101
(
5.016608474e-13
2.140309169e-11
5.032806689e-11
7.619410864e-11
9.622800177e-11
1.10161894e-10
1.183610284e-10
1.204190092e-10
1.166382635e-10
1.076174226e-10
9.429913627e-11
7.79702009e-11
6.001946205e-11
4.209275816e-11
2.582229708e-11
1.268710744e-11
3.817798285e-12
-1.909003017e-13
5.254381577e-13
5.372271006e-12
1.316053584e-11
2.25154952e-11
3.211286774e-11
4.0710487e-11
4.762421649e-11
5.260972988e-11
5.58516098e-11
5.794705892e-11
5.980014299e-11
6.234867538e-11
6.641068167e-11
7.254944564e-11
8.102593389e-11
9.199412682e-11
1.051992636e-10
1.203443044e-10
1.370473601e-10
1.549118077e-10
1.735067579e-10
1.922485048e-10
2.103667635e-10
2.271156245e-10
2.421779061e-10
2.559232828e-10
2.694198365e-10
2.839620471e-10
3.002411862e-10
3.178223733e-10
3.351905424e-10
3.506035212e-10
3.629324261e-10
3.720594717e-10
3.786395774e-10
3.835721547e-10
3.873936165e-10
3.90213741e-10
3.919929438e-10
3.925871261e-10
3.919402858e-10
3.90014946e-10
3.868730942e-10
3.825659656e-10
3.771439117e-10
3.705817043e-10
3.628539577e-10
3.540442599e-10
3.440378674e-10
3.328318691e-10
3.204166496e-10
3.068741937e-10
2.923052679e-10
2.767412311e-10
2.602942998e-10
2.429382744e-10
2.246085165e-10
2.052161313e-10
1.847133494e-10
1.633555867e-10
1.412708434e-10
1.185155489e-10
9.49848959e-11
7.043194704e-11
4.501932231e-11
1.906147856e-11
-6.992480338e-12
-3.249903713e-11
-5.828139853e-11
-8.519302777e-11
-1.132630353e-10
-1.413268022e-10
-1.693891665e-10
-1.972054897e-10
-2.251023553e-10
-2.541354702e-10
-2.831334667e-10
-3.110297224e-10
-3.373556904e-10
-3.294458928e-10
-3.209409964e-10
-3.113779907e-10
-2.991206439e-10
)


101
(
5.016737901e-13
2.140488652e-11
5.040571797e-11
7.653817421e-11
9.69876101e-11
1.114496212e-10
1.202678048e-10
1.23086971e-10
1.201463808e-10
1.119905128e-10
9.947243806e-11
8.382051525e-11
6.637302066e-11
4.868602558e-11
3.234925133e-11
1.884148943e-11
9.337164395e-12
4.549858437e-12
4.502470071e-12
8.741876596e-12
1.62942709e-11
2.585793828e-11
3.613101175e-11
4.580224977e-11
5.403620594e-11
6.044305033e-11
6.501579044e-11
6.817103406e-11
7.070221142e-11
7.351133444e-11
7.744623304e-11
8.317333255e-11
9.108659372e-11
1.014394599e-10
1.140837675e-10
1.288050998e-10
1.452482502e-10
1.630151759e-10
1.817209029e-10
2.009089645e-10
2.199434615e-10
2.380842114e-10
2.547597634e-10
2.698735604e-10
2.840371103e-10
2.984302458e-10
3.141409321e-10
3.314738836e-10
3.495633403e-10
3.667642013e-10
3.815236596e-10
3.931052792e-10
4.017254816e-10
4.082030627e-10
4.132952092e-10
4.173499609e-10