/*--------------------------------*- C++ -*----------------------------------*\
| =========                 |                                                 |
| \\      /  F ield         | OpenFOAM: The Open Source CFD Toolbox           |
|  \\    /   O peration     | Version:  2.3.1                                 |
|   \\  /    A nd           | Web:      www.OpenFOAM.org                      |
|    \\/     M anipulation  |                                                 |
\*---------------------------------------------------------------------------*/
FoamFile
{
    version     2.0;
    format      ascii;
    class       dictionary;
    location    "constant";
    object      DPSI26;
}
// * * * * * * * * * * * * * * * * * * * * * * * * * * * * * * * * * * * * * //

DPSI26_table
101
(

101
(
-1.782297443e-22
-3.127358828e-20
-7.578427765e-19
-6.279151137e-18
-2.832752359e-17
-8.857496697e-17
-2.378114511e-16
-5.6105264e-16
-1.186048552e-15
-2.264501204e-15
-3.922018881e-15
-6.147249789e-15
-8.856994432e-15
-1.170081102e-14
-1.412250139e-14
-1.568924405e-14
-1.595876017e-14
-1.48777192e-14
-1.237753819e-14
-8.913852563e-15
-5.239072052e-15
-1.371151564e-15
2.211159996e-15
5.01648419e-15
7.078396192e-15
8.428653893e-15
9.151059705e-15
9.374861051e-15
9.216898245e-15
8.787975202e-15
8.198495374e-15
7.568516676e-15
6.815365184e-15
6.038190828e-15
5.371946114e-15
3.120854002e-15
-1.63298971e-16
1.53700296e-15
4.279530552e-15
3.675412578e-15
3.196568612e-15
2.77760412e-15
2.385696695e-15
2.066614695e-15
1.782979723e-15
1.531141865e-15
1.313619293e-15
1.122212316e-15
9.589564425e-16
8.171154534e-16
6.972542507e-16
5.935050168e-16
5.050713676e-16
4.268785909e-16
3.602360609e-16
3.015195127e-16
2.527296342e-16
2.124773211e-16
1.765836263e-16
1.469255797e-16
1.214164811e-16
1.010474084e-16
8.368203647e-17
6.768978727e-17
5.434273962e-17
4.407172494e-17
3.535962331e-17
2.808496042e-17
2.221009503e-17
1.744492577e-17
1.35454479e-17
1.039535132e-17
7.893581737e-18
4.529988177e-18
2.445165144e-18
3.390550369e-18
3.506598959e-18
2.460083202e-18
1.725237858e-18
1.189317357e-18
7.827333492e-19
5.034723397e-19
2.666220653e-19
1.346790769e-19
1.444318497e-19
1.193630441e-19
6.686981708e-20
3.626211633e-20
1.555345827e-20
7.983920994e-21
7.623241837e-21
3.667243041e-21
1.39525468e-21
5.510683088e-22
2.722211855e-22
1.068133984e-22
1.987764042e-23
-2.090439138e-29
1.395995531e-39
1.741135236e-39
-3.09924266e-39
)


101
(
8.953043721e-22
-1.8345509e-20
-6.469884511e-19
-5.682319913e-18
-2.600341662e-17
-8.149431841e-17
-2.187153517e-16
-5.161572524e-16
-1.091970487e-15
-2.088298847e-15
-3.626027194e-15
-5.706399078e-15
-8.258171614e-15
-1.098288858e-14
-1.337817819e-14
-1.502249222e-14
-1.550658209e-14
-1.471587698e-14
-1.259247245e-14
-9.472625374e-15
-5.976162101e-15
-2.285574772e-15
1.21056924e-15
4.099756666e-15
6.306085682e-15
7.833595661e-15
8.738165616e-15
9.123265527e-15
9.103732738e-15
8.787677853e-15
8.281735166e-15
7.717229966e-15
7.043970534e-15
6.339887119e-15
5.766577195e-15
4.500219548e-15
2.379660183e-15
2.129523095e-15
3.310466016e-15
3.465855978e-15
3.116274358e-15
2.72218869e-15
2.347569199e-15
2.031005872e-15
1.756268854e-15
1.514985771e-15
1.307442818e-15
1.126046225e-15
9.69208104e-16
8.333432716e-16
7.166545903e-16
6.158328875e-16
5.307710959e-16
4.570183433e-16
3.906594776e-16
3.317421532e-16
2.818060087e-16
2.399734035e-16
2.037465104e-16
1.728939668e-16
1.462837776e-16
1.236843183e-16
1.045172766e-16
8.783325316e-17
7.310439748e-17
6.063882618e-17
5.030388163e-17
4.151199674e-17
3.401350672e-17
2.763355103e-17
2.231632853e-17
1.790119975e-17
1.430921722e-17
1.109476547e-17
8.271827061e-18
6.421583492e-18
5.158554594e-18
4.010307442e-18
3.028275407e-18
2.238051452e-18
1.616027124e-18
1.142751093e-18
7.813165953e-19
5.144954139e-19
3.407028576e-19
2.283616617e-19
1.505292622e-19
9.57685072e-20
5.742576446e-20
3.325756171e-20
1.920300506e-20
1.088940056e-20
6.026015593e-21
3.078780826e-21
1.504085013e-21
7.797576238e-22
2.28183391e-22
-1.190434502e-22
-3.704912592e-22
-1.080004361e-21
-1.628043125e-21
)


101
(
1.749754623e-21
-6.992498489e-21
-5.471049641e-19
-5.14010086e-18
-2.389683326e-17
-7.513305459e-17
-2.017314196e-16
-4.767146759e-16
-1.010680339e-15
-1.939381822e-15
-3.383334675e-15
-5.360504094e-15
-7.818280903e-15
-1.050859254e-14
-1.298172874e-14
-1.482687393e-14
-1.565056329e-14
-1.527472248e-14
-1.362203109e-14
-1.091903752e-14
-7.650872423e-15
-4.100018487e-15
-6.136244171e-16
2.453021397e-15
4.93779358e-15
6.794777465e-15
8.04252955e-15
8.746023375e-15
9.007419463e-15
8.928103778e-15
8.605725304e-15
8.187012745e-15
7.622460188e-15
7.022558252e-15
6.529184599e-15
5.56202537e-15
4.078648667e-15
3.344751891e-15
3.551906579e-15
3.702482582e-15
3.544178373e-15
3.215219678e-15
2.833759823e-15
2.500236282e-15
2.204289027e-15
1.93689058e-15
1.706076211e-15
1.50331431e-15
1.324215753e-15
1.166701993e-15
1.028043975e-15
9.044268089e-16
7.956613021e-16
7.01593638e-16
6.182467119e-16
5.427710238e-16
4.752213202e-16
4.151488573e-16
3.623941124e-16
3.160208475e-16
2.750129461e-16
2.39476726e-16
2.078756865e-16
1.794189112e-16
1.542362869e-16
1.324463567e-16
1.135535747e-16
9.669873569e-17
8.198760782e-17
6.912971299e-17
5.791431659e-17
4.810699154e-17
3.968041138e-17
3.261009735e-17
2.631276433e-17
2.096689953e-17
1.665243701e-17
1.315477267e-17
1.032282642e-17
8.008928837e-18
6.113840851e-18
4.592794919e-18
3.388325125e-18
2.449505096e-18
1.72769864e-18
1.181799853e-18
7.926463813e-19
5.378248383e-19
3.572669614e-19
2.282774713e-19
1.43263271e-19
8.524966005e-20
4.964429963e-20
2.94002073e-20
1.653702306e-20
1.05011095e-20
2.264190223e-21
-6.629874738e-21
-1.786139943e-20
-4.003788241e-20
-5.463250357e-20
)


101
(
2.407464554e-21
2.922527306e-21
-4.57207351e-19
-4.647132753e-18
-2.198417413e-17
-6.940368597e-17
-1.865719064e-16
-4.418864256e-16
-9.399686692e-16
-1.812527369e-15
-3.182819482e-15
-5.088263752e-15
-7.499831579e-15
-1.021889812e-14
-1.284826029e-14
-1.499013984e-14
-1.625658801e-14
-1.640591451e-14
-1.532101493e-14
-1.312330958e-14
-1.016185815e-14
-6.765308889e-15
-3.261156517e-15
3.52245379e-17
2.889327366e-15
5.193217117e-15
6.923385537e-15
8.091964884e-15
8.774625017e-15
9.063237341e-15
9.03405998e-15
8.850493877e-15
8.447416723e-15
7.986527804e-15
7.768308517e-15
6.868087543e-15
5.562332554e-15
4.865614541e-15
4.54731031e-15
4.45782556e-15
4.381281704e-15
4.134817136e-15
3.774726112e-15
3.42423444e-15
3.084167503e-15
2.765054954e-15
2.484270299e-15
2.236469859e-15
2.015572303e-15
1.817058912e-15
1.639508384e-15
1.474325355e-15
1.324444632e-15
1.191411893e-15
1.070348713e-15
9.620267735e-16
8.649400062e-16
7.731101127e-16
6.905320069e-16
6.159247228e-16
5.474078982e-16
4.870703252e-16
4.325523248e-16
3.826165377e-16
3.378191717e-16
2.976323986e-16
2.619777837e-16
2.290967884e-16
1.989598217e-16
1.727146512e-16
1.494390557e-16
1.282614928e-16
1.092243773e-16
9.286830191e-17
7.829366273e-17
6.52705756e-17
5.386986036e-17
4.397722556e-17
3.552972234e-17
2.845641328e-17
2.265468695e-17
1.786414077e-17
1.387205e-17
1.062429675e-17
7.988887976e-18
5.867203783e-18
4.157994886e-18
2.899554433e-18
2.049200405e-18
1.415931405e-18
9.353919662e-19
5.906809288e-19
3.697945582e-19
2.337675192e-19
1.442948097e-19
1.02054681e-19
8.680599495e-21
-1.170895897e-19
-3.159519041e-19
-8.386173854e-19
-1.234549077e-18
)


101
(
2.889115382e-21
1.152521612e-20
-3.764057252e-19
-4.198632083e-18
-2.024466416e-17
-6.42305318e-17
-1.729924852e-16
-4.109733544e-16
-8.780215567e-16
-1.703505872e-15
-3.015564386e-15
-4.872799974e-15
-7.273345894e-15
-1.006768541e-14
-1.291217828e-14
-1.542622374e-14
-1.722337626e-14
-1.800243923e-14
-1.759112328e-14
-1.600678557e-14
-1.346423035e-14
-1.029447688e-14
-6.802959084e-15
-3.27690266e-15
-1.054386431e-17
2.82443611e-15
5.148971831e-15
6.912853657e-15
8.155390013e-15
8.959003456e-15
9.357560323e-15
9.525155057e-15
9.360774559e-15
9.059517469e-15
8.931002546e-15
8.415546376e-15
7.479777563e-15
6.646036713e-15
6.06887795e-15
5.764353295e-15
5.63769423e-15
5.446255808e-15
5.129476018e-15
4.790998017e-15
4.420973505e-15
4.045566678e-15
3.701602006e-15
3.392449535e-15
3.111872985e-15
2.856305427e-15
2.629155881e-15
2.412020468e-15
2.205591468e-15
2.017195701e-15
1.848895592e-15
1.690292194e-15
1.544700336e-15
1.409969535e-15
1.287374084e-15
1.174371621e-15
1.062971757e-15
9.631265993e-16
8.717230288e-16
7.861708701e-16
7.111184513e-16
6.426926044e-16
5.776773649e-16
5.168718765e-16
4.598889387e-16
4.099688111e-16
3.650134707e-16
3.21909407e-16
2.819347976e-16
2.461164179e-16
2.141654634e-16
1.853783694e-16
1.587091879e-16
1.341353375e-16
1.12483928e-16
9.32023547e-17
7.67510246e-17
6.281337875e-17
5.07342882e-17
4.057821759e-17
3.203539426e-17
2.485457248e-17
1.876163887e-17
1.368927103e-17
9.945861346e-18
7.288991705e-18
5.18904442e-18
3.533087133e-18
2.310416913e-18
1.484165204e-18
9.850884641e-19
7.385060534e-19
-8.372513175e-20
-1.279464062e-18
-3.22354138e-18
-6.389574828e-18
-8.178413151e-18
)


101
(
3.213865122e-21
1.893087356e-20
-3.038952878e-19
-3.790325645e-18
-1.865998006e-17
-5.954797698e-17
-1.60785552e-16
-3.833931481e-16
-8.233548525e-16
-1.608908915e-15
-2.87449276e-15
-4.700843703e-15
-7.115911907e-15
-1.001940175e-14
-1.312312178e-14
-1.606988233e-14
-1.847532336e-14
-1.998548998e-14
-2.036453613e-14
-1.95250007e-14
-1.754841926e-14
-1.473329273e-14
-1.134732679e-14
-7.649165015e-15
-3.983978547e-15
-5.818336309e-16
2.417379638e-15
4.888164901e-15
6.820895864e-15
8.269575104e-15
9.264793426e-15
9.957028758e-15
1.01390963e-14
1.009384019e-14
1.018660518e-14
9.996945901e-15
9.438728209e-15
8.701882717e-15
7.992022864e-15
7.50703786e-15
7.299937279e-15
7.131377191e-15
6.86928795e-15
6.587094963e-15
6.238707082e-15
5.836649706e-15
5.426579592e-15
5.037539051e-15
4.689724952e-15
4.379620003e-15
4.108029063e-15
3.843025167e-15
3.575156721e-15
3.315609028e-15
3.086447016e-15
2.87341494e-15
2.670777281e-15
2.473600861e-15
2.297070383e-15
2.144721778e-15
1.978719323e-15
1.822644986e-15
1.681107998e-15
1.539813106e-15
1.416424401e-15
1.307385499e-15
1.202191184e-15
1.102529356e-15
1.000201348e-15
9.073717946e-16
8.285680207e-16
7.509115466e-16
6.754947121e-16
6.039405267e-16
5.385760039e-16
4.778842198e-16
4.212655354e-16
3.694197116e-16
3.207626429e-16
2.743570422e-16
2.32233263e-16
1.959829818e-16
1.643875087e-16
1.361406821e-16
1.117048027e-16
9.064514294e-17
7.218363065e-17
5.562455906e-17
4.194432819e-17
3.172862607e-17
2.385344232e-17
1.717960986e-17
1.208930243e-17
8.221432577e-18
5.628892177e-18
4.431869288e-18
-8.981608493e-19
-9.144463635e-18
-2.721710691e-17
-5.843409757e-17
-7.592789519e-17
)


101
(
3.399464989e-21
2.524543017e-20
-2.389475228e-19
-3.418392129e-18
-1.721393157e-17
-5.529899461e-17
-1.497739259e-16
-3.586583199e-16
-7.747454305e-16
-1.525961618e-15
-2.753895895e-15
-4.561750913e-15
-7.00919007e-15
-1.004552176e-14
-1.344045573e-14
-1.686814564e-14
-1.995073302e-14
-2.229078629e-14
-2.35869837e-14
-2.364646333e-14
-2.241743325e-14
-2.013983587e-14
-1.702004098e-14
-1.327296901e-14
-9.28728694e-15
-5.344817618e-15
-1.638165604e-15
1.623385304e-15
4.363103032e-15
6.594588576e-15
8.33432049e-15
9.728670368e-15
1.042949194e-14
1.076347858e-14
1.120892282e-14
1.140638689e-14
1.128533098e-14
1.082325655e-14
1.014456397e-14
9.559758189e-15
9.294942294e-15
9.1463167e-15
8.943247652e-15
8.763890525e-15
8.511849792e-15
8.156119424e-15
7.715346572e-15
7.243533315e-15
6.828380385e-15
6.467069199e-15
6.166973934e-15
5.885012741e-15
5.576846447e-15
5.243110354e-15
4.944610474e-15
4.685547097e-15
4.429594555e-15
4.169755208e-15
3.933364434e-15
3.723142559e-15
3.492270767e-15
3.274292938e-15
3.079099376e-15
2.874184213e-15
2.679430399e-15
2.511795433e-15
2.354541128e-15
2.203393352e-15
2.047172416e-15
1.89067599e-15
1.748825687e-15
1.617202911e-15
1.490586742e-15
1.366532646e-15
1.247206755e-15
1.129845969e-15
1.019521409e-15
9.199096897e-16
8.228420439e-16
7.264532387e-16
6.324870921e-16
5.481949489e-16
4.744658621e-16
4.052044311e-16
3.433206794e-16
2.892966552e-16
2.405805339e-16
1.946991615e-16
1.529960311e-16
1.202285036e-16
9.484154459e-17
7.16909027e-17
5.277034408e-17
3.809267323e-17
2.809898497e-17
2.323822137e-17
-1.125775872e-17
-6.575831198e-17
-1.787074581e-16
-3.379414666e-16
-4.105008523e-16
)


101
(
3.462366749e-21
3.056634219e-20
-1.809021904e-19
-3.079412437e-18
-1.589222792e-17
-5.143421397e-17
-1.398074061e-16
-3.36361874e-16
-7.311877357e-16
-1.452419086e-15
-2.649194209e-15
-4.447046046e-15
-6.938555544e-15
-1.012320322e-14
-1.38313241e-14
-1.777715405e-14
-2.159733612e-14
-2.486300939e-14
-2.721086976e-14
-2.834401223e-14
-2.807654744e-14
-2.656902936e-14
-2.394284506e-14
-2.034238786e-14
-1.618739344e-14
-1.18092537e-14
-7.436500309e-15
-3.355677185e-15
2.743133703e-16
3.407271639e-15
6.030562544e-15
8.303726127e-15
9.720771762e-15
1.059833607e-14
1.153515935e-14
1.222971872e-14
1.266579409e-14
1.265376567e-14
1.220471147e-14
1.167974367e-14
1.145277961e-14
1.135609741e-14
1.121864506e-14
1.118680941e-14
1.110566412e-14
1.090245063e-14
1.054408556e-14
1.004899542e-14
9.580066838e-15
9.178250727e-15
8.883565107e-15
8.62305968e-15
8.305539789e-15
7.940047683e-15
7.596556806e-15
7.287149009e-15
6.998586004e-15
6.707274093e-15
6.433303305e-15
6.190374145e-15
5.896827821e-15
5.607494391e-15
5.34516436e-15
5.071778714e-15
4.803559183e-15
4.568214638e-15
4.343557054e-15
4.126069262e-15
3.911180205e-15
3.678131827e-15
3.459748363e-15
3.257617212e-15
3.059134435e-15
2.861434173e-15
2.666779428e-15
2.467003714e-15
2.267858259e-15
2.085841932e-15
1.912173467e-15
1.741652928e-15
1.565089085e-15
1.388617412e-15
1.231745371e-15
1.084277725e-15
9.431748606e-16
8.195586918e-16
7.073294076e-16
5.963941907e-16
4.89478423e-16
3.984130544e-16
3.267325833e-16
2.606921053e-16
1.998824268e-16
1.523923432e-16
1.182685074e-16
1.016032646e-16
-7.571906974e-17
-3.616408357e-16
-9.306277141e-16
-1.699993454e-15
-2.033094726e-15
)


101
(
3.417822209e-21
3.498336552e-20
-1.291604689e-19
-2.770322844e-18
-1.468220711e-17
-4.791070228e-17
-1.30758489e-16
-3.161639498e-16
-6.918564117e-16
-1.386467705e-15
-2.556741312e-15
-4.350020049e-15
-6.892422067e-15
-1.023412529e-14
-1.426892178e-14
-1.876022372e-14
-2.336970095e-14
-2.765187478e-14
-3.119039253e-14
-3.358922878e-14
-3.452735742e-14
-3.406751254e-14
-3.222976125e-14
-2.90537092e-14
-2.496335526e-14
-2.034339031e-14
-1.544189085e-14
-1.059794654e-14
-6.054192997e-15
-1.940088281e-15
1.675370219e-15
4.975405721e-15
7.306600622e-15
8.931516865e-15
1.054317403e-14
1.189820151e-14
1.3050886e-14
1.365873838e-14
1.36497586e-14
1.339826187e-14
1.334217991e-14
1.340126097e-14
1.343306138e-14
1.362840679e-14
1.378846015e-14
1.383321584e-14
1.368830059e-14
1.327581125e-14
1.282872312e-14
1.248891255e-14
1.226709259e-14
1.20557548e-14
1.182850489e-14
1.151142116e-14
1.11248929e-14
1.081329309e-14
1.056709801e-14
1.027679166e-14
9.994571155e-15
9.766053242e-15
9.453377662e-15
9.151558422e-15
8.855068476e-15
8.503489738e-15
8.149011995e-15
7.825554432e-15
7.547850198e-15
7.293791466e-15
7.058786987e-15
6.769187779e-15
6.456799832e-15
6.142627325e-15
5.829963991e-15
5.565864322e-15
5.299491296e-15
4.999510227e-15
4.685232577e-15
4.383671304e-15
4.100102098e-15
3.817113917e-15
3.521352537e-15
3.203332055e-15
2.904953447e-15
2.626298468e-15
2.350927749e-15
2.09195446e-15
1.854574731e-15
1.624866462e-15
1.384276635e-15
1.171263355e-15
9.953394755e-16
8.231341281e-16
6.567827539e-16
5.261916274e-16
4.251902205e-16
3.840781647e-16
-3.724519738e-16
-1.5971536e-15
-3.851466865e-15
-7.240585424e-15
-8.935999299e-15
)


101
(
3.279970398e-21
3.857928756e-20
-8.317851205e-20
-2.488375719e-18
-1.357260337e-17
-4.469072512e-17
-1.225175087e-16
-2.977792501e-16
-6.560710531e-16
-1.326634844e-15
-2.473609058e-15
-4.265310951e-15
-6.861497961e-15
-1.036340588e-14
-1.473100724e-14
-1.978597613e-14
-2.522732218e-14
-3.061011045e-14
-3.547894639e-14
-3.934873719e-14
-4.176415286e-14
-4.266969098e-14
-4.198067917e-14
-3.960037143e-14
-3.59097751e-14
-3.134222963e-14
-2.615072245e-14
-2.069916795e-14
-1.530113987e-14
-1.018315274e-14
-5.508871114e-15
-1.090829298e-15
2.298350996e-15
4.895711573e-15
7.404794679e-15
9.565016206e-15
1.156752062e-14
1.295780413e-14
1.362159287e-14
1.395559596e-14
1.437023251e-14
1.47587085e-14
1.504929785e-14
1.556812169e-14
1.605521843e-14
1.645910738e-14
1.666331819e-14
1.651854283e-14
1.629254804e-14
1.612277108e-14
1.602187182e-14
1.594986296e-14
1.593110331e-14
1.580101098e-14
1.556691805e-14
1.532283713e-14
1.520415873e-14
1.502962915e-14
1.475457773e-14
1.463889826e-14
1.439913213e-14
1.414543314e-14
1.390639781e-14
1.35515626e-14
1.317899041e-14
1.279746797e-14
1.24857884e-14
1.223402985e-14
1.198575483e-14
1.16697927e-14
1.130663227e-14
1.094601688e-14
1.05549891e-14
1.018074744e-14
9.822464403e-15
9.452683124e-15
9.041799972e-15
8.57337453e-15
8.147445652e-15
7.764309099e-15
7.308662155e-15
6.790164453e-15
6.27914959e-15
5.808687907e-15
5.357490312e-15
4.856969474e-15
4.402430213e-15
3.982702431e-15
3.510112432e-15
3.07334772e-15
2.687183059e-15
2.296937053e-15
1.910772765e-15
1.594287389e-15
1.346106664e-15
1.239637955e-15
-1.503532216e-15
-5.83563102e-15
-1.293728599e-14
-2.500479178e-14
-3.191020461e-14
)


101
(
3.06191681e-21
4.143057093e-20
-4.246189263e-20
-2.231109366e-18
-1.255341212e-17
-4.174105737e-17
-1.149894185e-16
-2.809695581e-16
-6.232805429e-16
-1.271740752e-15
-2.397457111e-15
-4.188629398e-15
-6.83829699e-15
-1.049883581e-14
-1.519881582e-14
-2.082681312e-14
-2.713263922e-14
-3.369085919e-14
-4.002528745e-14
-4.557835693e-14
-4.976795735e-14
-5.240336778e-14
-5.328507601e-14
-5.216234578e-14
-4.93229991e-14
-4.521661712e-14
-4.008782975e-14
-3.430202265e-14
-2.822625826e-14
-2.217701229e-14
-1.64266028e-14
-1.083350344e-14
-6.340087482e-15
-2.643569437e-15
9.711625512e-16
4.077389511e-15
7.033456463e-15
9.399166695e-15
1.101264367e-14
1.223090665e-14
1.344814769e-14
1.44135488e-14
1.510668782e-14
1.607970116e-14
1.698742778e-14
1.789401944e-14
1.869061225e-14
1.910044767e-14
1.931820462e-14
1.945682116e-14
1.959102166e-14
1.975719783e-14
2.008354207e-14
2.047117165e-14
2.06331583e-14
2.049729123e-14
2.062524209e-14
2.074760175e-14
2.064083052e-14
2.079060011e-14
2.084936468e-14
2.07718814e-14
2.070163268e-14
2.055641322e-14
2.036376879e-14
1.996666809e-14
1.960759777e-14
1.940246947e-14
1.924280451e-14
1.906992104e-14
1.879375063e-14
1.843434655e-14
1.798473017e-14
1.756402968e-14
1.720692318e-14
1.684751264e-14
1.635231648e-14
1.575119803e-14
1.519626691e-14
1.471259084e-14
1.410681342e-14
1.337702728e-14
1.259980588e-14
1.186207875e-14
1.122869281e-14
1.042419044e-14
9.606430946e-15
8.89154463e-15
8.042812835e-15
7.256418476e-15
6.538498932e-15
5.734411658e-15
4.936454383e-15
4.252364547e-15
3.731215061e-15
3.551583814e-15
-5.069240929e-15
-1.829359107e-14
-3.675459441e-14
-6.159899208e-14
-7.315997933e-14
)


101
(
2.775803521e-21
4.360792804e-20
-6.560355765e-21
-1.996312292e-18
-1.161571794e-17
-3.903237602e-17
-1.080917892e-16
-2.655339661e-16
-5.930341841e-16
-1.220838727e-15
-2.326433661e-15
-4.116591475e-15
-6.816862896e-15
-1.063051857e-14
-1.565667932e-14
-2.185855629e-14
-2.905065749e-14
-3.684788212e-14
-4.477521151e-14
-5.222435548e-14
-5.850230391e-14
-6.327557667e-14
-6.620742327e-14
-6.689366087e-14
-6.548279585e-14
-6.236649042e-14
-5.777650619e-14
-5.207737496e-14
-4.565867186e-14
-3.889683631e-14
-3.216519108e-14
-2.540874293e-14
-1.986264652e-14
-1.507808479e-14
-1.022725533e-14
-6.032849075e-15
-2.01065584e-15
1.476538534e-15
4.248002453e-15
6.598593539e-15
8.93381626e-15
1.079267773e-14
1.208317823e-14
1.36435715e-14
1.511598235e-14
1.674632108e-14
1.845569213e-14
1.972907816e-14
2.064337617e-14
2.134382324e-14
2.196726688e-14
2.253114556e-14
2.338248468e-14
2.456471585e-14
2.522910043e-14
2.551832023e-14
2.62896122e-14
2.698974285e-14
2.726475242e-14
2.775753608e-14
2.840072422e-14
2.886126973e-14
2.928789424e-14
2.953030171e-14
2.968799116e-14
2.968817343e-14
2.946390541e-14
2.930225742e-14
2.938259805e-14
2.950353423e-14
2.95384551e-14
2.944357404e-14
2.914626923e-14
2.882772571e-14
2.859937336e-14
2.835897781e-14
2.786412909e-14
2.733873873e-14
2.680702173e-14
2.620583016e-14
2.55489179e-14
2.468738121e-14
2.36253198e-14
2.263838114e-14
2.188345995e-14
2.077837027e-14
1.941525086e-14
1.823648862e-14
1.697236292e-14
1.572966997e-14
1.444215456e-14
1.299024576e-14
1.153097671e-14
1.016726946e-14
9.135122299e-15
8.825536039e-15
-1.436126521e-14
-4.916595661e-14
-9.22111248e-14
-1.506335407e-13
-1.789827156e-13
)


101
(
2.432874017e-21
4.517685768e-20
2.493657197e-20
-1.78199818e-18
-1.07515734e-17
-3.653871013e-17
-1.017527869e-16
-2.513033441e-16
-5.649630103e-16
-1.173169011e-15
-2.259088336e-15
-4.046572541e-15
-6.792525471e-15
-1.075049352e-14
-1.609151904e-14
-2.286026441e-14
-3.094924866e-14
-4.003587547e-14
-4.967152366e-14
-5.922070696e-14
-6.790434822e-14
-7.524965117e-14
-8.075534241e-14
-8.386203834e-14
-8.45607935e-14
-8.312904037e-14
-7.974732616e-14
-7.475280763e-14
-6.852260096e-14
-6.145672366e-14
-5.402530643e-14
-4.62811061e-14
-3.983602085e-14
-3.407716647e-14
-2.798556303e-14
-2.262222096e-14
-1.74242128e-14
-1.270370202e-14
-8.744430351e-15
-5.179762634e-15
-1.447655267e-15
1.660140302e-15
3.844215015e-15
6.215946693e-15
8.421653445e-15
1.087682378e-14
1.366724363e-14
1.615853466e-14
1.815694345e-14
1.978783648e-14
2.125958998e-14
2.246600951e-14
2.404461292e-14
2.618037172e-14
2.78280334e-14
2.898956978e-14
3.078514857e-14
3.249968228e-14
3.346674739e-14
3.46031599e-14
3.610667815e-14
3.750679295e-14
3.888118732e-14
4.012610728e-14
4.090346973e-14
4.152571606e-14
4.202467874e-14
4.220209028e-14
4.275934945e-14
4.346474352e-14
4.4020549e-14
4.467554422e-14
4.504018547e-14
4.512128742e-14
4.518473779e-14
4.530221635e-14
4.523688988e-14
4.497131425e-14
4.469547051e-14
4.441348507e-14
4.391173404e-14
4.303714271e-14
4.191172692e-14
4.070903609e-14
3.982626938e-14
3.87535449e-14
3.692164685e-14
3.505103104e-14
3.328064546e-14
3.151489313e-14
2.940844624e-14
2.698781841e-14
2.463673827e-14
2.219863258e-14
2.021638376e-14
1.959908682e-14
-3.639162148e-14
-1.183921131e-13
-2.076383553e-13
-3.179172908e-13
-3.674192792e-13
)


101
(
2.043530335e-21
4.619810003e-20
5.240363814e-20
-1.586382422e-18
-9.95389903e-18
-3.423698946e-17
-9.590925112e-17
-2.381359357e-16
-5.38771139e-16
-1.128121184e-15
-2.194288798e-15
-3.9765609e-15
-6.761593179e-15
-1.085222614e-14
-1.649223614e-14
-2.381392885e-14
-3.28003255e-14
-4.321243441e-14
-5.465542151e-14
-6.648898562e-14
-7.787976391e-14
-8.823731706e-14
-9.688591066e-14
-1.031036515e-13
-1.066960933e-13
-1.07789753e-13
-1.064820044e-13
-1.030421957e-13
-9.777484501e-14
-9.104720924e-14
-8.343502348e-14
-7.512748803e-14
-6.813290269e-14
-6.163328883e-14
-5.440755758e-14
-4.790872759e-14
-4.154286541e-14
-3.563595646e-14
-3.064968174e-14
-2.598984001e-14
-2.072231538e-14
-1.605864541e-14
-1.266089614e-14
-9.180787691e-15
-6.0262692e-15
-2.688209168e-15
1.206176371e-15
5.070624113e-15
8.397187445e-15
1.152366889e-14
1.455330961e-14
1.660638472e-14
1.902641856e-14
2.253121415e-14
2.581228899e-14
2.808562124e-14
3.12099804e-14
3.456131942e-14
3.680801112e-14
3.906053486e-14
4.188784081e-14
4.502693979e-14
4.790473081e-14
5.04638374e-14
5.261728135e-14
5.479070634e-14
5.650487017e-14
5.782447765e-14
5.928271449e-14
6.073109704e-14
6.227590945e-14
6.428189817e-14
6.620120971e-14
6.747390931e-14
6.85238602e-14
6.937664607e-14
6.984821052e-14
7.053570706e-14
7.123302017e-14
7.172641986e-14
7.190879631e-14
7.152211001e-14
7.088140102e-14
6.967063714e-14
6.873970449e-14
6.820962297e-14
6.637567554e-14
6.376025145e-14
6.12823421e-14
5.906490041e-14
5.609011884e-14
5.236379177e-14
4.86978245e-14
4.469513121e-14
4.117235654e-14
3.96006288e-14
-8.283937683e-14
-2.583710062e-13
-4.287573138e-13
-6.425623604e-13
-7.442972912e-13
)


101
(
1.617382892e-21
4.672804582e-20
7.618353697e-20
-1.40786058e-18
-9.216394536e-18
-3.21068059e-17
-9.050565696e-17
-2.259103153e-16
-5.142185835e-16
-1.085214478e-15
-2.131174721e-15
-3.905078751e-15
-6.721317787e-15
-1.093064695e-14
-1.684966932e-14
-2.470376228e-14
-3.457813205e-14
-4.633638493e-14
-5.96684471e-14
-7.39476486e-14
-8.832086246e-14
-1.021192843e-13
-1.145050424e-13
-1.245976243e-13
-1.319778146e-13
-1.365776186e-13
-1.383754134e-13
-1.37541251e-13
-1.342806982e-13
-1.28870749e-13
-1.219186208e-13
-1.137188609e-13
-1.067611344e-13
-1.00011637e-13
-9.200698318e-14
-8.464691495e-14
-7.734724184e-14
-7.053542307e-14
-6.483920409e-14
-5.939272802e-14
-5.280148914e-14
-4.65757105e-14
-4.169977473e-14
-3.671703235e-14
-3.23832947e-14
-2.815396947e-14
-2.320689208e-14
-1.800358625e-14
-1.318026778e-14
-8.109363925e-15
-3.02846871e-15
1.504039965e-16
3.666379086e-15
8.828291814e-15
1.395823279e-14
1.793703645e-14
2.291347141e-14
2.883219407e-14
3.340311419e-14
3.711857958e-14
4.172387945e-14
4.771424916e-14
5.307533957e-14
5.735254112e-14
6.200771565e-14
6.666850949e-14
7.08465291e-14
7.42345014e-14
7.712589587e-14
8.057897898e-14
8.381581392e-14
8.774301174e-14
9.212913256e-14
9.59254212e-14
9.949491677e-14
1.019454783e-13
1.037328514e-13
1.062158431e-13
1.085217195e-13
1.111651728e-13
1.133960559e-13
1.140993367e-13
1.145946432e-13
1.146856166e-13
1.143209439e-13
1.142482449e-13
1.134524286e-13
1.108083733e-13
1.071896982e-13
1.04959756e-13
1.011605551e-13
9.607476489e-14
9.089620714e-14
8.423199174e-14
7.807775829e-14
7.478622117e-14
-1.712104762e-13
-5.182745202e-13
-8.270259631e-13
-1.266092761e-12
-1.50917245e-12
)


101
(
1.163298273e-21
4.68191111e-20
9.659015762e-20
-1.244989862e-18
-8.533450408e-18
-3.01301114e-17
-8.549303524e-17
-2.145218521e-16
-4.91110597e-16
-1.044088667e-15
-2.069091749e-15
-3.831057263e-15
-6.669798747e-15
-1.098212536e-14
-1.715671866e-14
-2.551579677e-14
-3.625727303e-14
-4.936392762e-14
-6.463769812e-14
-8.149562677e-14
-9.910610729e-14
-1.167676189e-13
-1.334932804e-13
-1.482629591e-13
-1.60425735e-13
-1.696516092e-13
-1.757417773e-13
-1.787543631e-13
-1.788090731e-13
-1.760820548e-13
-1.710811198e-13
-1.639979661e-13
-1.579378167e-13
-1.517413751e-13
-1.436388578e-13
-1.360284984e-13
-1.28340403e-13
-1.212145755e-13
-1.154275629e-13
-1.099011645e-13
-1.02535459e-13
-9.497725658e-14
-8.876121955e-14
-8.229670567e-14
-7.666225124e-14
-7.136145528e-14
-6.556446056e-14
-5.930459208e-14
-5.289839428e-14
-4.59988763e-14
-3.883156177e-14
-3.386976379e-14
-2.895884488e-14
-2.223274281e-14
-1.500306384e-14
-8.812884935e-15
-1.525011274e-15
7.733054688e-15
1.586465529e-14
2.260927283e-14
2.961491768e-14
3.870651099e-14
4.739311757e-14
5.458149031e-14
6.337351447e-14
7.229272921e-14
8.017364754e-14
8.661333889e-14
9.283848103e-14
1.000373209e-13
1.060790058e-13
1.132183847e-13
1.211435459e-13
1.287041557e-13
1.375249545e-13
1.444273387e-13
1.492227763e-13
1.538375426e-13
1.590730342e-13
1.660650853e-13
1.718967559e-13
1.760910949e-13
1.792101884e-13
1.811584543e-13
1.834603336e-13
1.855736096e-13
1.864772105e-13
1.853058206e-13
1.809944481e-13
1.791071061e-13
1.74959367e-13
1.680465183e-13
1.612433999e-13
1.50884561e-13
1.403512193e-13
1.340200831e-13
-3.310123569e-13
-9.788788088e-13
-1.519820193e-12
-2.143280992e-12
-2.4241303e-12
)


101
(
6.894402138e-22
4.65200784e-20
1.139115434e-19
-1.096472229e-18
-7.900084374e-18
-2.829096909e-17
-8.082808108e-17
-2.038794956e-16
-4.692884542e-16
-1.004477687e-15
-2.007559946e-15
-3.753756814e-15
-6.605822042e-15
-1.10042255e-14
-1.740815473e-14
-2.62382972e-14
-3.781358077e-14
-5.225088513e-14
-6.948498421e-14
-8.902313669e-14
-1.10100491e-13
-1.320313866e-13
-1.536917587e-13
-1.739508002e-13
-1.919700671e-13
-2.070674257e-13
-2.187885972e-13
-2.271020325e-13
-2.320572064e-13
-2.336918363e-13
-2.323299279e-13
-2.278874803e-13
-2.24049762e-13
-2.196171252e-13
-2.125767524e-13
-2.058156934e-13
-1.986834171e-13
-1.921664359e-13
-1.873601314e-13
-1.827427291e-13
-1.755324827e-13
-1.677333952e-13
-1.609223134e-13
-1.531547435e-13
-1.463843672e-13
-1.404720165e-13
-1.345318077e-13
-1.274816372e-13
-1.196495587e-13
-1.116999365e-13
-1.029911542e-13
-9.577376572e-14
-8.930568769e-14
-8.11268019e-14
-7.102122744e-14
-6.27429108e-14
-5.369849323e-14
-4.032800379e-14
-2.694545981e-14
-1.604163503e-14
-5.876879987e-15
6.787020721e-15
1.934689744e-14
3.233227152e-14
4.621535917e-14
6.020906635e-14
7.551531003e-14
8.790139142e-14
9.96784347e-14
1.118900927e-13
1.228599598e-13
1.355436445e-13
1.486670901e-13
1.622057788e-13
1.78845003e-13
1.955379402e-13
2.065485227e-13
2.152911143e-13
2.262635086e-13
2.383602559e-13
2.510395864e-13
2.641591772e-13
2.729079446e-13
2.784025986e-13
2.85578825e-13
2.927961928e-13
2.97761756e-13
3.005262142e-13
2.97497902e-13
2.958945089e-13
2.927990635e-13
2.841199373e-13
2.752055624e-13
2.603938825e-13
2.418299445e-13
2.285172005e-13
-6.096117254e-13
-1.767653995e-12
-2.712796625e-12
-3.863911344e-12
-4.420433145e-12
)


101
(
2.032932309e-22
4.587721952e-20
1.28412624e-19
-9.611386636e-19
-7.311871231e-18
-2.65753276e-17
-7.647248841e-17
-1.939017317e-16
-4.486178724e-16
-9.661915736e-16
-1.946260481e-15
-3.672718779e-15
-6.52867971e-15
-1.099536318e-14
-1.76001732e-14
-2.686189969e-14
-3.922672386e-14
-5.495935813e-14
-7.413700083e-14
-9.641963509e-14
-1.211593057e-13
-1.477261177e-13
-1.748853073e-13
-2.014188962e-13
-2.263887236e-13
-2.487244344e-13
-2.676138161e-13
-2.829312823e-13
-2.946618672e-13
-3.026167073e-13
-3.069010149e-13
-3.071655791e-13
-3.075082808e-13
-3.066059987e-13
-3.023924159e-13
-2.982368799e-13
-2.931579233e-13
-2.884858105e-13
-2.859673835e-13
-2.839056247e-13
-2.787434748e-13
-2.723896763e-13
-2.66379771e-13
-2.58505742e-13
-2.515738971e-13
-2.459547756e-13
-2.408133857e-13
-2.342119889e-13
-2.262040623e-13
-2.181089034e-13
-2.088789183e-13
-2.001829512e-13
-1.923309037e-13
-1.832830657e-13
-1.705349723e-13
-1.600652012e-13
-1.492477981e-13
-1.322759192e-13
-1.135510672e-13
-9.671021468e-14
-8.17421691e-14
-6.5520038e-14
-4.870344871e-14
-2.814840341e-14
-7.47489445e-15