/*--------------------------------*- C++ -*----------------------------------*\
| =========                 |                                                 |
| \\      /  F ield         | OpenFOAM: The Open Source CFD Toolbox           |
|  \\    /   O peration     | Version:  2.3.1                                 |
|   \\  /    A nd           | Web:      www.OpenFOAM.org                      |
|    \\/     M anipulation  |                                                 |
\*---------------------------------------------------------------------------*/
FoamFile
{
    version     2.0;
    format      ascii;
    class       dictionary;
    location    "constant";
    object      DPSI50;
}
// * * * * * * * * * * * * * * * * * * * * * * * * * * * * * * * * * * * * * //

DPSI50_table
101
(

101
(
1.793705623e-33
1.015503053e-22
2.698020519e-21
2.472042527e-20
1.137102218e-19
3.138373591e-19
6.242480193e-19
1.088274038e-18
1.626106883e-18
2.176663124e-18
2.632441713e-18
2.914364783e-18
2.966655275e-18
2.700037425e-18
2.164693684e-18
1.438076552e-18
5.945638102e-19
-2.375380988e-19
-9.05079098e-19
-1.375985682e-18
-1.620734118e-18
-1.720179236e-18
-1.607048787e-18
-1.401364009e-18
-1.172907242e-18
-9.485332678e-19
-7.481508706e-19
-5.829060199e-19
-4.444789855e-19
-3.380786052e-19
-2.56446087e-19
-1.968784745e-19
-1.565543181e-19
-1.113349828e-19
-8.297019554e-20
-6.163174073e-20
-3.627787771e-20
-1.245358667e-20
-2.352614382e-20
-2.008163253e-20
-1.498848418e-20
-1.157535654e-20
-8.536998076e-21
-6.30479865e-21
-4.813952393e-21
-3.567088789e-21
-2.68044957e-21
-1.948985007e-21
-1.421646352e-21
-1.008471776e-21
-7.176642151e-22
-5.037439904e-22
-3.493792731e-22
-2.388256737e-22
-1.619353324e-22
-1.095322243e-22
-7.012001388e-23
-4.641821689e-23
-2.937009373e-23
-1.862882468e-23
-1.139713391e-23
-6.941499159e-24
-4.149728578e-24
-2.406888104e-24
-1.352459701e-24
-7.488441318e-25
-4.040262686e-25
-2.112784195e-25
-1.056000847e-25
-5.120238007e-26
-2.369823243e-26
-1.056979572e-26
-4.467460323e-27
-1.773493291e-27
-6.470468509e-28
-2.290253673e-28
-8.314738325e-29
-2.716245094e-29
-8.247709177e-30
-2.300190208e-30
-5.868733509e-31
-1.22292339e-31
-2.528732174e-32
-4.180397791e-33
-7.632596986e-34
-2.910361575e-34
-1.059081294e-34
-2.769696916e-35
-4.300977415e-36
-7.082623361e-37
-1.146459051e-37
-1.556940057e-38
-1.940400876e-39
-1.590031917e-40
-2.013911421e-41
-2.35742507e-42
-2.149463629e-44
-9.617412101e-44
-1.185269237e-40
9.657839451e-31
1.294298975e-30
)


101
(
1.793750583e-33
9.19403572e-23
2.551099577e-21
2.357857852e-20
1.076329018e-19
2.946808931e-19
5.812840919e-19
9.957779069e-19
1.456880165e-18
1.899261988e-18
2.219262063e-18
2.344682996e-18
2.228542201e-18
1.805763347e-18
1.132940327e-18
2.979095375e-19
-6.106197405e-19
-1.464917277e-18
-2.110502509e-18
-2.532588535e-18
-2.689178267e-18
-2.660159999e-18
-2.434284373e-18
-2.111375089e-18
-1.764485811e-18
-1.430546342e-18
-1.132998507e-18
-8.840940973e-19
-6.791947911e-19
-5.189884168e-19
-3.954528146e-19
-3.027922735e-19
-2.354463332e-19
-1.749337551e-19
-1.316670919e-19
-9.889574196e-20
-6.77562037e-20
-4.012051194e-20
-4.060727563e-20
-3.464927525e-20
-2.712240473e-20
-2.093969299e-20
-1.578631281e-20
-1.185029155e-20
-8.972377147e-21
-6.722514725e-21
-5.046083636e-21
-3.733536906e-21
-2.750842793e-21
-1.998852776e-21
-1.445287233e-21
-1.035386469e-21
-7.355166167e-22
-5.175830721e-22
-3.605562593e-22
-2.488171643e-22
-1.676463921e-22
-1.129224676e-22
-7.464088993e-23
-4.88622224e-23
-3.144561323e-23
-1.999231037e-23
-1.249934564e-23
-7.672501237e-24
-4.615722002e-24
-2.725183756e-24
-1.573615888e-24
-8.871931623e-25
-4.884899938e-25
-2.610602446e-25
-1.350762917e-25
-6.753720418e-26
-3.291448382e-26
-1.541518166e-26
-6.881923034e-27
-2.951934144e-27
-1.217338824e-27
-4.793306794e-28
-1.810168386e-28
-6.480239051e-29
-2.179061114e-29
-6.684184555e-30
-1.934449838e-30
-5.083579318e-31
-1.179177004e-31
-2.526870978e-32
-5.816705507e-33
-1.772348844e-33
-4.155948455e-34
-8.216678251e-35
-1.767878685e-35
-3.7817725e-36
-8.454493451e-37
-1.474302983e-37
-2.686990866e-38
-4.63571434e-39
-1.370492223e-40
-1.161054911e-39
-1.055010685e-38
-3.500027614e-35
5.668287032e-25
)


101
(
1.793795547e-33
7.44843068e-23
2.280458028e-21
2.14888848e-20
9.672770521e-20
2.608798509e-19
5.067632211e-19
8.386898009e-19
1.174577291e-18
1.443301903e-18
1.548290952e-18
1.427839807e-18
1.048001518e-18
3.792986252e-19
-5.144998189e-19
-1.532075916e-18
-2.56399229e-18
-3.482465018e-18
-4.130356905e-18
-4.507851842e-18
-4.559573645e-18
-4.355551873e-18
-3.960108712e-18
-3.450768097e-18
-2.906526702e-18
-2.382330972e-18
-1.910235462e-18
-1.506602324e-18
-1.173827198e-18
-9.077482632e-19
-6.995056538e-19
-5.39277404e-19
-4.16930023e-19
-3.211437969e-19
-2.462772909e-19
-1.869142574e-19
-1.411943975e-19
-1.029194538e-19
-8.321030244e-20
-6.95362256e-20
-5.628071675e-20
-4.42887511e-20
-3.430322787e-20
-2.633680111e-20
-2.0151758e-20
-1.539270752e-20
-1.172916777e-20
-8.899255132e-21
-6.709922302e-21
-5.025272976e-21
-3.734566836e-21
-2.756053751e-21
-2.020922473e-21
-1.471868622e-21
-1.062813567e-21
-7.606794431e-22
-5.379972166e-22
-3.767036286e-22
-2.612094663e-22
-1.789988248e-22
-1.214415895e-22
-8.148354189e-23
-5.396572548e-23
-3.528669256e-23
-2.273569572e-23
-1.439684464e-23
-8.963735249e-24
-5.471607944e-24
-3.290387801e-24
-1.939050817e-24
-1.114102435e-24
-6.232512391e-25
-3.412857083e-25
-1.820275632e-25
-9.390239335e-26
-4.680167863e-26
-2.246683926e-26
-1.041584681e-26
-4.663004758e-27
-2.019675256e-27
-8.420978884e-28
-3.300253564e-28
-1.229077764e-28
-4.326427907e-29
-1.406351635e-29
-4.199179787e-30
-1.154320446e-30
-3.34266748e-31
-9.469247705e-32
-2.300580778e-32
-4.940847855e-33
-1.153065664e-33
-2.833422338e-34
-6.484771116e-35
-1.521008236e-35
-2.998596049e-36
-9.780357282e-38
-2.583112259e-36
-2.299889491e-35
-5.499145515e-31
-7.339333622e-31
)


101
(
1.793840511e-33
6.031795361e-23
2.057217118e-21
1.982407064e-20
8.851446392e-20
2.366226045e-19
4.557542007e-19
7.364638621e-19
9.983646792e-19
1.167566987e-18
1.151255633e-18
8.909558887e-19
3.563163654e-19
-4.680604144e-19
-1.520113091e-18
-2.695017825e-18
-3.872252829e-18
-4.919218001e-18
-5.671237544e-18
-6.113583263e-18
-6.186330925e-18
-5.942013183e-18
-5.467611604e-18
-4.841339304e-18
-4.150716636e-18
-3.466730714e-18
-2.834193688e-18
-2.27835717e-18
-1.809276274e-18
-1.42471073e-18
-1.116379808e-18
-8.740202626e-19
-6.844127512e-19
-5.37701367e-19
-4.214811962e-19
-3.28795959e-19
-2.544406721e-19
-1.955086036e-19
-1.550639971e-19
-1.269019123e-19
-1.038981091e-19
-8.375542445e-20
-6.660204682e-20
-5.243515242e-20
-4.103418111e-20
-3.205109117e-20
-2.498574632e-20
-1.944075529e-20
-1.505875188e-20
-1.161187044e-20
-8.895639458e-21
-6.772297172e-21
-5.127264573e-21
-3.862540776e-21
-2.891473053e-21
-2.147797677e-21
-1.583895785e-21
-1.157757537e-21
-8.398528875e-22
-6.026730854e-22
-4.289059824e-22
-3.028294592e-22
-2.11661234e-22
-1.466096014e-22
-1.004878643e-22
-6.784651169e-23
-4.517636056e-23
-2.964799787e-23
-1.920708878e-23
-1.228622375e-23
-7.689904229e-24
-4.717726217e-24
-2.838508234e-24
-1.676671673e-24
-9.670667298e-25
-5.433538775e-25
-2.954795814e-25
-1.56316544e-25
-8.018987703e-26
-4.000428627e-26
-1.943252609e-26
-9.051348249e-27
-4.031312502e-27
-1.726714856e-27
-7.001645684e-28
-2.659371456e-28
-9.362353326e-29
-3.193690858e-29
-1.083482793e-29
-3.439185203e-30
-9.486292372e-31
-2.513434299e-31
-6.499614114e-32
-1.641696886e-32
-4.363939997e-33
-9.263340747e-34
-6.012548333e-35
-2.111131716e-33
-1.765636316e-32
-2.852260802e-31
-6.294146019e-25
)


101
(
1.793885642e-33
4.87316661e-23
1.869018484e-21
1.845585373e-20
8.212305108e-20
2.185724188e-19
4.192462433e-19
6.664236518e-19
8.81392765e-19
9.875891294e-19
8.923542688e-19
5.354105884e-19
-1.155560191e-19
-1.072221682e-18
-2.277501e-18
-3.626845917e-18
-4.991689205e-18
-6.230842258e-18
-7.167773007e-18
-7.76168969e-18
-7.941340696e-18
-7.739670842e-18
-7.248380796e-18
-6.546887124e-18
-5.732540226e-18
-4.89295635e-18
-4.089014721e-18
-3.359424613e-18
-2.725344174e-18
-2.190612148e-18
-1.750451311e-18
-1.394587231e-18
-1.109597279e-18
-8.87075361e-19
-7.088421802e-19
-5.668474636e-19
-4.479603248e-19
-3.536967545e-19
-2.830817354e-19
-2.309531283e-19
-1.902208281e-19
-1.560016346e-19
-1.269045496e-19
-1.023634636e-19
-8.199233315e-20
-6.546851451e-20
-5.217440331e-20
-4.156398133e-20
-3.303886932e-20
-2.618371097e-20
-2.064588589e-20
-1.618862457e-20
-1.263064971e-20
-9.818107173e-21
-7.600717767e-21
-5.846733982e-21
-4.472343534e-21
-3.397567089e-21
-2.567856834e-21
-1.923161666e-21
-1.428562943e-21
-1.055585724e-21
-7.732615831e-22
-5.626616251e-22
-4.066457771e-22
-2.906281856e-22
-2.052606807e-22
-1.432188656e-22
-9.865540062e-23
-6.750105746e-23
-4.543214202e-23
-3.008415582e-23
-1.956905393e-23
-1.253425366e-23
-7.882964964e-24
-4.861371239e-24
-2.932392282e-24
-1.725590578e-24
-9.852416282e-25
-5.492901041e-25
-2.991980512e-25
-1.595013858e-25
-8.157885223e-26
-4.04589256e-26
-1.927595714e-26
-8.772961939e-27
-3.737221314e-27
-1.525874347e-27
-6.059098368e-28
-2.347892008e-28
-8.234582873e-29
-2.702472403e-29
-8.693626438e-30
-2.579258647e-30
-7.90598055e-31
-1.945128861e-31
-2.034674564e-32
-4.990731647e-31
-3.976229255e-30
-7.751261888e-29
-4.210816262e-28
)


101
(
1.793930442e-33
3.918275099e-23
1.707044193e-21
1.729675499e-20
7.697456644e-20
2.04602251e-19
3.918316935e-19
6.156757e-19
7.984214077e-19
8.603022483e-19
7.061063714e-19
2.704854545e-19
-4.839283966e-19
-1.571102708e-18
-2.940467923e-18
-4.490217645e-18
-6.08675432e-18
-7.5781205e-18
-8.772854409e-18
-9.600758413e-18
-9.969637795e-18
-9.888838846e-18
-9.445969678e-18
-8.716415208e-18
-7.804612064e-18
-6.815861678e-18
-5.829180409e-18
-4.900076362e-18
-4.065376397e-18
-3.339436662e-18
-2.724837498e-18
-2.213230162e-18
-1.792374248e-18
-1.457743131e-18
-1.185728593e-18
-9.647153678e-19
-7.809992332e-19
-6.303304371e-19
-5.117243555e-19
-4.206317637e-19
-3.491466299e-19
-2.901852762e-19
-2.405189029e-19
-1.982640225e-19
-1.623910834e-19
-1.324938546e-19
-1.078408706e-19
-8.781710601e-20
-7.148565797e-20
-5.809587921e-20
-4.706005725e-20
-3.793596097e-20
-3.044348014e-20
-2.435107218e-20
-1.943562387e-20
-1.543924236e-20
-1.220415931e-20
-9.595194961e-21
-7.511442969e-21
-5.84043033e-21
-4.513042633e-21
-3.471639909e-21
-2.652516323e-21
-2.013696999e-21
-1.521287129e-21
-1.140946048e-21
-8.474682258e-22
-6.231919406e-22
-4.531092431e-22
-3.268696766e-22
-2.335046238e-22
-1.648308343e-22
-1.147066365e-22
-7.868391612e-23
-5.31414939e-23
-3.532347099e-23
-2.313720281e-23
-1.484549098e-23
-9.290818984e-24
-5.683921775e-24
-3.402705828e-24
-2.007427884e-24
-1.149379861e-24
-6.39151778e-25
-3.460270264e-25
-1.805050746e-25
-8.975327201e-26
-4.252806535e-26
-1.964632738e-26
-8.901206607e-27
-3.767347873e-27
-1.479777428e-27
-5.779819604e-28
-2.112979929e-28
-7.721492354e-29
-2.232771559e-29
-3.305739984e-30
-8.758340998e-29
-6.474290001e-28
-9.737353299e-27
-1.544150212e-25
)


101
(
1.793975401e-33
3.125323141e-23
1.56498554e-21
1.628711405e-20
7.26828412e-20
1.933463647e-19
3.702267639e-19
5.768011873e-19
7.357354285e-19
7.635681516e-19
5.606050066e-19
5.4411622e-20
-7.997920578e-19
-2.022040098e-18
-3.570365154e-18
-5.3480431e-18
-7.219864322e-18
-9.023693448e-18
-1.055146109e-17
-1.170252356e-17
-1.235473486e-17
-1.248737479e-17
-1.217659412e-17
-1.148638674e-17
-1.052180327e-17
-9.405383527e-18
-8.235981044e-18
-7.087846406e-18
-6.017500613e-18
-5.054764955e-18
-4.21417451e-18
-3.49440714e-18
-2.884630917e-18
-2.388180207e-18
-1.977597791e-18
-1.638368013e-18
-1.353842476e-18
-1.115306657e-18
-9.208101519e-19
-7.659820642e-19
-6.423409744e-19
-5.403600074e-19
-4.550604839e-19
-3.823180574e-19
-3.197008589e-19
-2.663960275e-19
-2.213229655e-19
-1.838980898e-19
-1.528976166e-19
-1.270939718e-19
-1.054768461e-19
-8.719785744e-20
-7.183134895e-20
-5.900354541e-20
-4.838197767e-20
-3.954982822e-20
-3.222375369e-20
-2.61304762e-20
-2.111160641e-20
-1.695945139e-20
-1.355512625e-20
-1.079441941e-20
-8.551966084e-21
-6.742937406e-21
-5.293389089e-21
-4.135283929e-21
-3.206063394e-21
-2.467761273e-21
-1.881432877e-21
-1.423139835e-21
-1.069068181e-21
-7.9533248e-22
-5.85532096e-22
-4.257622879e-22
-3.056531333e-22
-2.163509438e-22
-1.514476322e-22
-1.044585701e-22
-7.075994291e-23
-4.694308357e-23
-3.048585043e-23
-1.949309673e-23
-1.225818168e-23
-7.494314462e-24
-4.493113955e-24
-2.619638778e-24
-1.47393185e-24
-7.93143224e-25
-4.175077987e-25
-2.144863277e-25
-1.061934292e-25
-4.874876485e-26
-2.229176534e-26
-9.770532682e-27
-4.155475013e-27
-1.521182433e-27
-3.20803966e-28
-7.010654155e-27
-4.78475267e-26
-6.077146176e-25
-2.468034845e-24
)


101
(
1.794020363e-33
2.462030182e-23
1.438312376e-21
1.538620261e-20
6.899019887e-20
1.839255951e-19
3.524178597e-19
5.454467067e-19
6.85733397e-19
6.857146532e-19
4.398054066e-19
-1.329692385e-19
-1.086839475e-18
-2.45087225e-18
-4.194364255e-18
-6.228516349e-18
-8.420218782e-18
-1.060000633e-17
-1.254321601e-17
-1.411906852e-17
-1.516799598e-17
-1.563062564e-17
-1.556235853e-17
-1.500928067e-17
-1.406628293e-17
-1.286951904e-17
-1.153904487e-17
-1.016877903e-17
-8.837177674e-18
-7.593943966e-18
-6.471693662e-18
-5.481564353e-18
-4.617294677e-18
-3.894416875e-18
-3.283635417e-18
-2.76999439e-18
-2.332951198e-18
-1.959505228e-18
-1.646876518e-18
-1.389850146e-18
-1.17987778e-18
-1.00525619e-18
-8.588087298e-19
-7.335616053e-19
-6.248951954e-19
-5.310614621e-19
-4.500506035e-19
-3.812418992e-19
-3.232686445e-19
-2.742535654e-19
-2.32451382e-19
-1.965869355e-19
-1.658603328e-19
-1.39498654e-19
-1.171946136e-19
-9.830993198e-20
-8.225530933e-20
-6.855753505e-20
-5.699480248e-20
-4.716233809e-20
-3.885571885e-20
-3.191312872e-20
-2.608198541e-20
-2.124806061e-20
-1.72518818e-20
-1.396737617e-20
-1.125368753e-20
-9.011217349e-21
-7.160056551e-21
-5.639996238e-21
-4.418808447e-21
-3.435061907e-21
-2.655501458e-21
-2.033734877e-21
-1.539034949e-21
-1.15093318e-21
-8.521896172e-22
-6.240606434e-22
-4.510872495e-22
-3.202856991e-22
-2.236582736e-22
-1.535982356e-22
-1.044369019e-22
-6.935730039e-23
-4.531648916e-23
-2.885805498e-23
-1.804536999e-23
-1.082315931e-23
-6.36782264e-24
-3.663516125e-24
-2.043293493e-24
-1.077989461e-24
-5.661570254e-25
-2.89284152e-25
-1.419269301e-25
-6.392929911e-26
-1.813857406e-26
-3.102071687e-25
-1.904268513e-24
-1.948027876e-23
-9.060683158e-23
)


101
(
1.79406566e-33
1.903331268e-23
1.323759551e-21
1.456621661e-20
6.572486024e-20
1.757792342e-19
3.371911938e-19
5.190939774e-19
6.441867174e-19
6.205501017e-19
3.356220172e-19
-3.014481079e-19
-1.356129371e-18
-2.869486292e-18
-4.82497588e-18
-7.145446581e-18
-9.704199263e-18
-1.232863153e-17
-1.477937317e-17
-1.689758014e-17
-1.848073587e-17
-1.942126537e-17
-1.974086117e-17
-1.946399527e-17
-1.866045976e-17
-1.747134706e-17
-1.603602513e-17
-1.446813835e-17
-1.286929084e-17
-1.13121887e-17
-9.853771021e-18
-8.52525931e-18
-7.330302802e-18
-6.302180799e-18
-5.410375066e-18
-4.645572687e-18
-3.984978797e-18
-3.410774061e-18
-2.919401256e-18
-2.503443731e-18
-2.154404291e-18
-1.859327092e-18
-1.610140027e-18
-1.396027322e-18
-1.209245269e-18
-1.04640248e-18
-9.035463761e-19
-7.799142014e-19
-6.735402829e-19
-5.820370812e-19
-5.028947986e-19
-4.342739832e-19
-3.744316409e-19
-3.219937534e-19
-2.765776944e-19
-2.372341183e-19
-2.032782312e-19
-1.735332124e-19
-1.479692333e-19
-1.257741793e-19
-1.064730482e-19
-8.992925961e-20
-7.562513322e-20
-6.342155209e-20
-5.304168248e-20
-4.425892518e-20
-3.683841371e-20
-3.050955755e-20
-2.512284328e-20
-2.054601564e-20
-1.671799987e-20
-1.352201527e-20
-1.087577179e-20
-8.693479485e-21
-6.88991862e-21
-5.40933081e-21
-4.204332142e-21
-3.239595655e-21
-2.47620478e-21
-1.864787749e-21
-1.382677619e-21
-1.013374288e-21
-7.349531101e-22
-5.259723752e-22
-3.692222482e-22
-2.539264632e-22
-1.731342622e-22
-1.141534567e-22
-7.384304226e-23
-4.688894029e-23
-2.895814201e-23
-1.727522361e-23
-1.018082738e-23
-5.910963132e-24
-3.288591315e-24
-1.709012741e-24
-6.51644093e-25
-8.369814708e-24
-4.463475374e-23
-3.461303139e-22
-1.864810765e-21
)


101
(
1.794110621e-33
1.429594059e-23
1.218984349e-21
1.380819896e-20
6.277087308e-20
1.685430088e-19
3.238090962e-19
4.962999856e-19
6.086671816e-19
5.64591702e-19
2.437751659e-19
-4.557591649e-19
-1.612600846e-18
-3.282849474e-18
-5.467490437e-18
-8.105348929e-18
-1.108111969e-17
-1.42248395e-17
-1.728595353e-17
-2.008162165e-17
-2.236394105e-17
-2.396940999e-17
-2.487103923e-17
-2.506170763e-17
-2.45744597e-17
-2.353990952e-17
-2.210827185e-17
-2.041088346e-17
-1.857313067e-17
-1.669315245e-17
-1.485653086e-17
-1.312193083e-17
-1.151198772e-17
-1.008949328e-17
-8.81929561e-18
-7.705773964e-18
-6.72917205e-18
-5.866693316e-18
-5.11242213e-18
-4.456896857e-18
-3.891898693e-18
-3.403480917e-18
-2.987078182e-18
-2.626785413e-18
-2.310836653e-18
-2.033542418e-18
-1.786865549e-18
-1.569464987e-18
-1.378377899e-18
-1.211520165e-18
-1.065481769e-18
-9.375644669e-19
-8.244913085e-19
-7.238344397e-19
-6.340460369e-19
-5.550077036e-19
-4.858625722e-19
-4.240648881e-19
-3.698723701e-19
-3.219921008e-19
-2.793334858e-19
-2.417795163e-19
-2.08687682e-19
-1.796226569e-19
-1.541785907e-19
-1.320042292e-19
-1.129839424e-19
-9.638269884e-20
-8.193904185e-20
-6.926242696e-20
-5.826258692e-20
-4.875186394e-20
-4.062980913e-20
-3.371031129e-20
-2.780305822e-20
-2.274041275e-20
-1.844493134e-20
-1.486256918e-20
-1.189540134e-20
-9.422052545e-21
-7.365565411e-21
-5.705826057e-21
-4.37575056e-21
-3.329486097e-21
-2.492622883e-21
-1.828862593e-21
-1.334684295e-21
-9.527054967e-22
-6.67389926e-22
-4.624223645e-22
-3.112144995e-22
-2.051267301e-22
-1.33589514e-22
-8.608023816e-23
-5.378388842e-23
-3.151286634e-23
-1.467757256e-23
-1.450286406e-22
-6.681311028e-22
-3.856275516e-21
-1.254061651e-20
)


101
(
1.793700312e-33
1.025496098e-23
1.122275776e-21
1.30991419e-20
6.005018047e-20
1.619773646e-19
3.118056703e-19
4.761977745e-19
5.77736546e-19
5.157525841e-19
1.618366034e-19
-5.983990501e-19
-1.858569373e-18
-3.693068915e-18
-6.124237747e-18
-9.111791578e-18
-1.255711759e-17
-1.630045115e-17
-2.008619253e-17
-2.371365642e-17
-2.689020415e-17
-2.939253421e-17
-3.113251565e-17
-3.204717486e-17
-3.213002489e-17
-3.147671713e-17
-3.023064514e-17
-2.853753153e-17
-2.654685981e-17
-2.438219967e-17
-2.215922514e-17
-1.996866394e-17
-1.78616433e-17
-1.595359135e-17
-1.419867933e-17
-1.262130824e-17
-1.121259857e-17
-9.948342908e-18
-8.820005124e-18
-7.816417875e-18
-6.930485696e-18
-6.146256866e-18
-5.467232792e-18
-4.874713244e-18
-4.351700961e-18
-3.889626731e-18
-3.473308645e-18
-3.100002566e-18
-2.765979715e-18
-2.470191701e-18
-2.207723887e-18
-1.975212187e-18
-1.767923242e-18
-1.580757714e-18
-1.410239396e-18
-1.258853432e-18
-1.122897237e-18
-9.999357851e-19
-8.895198559e-19
-7.90986491e-19
-7.016229001e-19
-6.209477258e-19
-5.483351616e-19
-4.829552735e-19
-4.245558142e-19
-3.723034123e-19
-3.261588742e-19
-2.854744046e-19
-2.493749244e-19
-2.169449982e-19
-1.879920114e-19
-1.621284336e-19
-1.393426022e-19
-1.193396341e-19
-1.017762316e-19
-8.623741916e-20
-7.261332633e-20
-6.083467377e-20
-5.059500055e-20
-4.179756361e-20
-3.420872237e-20
-2.775143314e-20
-2.233749008e-20
-1.78738316e-20
-1.412101938e-20
-1.095343567e-20
-8.447052811e-21
-6.440233854e-21
-4.831949166e-21
-3.577812322e-21
-2.591393858e-21
-1.853652234e-21
-1.308195202e-21
-9.161042765e-22
-6.294539519e-22
-4.107593256e-22
-2.2939649e-22
-1.652967484e-21
-6.557158644e-21
-3.0050746e-20
-8.988806993e-20
)


101
(
1.792147132e-33
6.789985935e-24
1.032386982e-21
1.243004721e-20
5.751045934e-20
1.559260654e-19
3.008851714e-19
4.582438515e-19
5.505306391e-19
4.72854782e-19
8.852585955e-20
-7.306896576e-19
-2.095170501e-18
-4.101068993e-18
-6.79638973e-18
-1.016719972e-17
-1.413774024e-17
-1.856671752e-17
-2.320344673e-17
-2.783840695e-17
-3.213480443e-17
-3.581125829e-17
-3.870878614e-17
-4.067918604e-17
-4.166910904e-17
-4.171996468e-17
-4.094784033e-17
-3.949828605e-17
-3.753921682e-17
-3.521347499e-17
-3.266571313e-17
-3.002253933e-17
-2.73701201e-17
-2.490111647e-17
-2.255850615e-17
-2.039400996e-17
-1.841752437e-17
-1.661052026e-17
-1.496827698e-17
-1.348252541e-17
-1.214097242e-17
-1.092441316e-17
-9.849181399e-18
-8.899857701e-18
-8.054293578e-18
-7.302205284e-18
-6.61910661e-18
-5.9984573e-18
-5.433579552e-18
-4.926011038e-18
-4.468592851e-18
-4.058525745e-18
-3.690122716e-18
-3.35419996e-18
-3.045110428e-18
-2.765059301e-18
-2.509505992e-18
-2.274111275e-18
-2.059625089e-18
-1.86556271e-18
-1.68772371e-18
-1.523977442e-18
-1.373729824e-18
-1.235404413e-18
-1.108850574e-18
-9.941972903e-19
-8.897895763e-19
-7.959493299e-19
-7.116304602e-19
-6.343652875e-19
-5.640987385e-19
-4.997572578e-19
-4.410179881e-19
-3.880359956e-19
-3.40382664e-19
-2.973933158e-19
-2.585142866e-19
-2.236451955e-19
-1.924848938e-19
-1.646668723e-19
-1.39830263e-19
-1.179083088e-19
-9.878556194e-20
-8.226682476e-20
-6.799214119e-20
-5.535225035e-20
-4.462698265e-20
-3.577080816e-20
-2.834136694e-20
-2.216219616e-20
-1.703661199e-20
-1.300056318e-20
-9.802617622e-21
-7.319175528e-21
-5.413202546e-21
-3.849503077e-21
-2.470804257e-21
-1.36554139e-20
-4.685973704e-20
-1.730122514e-19
-4.221519897e-19
)


101
(
1.791048506e-33
3.80478328e-24
9.484087203e-22
1.179463596e-20
5.511570117e-20
1.502838485e-19
2.908600926e-19
4.421084527e-19
5.264277991e-19
4.350319906e-19
2.318046739e-20
-8.532612226e-19
-2.322729789e-18
-4.506386612e-18
-7.483093398e-18
-1.127158079e-17
-1.582763828e-17
-2.103692003e-17
-2.666434108e-17
-3.250399018e-17
-3.81729708e-17
-4.33412528e-17
-4.777529256e-17
-5.122358856e-17
-5.356344771e-17
-5.476322146e-17
-5.489399519e-17
-5.407610775e-17
-5.248066875e-17
-5.025273841e-17
-4.755900179e-17
-4.456579049e-17
-4.139923256e-17
-3.834896434e-17
-3.534545705e-17
-3.248136463e-17
-2.979612162e-17
-2.728904872e-17
-2.497243379e-17
-2.285006483e-17
-2.089419493e-17
-1.907697833e-17
-1.743337122e-17
-1.595755438e-17
-1.462665353e-17
-1.343407572e-17
-1.234637187e-17
-1.13503461e-17
-1.043099767e-17
-9.594278221e-18
-8.824624528e-18
-8.125067171e-18
-7.494329968e-18
-6.914494009e-18
-6.375978657e-18
-5.876853641e-18
-5.420873876e-18
-4.99131604e-18
-4.596133417e-18
-4.231428454e-18
-3.895742078e-18
-3.580717579e-18
-3.286613353e-18
-3.011610105e-18
-2.755954241e-18
-2.518841553e-18
-2.298100706e-18
-2.095931491e-18
-1.909998801e-18
-1.738997701e-18
-1.580645223e-18
-1.433382391e-18
-1.294621972e-18
-1.165822804e-18
-1.046969101e-18
-9.374998667e-19
-8.367751834e-19
-7.443609385e-19
-6.586283529e-19
-5.800942949e-19
-5.076060466e-19
-4.418555372e-19
-3.822020185e-19
-3.286870021e-19
-2.813852735e-19
-2.382452063e-19
-1.993169137e-19
-1.659790827e-19
-1.371161802e-19
-1.121517537e-19
-9.029603805e-20
-7.236743733e-20
-5.736484423e-20
-4.517393439e-20
-3.527257442e-20
-2.682227857e-20
-1.908853766e-20
-8.361252143e-20
-2.510002873e-19
-7.696436608e-19
-1.736576919e-18
)


101
(
1.791094057e-33
1.224569122e-24
8.696317768e-22
1.118847887e-20
5.284098813e-20
1.449777438e-19
2.81600043e-19
4.275758975e-19
5.050166273e-19
4.016163092e-19
-3.460766343e-20
-9.664274586e-19
-2.541226552e-18
-4.908022239e-18
-8.182602183e-18
-1.242345166e-17
-1.762941874e-17
-2.372356066e-17
-3.049569899e-17
-3.77638524e-17
-4.508847245e-17
-5.210845885e-17
-5.852122721e-17
-6.397169926e-17
-6.824358937e-17
-7.119802567e-17
-7.283445086e-17
-7.321777655e-17
-7.250317927e-17
-7.082039977e-17
-6.834313105e-17
-6.526536516e-17
-6.174914415e-17
-5.820952252e-17
-5.455495078e-17
-5.093621409e-17
-4.743666694e-17
-4.408949913e-17
-4.094384463e-17
-3.802467535e-17
-3.528906179e-17
-3.268967886e-17
-3.028320608e-17
-2.807244107e-17
-2.60442829e-17
-2.421116337e-17
-2.253192385e-17
-2.098630904e-17
-1.954889768e-17
-1.822345573e-17
-1.69811175e-17
-1.58369841e-17
-1.480161552e-17
-1.384167967e-17
-1.294458613e-17
-1.210331898e-17
-1.13269822e-17
-1.058756299e-17
-9.891846899e-18
-9.241908784e-18
-8.64099101e-18
-8.069977564e-18
-7.524598018e-18
-7.01074895e-18
-6.528218576e-18
-6.067028769e-18
-5.633108933e-18
-5.222855153e-18
-4.842846112e-18
-4.488058524e-18
-4.154050766e-18
-3.840282445e-18
-3.539077446e-18
-3.252103767e-18
-2.979408907e-18
-2.721386354e-18
-2.481918428e-18
-2.256854559e-18
-2.043463528e-18
-1.843191951e-18
-1.651768786e-18
-1.473599407e-18
-1.308169271e-18
-1.154623737e-18
-1.013987263e-18
-8.844020964e-19
-7.636053815e-19
-6.544391529e-19
-5.58092109e-19
-4.727862278e-19
-3.942264197e-19
-3.282750469e-19
-2.696217013e-19
-2.210251574e-19
-1.799272515e-19
-1.439091038e-19
-1.095858425e-19
-3.920819515e-19
-1.041541095e-18
-2.747168197e-18
-6.246318674e-18
)


101
(
1.791139601e-33
-1.009599699e-24
7.955017995e-22
1.060840825e-20
5.066881215e-20
1.399568655e-19
2.730050226e-19
4.144836489e-19
4.860568562e-19
3.721787198e-19
-8.545205271e-20
-1.070171701e-18
-2.750465371e-18
-5.305560331e-18
-8.894433439e-18
-1.362266244e-17
-1.954321184e-17
-2.663087201e-17
-3.471075448e-17
-4.364318978e-17
-5.29420864e-17
-6.223203846e-17
-7.115697183e-17
-7.924683549e-17
-8.618475186e-17
-9.16958005e-17
-9.566060453e-17
-9.804454761e-17
-9.896473543e-17
-9.852610938e-17
-9.689877587e-17
-9.426520895e-17
-9.078069311e-17
-8.70387549e-17
-8.290430528e-17
-7.860821099e-17
-7.429088669e-17
-7.003581534e-17
-6.59585955e-17
-6.211770755e-17
-5.847233648e-17
-5.492907569e-17
-5.157166537e-17
-4.841198634e-17
-4.54530479e-17
-4.274153231e-17
-4.023622622e-17
-3.792799984e-17
-3.576723798e-17
-3.375131395e-17
-3.184597292e-17
-3.00674702e-17
-2.843881936e-17
-2.692464758e-17
-2.550636858e-17
-2.416664948e-17
-2.291426517e-17
-2.171471444e-17
-2.056008706e-17
-1.946643983e-17
-1.843837084e-17
-1.746506992e-17
-1.651903051e-17
-1.56234441e-17
-1.476773875e-17
-1.393171862e-17
-1.313058397e-17
-1.235903436e-17
-1.16359601e-17
-1.094421717e-17
-1.028427828e-17
-9.658858803e-18
-9.04920751e-18
-8.46087117e-18
-7.886167694e-18
-7.321838532e-18
-6.787503784e-18
-6.27677159e-18
-5.792016833e-18
-5.321392953e-18
-4.861261638e-18
-4.421942005e-18
-4.001947132e-18
-3.605597487e-18
-3.232470014e-18
-2.879426714e-18
-2.545376586e-18
-2.232213003e-18
-1.946849882e-18
-1.691615754e-18
-1.447873999e-18
-1.23898748e-18
-1.046741785e-18
-8.82610745e-19
-7.414410353e-19
-6.140727952e-19
-4.896198604e-19
-1.480914704e-18
-3.530192253e-18
-8.227028445e-18
-1.534432545e-17
)


101
(
1.791183146e-33
-2.946771486e-24
7.255855177e-22
1.005209542e-20
4.858644518e-20
1.351838687e-19
2.649986159e-19
4.027110496e-19
4.693657027e-19
3.463733143e-19
-1.300666097e-19
-1.164197374e-18
-2.949803236e-18
-5.698583704e-18
-9.618439616e-18
-1.487000598e-17
-2.156843e-17
-2.975621312e-17
-3.930989063e-17
-5.013748562e-17
-6.176509474e-17
-7.380728894e-17
-8.588898893e-17
-9.738612328e-17
-1.07893886e-16
-1.169929451e-16
-1.243754544e-16
-1.29855542e-16
-1.334891045e-16
-1.353364175e-16
-1.355415439e-16
-1.342402263e-16
-1.315201265e-16
-1.281826791e-16
-1.240241733e-16
-1.193810502e-16
-1.144571281e-16
-1.093927667e-16
-1.044119062e-16
-9.964459389e-17
-9.50443908e-17
-9.047568091e-17
-8.606412695e-17
-8.180061391e-17
-7.770094133e-17
-7.38778992e-17
-7.031297409e-17
-6.703011067e-17
-6.391975548e-17
-6.100192447e-17
-5.824227361e-17
-5.563672223e-17
-5.320346707e-17
-5.094976211e-17
-4.882611057e-17
-4.679658471e-17
-4.490941397e-17
-4.309207804e-17
-4.130707651e-17
-3.95780562e-17
-3.793512434e-17
-3.637581101e-17
-3.48584134e-17
-3.340978453e-17
-3.197630944e-17
-3.05899433e-17
-2.921518081e-17
-2.786096507e-17
-2.65634501e-17
-2.529839463e-17
-2.408595974e-17
-2.291158879e-17
-2.175825047e-17
-2.063062073e-17
-1.950730694e-17
-1.836879381e-17
-1.723787793e-17
-1.616047686e-17
-1.511531024e-17
-1.408883873e-17
-1.30742059e-17
-1.207156195e-17
-1.107944198e-17
-1.013644182e-17
-9.227162183e-18
-8.351655693e-18
-7.506030328e-18
-6.699397284e-18
-5.936097163e-18
-5.247275875e-18
-4.581698957e-18
-3.991184947e-18
-3.445496825e-18
-2.961916755e-18
-2.542918486e-18
-2.160127209e-18
-1.783524178e-18
-4.680010792e-18
-1.015253622e-17
-2.153919065e-17
-3.821979369e-17
)


101
(
1.791228025e-33
-4.63176979e-24
6.603961394e-22
9.51781879e-21
4.65845719e-20
1.306294997e-19
2.575190145e-19
3.921617559e-19
4.548809165e-19
3.240277075e-19
-1.689857549e-19
-1.248414559e-18
-3.138412077e-18
-6.08594313e-18
-1.035299357e-17
-1.616456042e-17
-2.370488972e-17
-3.310066664e-17
-4.4302317e-17
-5.725525102e-17
-7.160001501e-17
-8.693416427e-17
-1.029108061e-16
-1.187187621e-16
-1.33871788e-16
-1.478271838e-16
-1.60036069e-16
-1.700955237e-16
-1.779631248e-16
-1.836100251e-16
-1.870879884e-16
-1.884675148e-16
-1.877477664e-16
-1.859105431e-16
-1.826438606e-16
-1.784189495e-16
-1.734957628e-16
-1.680537551e-16
-1.624506814e-16
-1.569598063e-16
-1.51562221e-16
-1.460945324e-16
-1.407108877e-16
-1.353600526e-16
-1.300532268e-16
-1.249995348e-16
-1.202288759e-16
-1.158208249e-16
-1.11615662e-16
-1.076635032e-16
-1.039156025e-16
-1.003592107e-16
-9.698492541e-17
-9.385347465e-17
-9.090149768e-17
-8.803949428e-17
-8.540606946e-17
-8.285065241e-17
-8.033057336e-17
-7.7824448e-17
-7.540937969e-17
-7.308550321e-17
-7.085561315e-17
-6.869191672e-17
-6.649658033e-17
-6.437897168e-17
-6.218905077e-17
-5.998999901e-17
-5.78172585e-17
-5.569390562e-17
-5.360725491e-17
-5.152308044e-17
-4.946468338e-17
-4.741576291e-17
-4.533557938e-17
-4.319664051e-17
-4.1008871e-17
-3.882278792e-17
-3.667105503e-17
-3.45580778e-17
-3.245588298e-17
-3.029532536e-17
-2.812395732e-17
-2.600730892e-17
-2.393583455e-17
-2.191035756e-17
-1.991178391e-17
-1.799534905e-17
-1.612616662e-17
-1.441654034e-17
-1.277453933e-17
-1.125480807e-17
-9.85649851e-18
-8.591054532e-18
-7.474667466e-18
-6.460601564e-18
-5.462471418e-18
-1.2799032e-17
-2.571021633e-17
-5.10809337e-17
-9.020569533e-17
)


101
(
1.791274238e-33
-6.102536901e-24
5.988736581e-22
9.004260138e-21
4.465605581e-20
1.262704659e-19
2.505130873e-19
3.827439492e-19
4.426925115e-19
3.054535372e-19
-2.026813124e-19
-1.323215522e-18
-3.316046123e-18