/*--------------------------------*- C++ -*----------------------------------*\
| =========                 |                                                 |
| \\      /  F ield         | OpenFOAM: The Open Source CFD Toolbox           |
|  \\    /   O peration     | Version:  2.3.1                                 |
|   \\  /    A nd           | Web:      www.OpenFOAM.org                      |
|    \\/     M anipulation  |                                                 |
\*---------------------------------------------------------------------------*/
FoamFile
{
    version     2.0;
    format      ascii;
    class       dictionary;
    location    "constant";
    object      DPSI12;
}
// * * * * * * * * * * * * * * * * * * * * * * * * * * * * * * * * * * * * * //

DPSI12_table
101
(

101
(
-1.752568168e-10
-1.761032046e-09
-8.774949918e-09
-2.374087171e-08
-4.543448287e-08
-7.096716317e-08
-9.961479766e-08
-1.301386196e-07
-1.60796911e-07
-1.913884895e-07
-2.215558061e-07
-2.507996134e-07
-2.795829806e-07
-3.077517733e-07
-3.344993348e-07
-3.60478284e-07
-3.862009379e-07
-4.102997171e-07
-4.344139002e-07
-4.583289046e-07
-4.802152562e-07
-5.02939313e-07
-5.259004827e-07
-5.476935736e-07
-5.6905304e-07
-5.901917768e-07
-6.109529465e-07
-6.315740293e-07
-6.519749319e-07
-6.719599348e-07
-6.914532582e-07
-7.094804507e-07
-7.292275327e-07
-7.492506199e-07
-7.669972425e-07
-7.846213825e-07
-8.012884056e-07
-8.179530309e-07
-8.356061172e-07
-8.531478892e-07
-8.687434484e-07
-8.839346377e-07
-8.99637045e-07
-9.140578303e-07
-9.28322409e-07
-9.424624457e-07
-9.562729523e-07
-9.698976427e-07
-9.83164608e-07
-9.960840566e-07
-1.008457262e-06
-1.020674545e-06
-1.032490775e-06
-1.043862472e-06
-1.054845773e-06
-1.066127546e-06
-1.076711757e-06
-1.086823547e-06
-1.096956918e-06
-1.106607817e-06
-1.116084529e-06
-1.125070218e-06
-1.133869261e-06
-1.14242033e-06
-1.150689363e-06
-1.158666828e-06
-1.166301044e-06
-1.173802567e-06
-1.181009095e-06
-1.187877844e-06
-1.194567086e-06
-1.201117042e-06
-1.20730368e-06
-1.21296235e-06
-1.218340985e-06
-1.223801706e-06
-1.229165377e-06
-1.234032466e-06
-1.238574657e-06
-1.242881637e-06
-1.247122289e-06
-1.251123118e-06
-1.254796974e-06
-1.258356981e-06
-1.261708775e-06
-1.264815334e-06
-1.26772383e-06
-1.27046385e-06
-1.273017355e-06
-1.2754556e-06
-1.277753674e-06
-1.279842591e-06
-1.281820015e-06
-1.283674134e-06
-1.285432652e-06
-1.28671803e-06
-6.439349897e-07
5.166995387e-15
0
0
0
)


101
(
-1.539123744e-10
-1.677340995e-09
-8.460742273e-09
-2.299112967e-08
-4.411401319e-08
-6.904771485e-08
-9.702846224e-08
-1.269121444e-07
-1.570246188e-07
-1.871145511e-07
-2.168489704e-07
-2.457806158e-07
-2.742258357e-07
-3.021573415e-07
-3.28877863e-07
-3.547823007e-07
-3.80367758e-07
-4.047938081e-07
-4.288123401e-07
-4.528295492e-07
-4.754795225e-07
-4.980748175e-07
-5.211297582e-07
-5.436723914e-07
-5.656345789e-07
-5.873265388e-07
-6.087748006e-07
-6.30038908e-07
-6.511920816e-07
-6.721066204e-07
-6.926594468e-07
-7.123925584e-07
-7.319699785e-07
-7.525493876e-07
-7.726092823e-07
-7.915928564e-07
-8.100338286e-07
-8.279814821e-07
-8.4604936e-07
-8.645843988e-07
-8.82813136e-07
-8.998404016e-07
-9.165374739e-07
-9.332077274e-07
-9.491505594e-07
-9.648472625e-07
-9.803267968e-07
-9.955832772e-07
-1.010610229e-06
-1.025361603e-06
-1.039765409e-06
-1.053753359e-06
-1.067508093e-06
-1.080941766e-06
-1.093977448e-06
-1.106619338e-06
-1.119376101e-06
-1.131662414e-06
-1.143526395e-06
-1.155237674e-06
-1.166599152e-06
-1.177734305e-06
-1.188476203e-06
-1.198959308e-06
-1.209195724e-06
-1.219179993e-06
-1.228880736e-06
-1.238238143e-06
-1.247421469e-06
-1.256337766e-06
-1.264911887e-06
-1.273214574e-06
-1.281335116e-06
-1.289184334e-06
-1.296694981e-06
-1.303904546e-06
-1.310946273e-06
-1.31785574e-06
-1.324413761e-06
-1.330630923e-06
-1.33655295e-06
-1.342316126e-06
-1.347851066e-06
-1.353172571e-06
-1.358329768e-06
-1.363218013e-06
-1.36781441e-06
-1.372171719e-06
-1.376242829e-06
-1.380243025e-06
-1.384050057e-06
-1.387480519e-06
-1.390748167e-06
-1.393788247e-06
-1.395351112e-06
-1.39454332e-06
-6.823938498e-07
3.165736056e-08
3.354288018e-08
3.535810493e-08
3.697164723e-08
)


101
(
-1.335245825e-10
-1.596153155e-09
-8.153598043e-09
-2.2255386e-08
-4.281451143e-08
-6.715390461e-08
-9.447442723e-08
-1.237171277e-07
-1.532774385e-07
-1.828583174e-07
-2.121472847e-07
-2.407439614e-07
-2.688420964e-07
-2.965042122e-07
-3.231472705e-07
-3.48958057e-07
-3.743880717e-07
-3.990196725e-07
-4.229877333e-07
-4.470175438e-07
-4.70241856e-07
-4.92851222e-07
-5.159016995e-07
-5.389549376e-07
-5.6146417e-07
-5.836492893e-07
-6.056651836e-07
-6.27492405e-07
-6.492692502e-07
-6.709561119e-07
-6.924202283e-07
-7.135322243e-07
-7.334824764e-07
-7.54335052e-07
-7.758876073e-07
-7.96309644e-07
-8.162915996e-07
-8.355948114e-07
-8.543721766e-07
-8.736275323e-07
-8.936015748e-07
-9.124860531e-07
-9.304484865e-07
-9.487696531e-07
-9.6639051e-07
-9.836024059e-07
-1.000595953e-06
-1.017354922e-06
-1.033947115e-06
-1.050331293e-06
-1.066503445e-06
-1.082202256e-06
-1.097687051e-06
-1.112951344e-06
-1.12787535e-06
-1.142096463e-06
-1.156574773e-06
-1.170789923e-06
-1.184442344e-06
-1.197972615e-06
-1.211135686e-06
-1.22415695e-06
-1.236771975e-06
-1.24907938e-06
-1.26114215e-06
-1.272981922e-06
-1.284581798e-06
-1.295777855e-06
-1.306794308e-06
-1.317596239e-06
-1.328034851e-06
-1.338120094e-06
-1.348013384e-06
-1.357745839e-06
-1.367213702e-06
-1.376301114e-06
-1.385105571e-06
-1.393870529e-06
-1.402362194e-06
-1.41047982e-06
-1.418211049e-06
-1.425732371e-06
-1.433051137e-06
-1.440158356e-06
-1.447081253e-06
-1.453797236e-06
-1.460223293e-06
-1.466320185e-06
-1.471981544e-06
-1.477604571e-06
-1.482948544e-06
-1.487831675e-06
-1.4925539e-06
-1.496804718e-06
-1.497978109e-06
-1.494468795e-06
-7.143014473e-07
6.790427554e-08
7.154669985e-08
7.504728358e-08
7.813150071e-08
)


101
(
-1.140779088e-10
-1.51744245e-09
-7.853475161e-09
-2.153360559e-08
-4.153601282e-08
-6.528592388e-08
-9.195296421e-08
-1.205545822e-07
-1.495569709e-07
-1.786219758e-07
-2.07453896e-07
-2.356945318e-07
-2.634358465e-07
-2.90800829e-07
-3.173192184e-07
-3.430141476e-07
-3.682721403e-07
-3.930079365e-07
-4.169404509e-07
-4.409242645e-07
-4.64555164e-07
-4.872522266e-07
-5.102574776e-07
-5.336261017e-07
-5.565861996e-07
-5.792034284e-07
-6.016889495e-07
-6.239944997e-07
-6.462844633e-07
-6.685986208e-07
-6.908260313e-07
-7.130544397e-07
-7.336279598e-07
-7.547421017e-07
-7.772244382e-07
-7.988712139e-07
-8.202056245e-07
-8.408197868e-07
-8.604902317e-07
-8.804243008e-07
-9.015921703e-07
-9.220397784e-07
-9.41347704e-07
-9.610646648e-07
-9.801807695e-07
-9.988358218e-07
-1.01723336e-06
-1.035373377e-06
-1.053372557e-06
-1.07121264e-06
-1.088935765e-06
-1.106204456e-06
-1.123262703e-06
-1.140154202e-06
-1.156772882e-06
-1.172576774e-06
-1.188615411e-06
-1.204505439e-06
-1.219838529e-06
-1.235050559e-06
-1.249889468e-06
-1.264622689e-06
-1.278968683e-06
-1.29298556e-06
-1.306748117e-06
-1.320303833e-06
-1.333651366e-06
-1.34659031e-06
-1.359338488e-06
-1.371885396e-06
-1.384083742e-06
-1.395912622e-06
-1.407515969e-06
-1.418980418e-06
-1.430232509e-06
-1.441124948e-06
-1.451684875e-06
-1.462228145e-06
-1.472572109e-06
-1.482563057e-06
-1.492137066e-06
-1.501440838e-06
-1.51052641e-06
-1.519419931e-06
-1.528099672e-06
-1.536605337e-06
-1.544901655e-06
-1.552884271e-06
-1.560245156e-06
-1.567562129e-06
-1.574501103e-06
-1.580847479e-06
-1.5871251e-06
-1.592677689e-06
-1.593218591e-06
-1.586406859e-06
-7.398260119e-07
1.083875335e-07
1.136676254e-07
1.187369644e-07
1.231646919e-07
)


101
(
-9.555669702e-11
-1.44118233e-09
-7.560330414e-09
-2.082575193e-08
-4.027854924e-08
-6.344395514e-08
-8.946433146e-08
-1.174254675e-07
-1.458647838e-07
-1.744076622e-07
-2.027718578e-07
-2.306370259e-07
-2.580112448e-07
-2.850549969e-07
-3.114049991e-07
-3.369595645e-07
-3.620297503e-07
-3.867855709e-07
-4.106767667e-07
-4.345742548e-07
-4.584681598e-07
-4.812763965e-07
-5.042239763e-07
-5.277582337e-07
-5.510549114e-07
-5.740337682e-07
-5.969043525e-07
-6.196057691e-07
-6.423110192e-07
-6.651220745e-07
-6.879682782e-07
-7.110913379e-07
-7.323671819e-07
-7.538128089e-07
-7.768873697e-07
-7.99471329e-07
-8.2194484e-07
-8.437446903e-07
-8.643775758e-07
-8.850265235e-07
-9.070916358e-07
-9.287687105e-07
-9.493278962e-07
-9.702920471e-07
-9.907178797e-07
-1.010692098e-06
-1.030387747e-06
-1.049798728e-06
-1.069070151e-06
-1.088209327e-06
-1.107298002e-06
-1.125975683e-06
-1.14445971e-06
-1.162806181e-06
-1.180931803e-06
-1.198218741e-06
-1.215708813e-06
-1.233090076e-06
-1.249944669e-06
-1.266699026e-06
-1.28308411e-06
-1.29938567e-06
-1.315321579e-06
-1.330922677e-06
-1.346261639e-06
-1.361401697e-06
-1.376355783e-06
-1.390917556e-06
-1.405294197e-06
-1.419469192e-06
-1.433309696e-06
-1.446795037e-06
-1.460035947e-06
-1.473136576e-06
-1.486055323e-06
-1.498657129e-06
-1.510906946e-06
-1.52315243e-06
-1.535259532e-06
-1.547069089e-06
-1.558493935e-06
-1.569602563e-06
-1.580458916e-06
-1.591136565e-06
-1.601576204e-06
-1.611870615e-06
-1.621998766e-06
-1.631915124e-06
-1.6411208e-06
-1.650233228e-06
-1.658820286e-06
-1.666642007e-06
-1.674539594e-06
-1.681479753e-06
-1.681135393e-06
-1.67042626e-06
-7.591893053e-07
1.527883798e-07
1.595944768e-07
1.661258772e-07
1.717874364e-07
)


101
(
-7.79450536e-11
-1.367345735e-09
-7.274119386e-09
-2.013178626e-08
-3.904214839e-08
-6.162817246e-08
-8.700877422e-08
-1.143306906e-07
-1.422024057e-07
-1.702174594e-07
-1.981041376e-07
-2.255759543e-07
-2.525724723e-07
-2.792739569e-07
-3.054154357e-07
-3.308035742e-07
-3.556703398e-07
-3.803763758e-07
-4.042069895e-07
-4.279878232e-07
-4.520247462e-07
-4.749332071e-07
-4.978206605e-07
-5.214108978e-07
-5.449283113e-07
-5.681883829e-07
-5.913657048e-07
-6.143852909e-07
-6.374183998e-07
-6.606107383e-07
-6.839387702e-07
-7.077626278e-07
-7.2971876e-07
-7.51563588e-07
-7.750648698e-07
-7.983174749e-07
-8.216844808e-07
-8.445004548e-07
-8.660707472e-07
-8.874642968e-07
-9.102820557e-07
-9.329234314e-07
-9.545588016e-07
-9.766265042e-07
-9.981972468e-07
-1.019345589e-06
-1.040219837e-06
-1.060792857e-06
-1.081217764e-06
-1.101517727e-06
-1.12180874e-06
-1.14173454e-06
-1.161497644e-06
-1.18114746e-06
-1.200613087e-06
-1.219247641e-06
-1.23807262e-06
-1.256800184e-06
-1.275020119e-06
-1.293167764e-06
-1.310962266e-06
-1.328696661e-06
-1.346089393e-06
-1.363151941e-06
-1.379949917e-06
-1.396550919e-06
-1.412977573e-06
-1.429033753e-06
-1.444927766e-06
-1.460624301e-06
-1.475997494e-06
-1.491038738e-06
-1.505828461e-06
-1.52047453e-06
-1.53496402e-06
-1.549193247e-06
-1.563064395e-06
-1.576934892e-06
-1.590713859e-06
-1.604255255e-06
-1.617502113e-06
-1.630435893e-06
-1.643081205e-06
-1.655550341e-06
-1.667746697e-06
-1.67983255e-06
-1.691793042e-06
-1.703617436e-06
-1.714733957e-06
-1.725787978e-06
-1.736096127e-06
-1.745430341e-06
-1.754954477e-06
-1.763326108e-06
-1.761891417e-06
-1.746712446e-06
-7.726461228e-07
2.008198626e-07
2.090540074e-07
2.169568618e-07
2.237620442e-07
)


101
(
-6.122693354e-11
-1.295905194e-09
-6.994796636e-09
-1.945166811e-08
-3.782683494e-08
-5.98387435e-08
-8.458652722e-08
-1.112711107e-07
-1.385713267e-07
-1.660534023e-07
-1.934536209e-07
-2.205156718e-07
-2.471237428e-07
-2.734645032e-07
-2.993609085e-07
-3.245556465e-07
-3.492031574e-07
-3.738014701e-07
-3.975441918e-07
-4.211829143e-07
-4.452638196e-07
-4.682398265e-07
-4.910642958e-07
-5.146323668e-07
-5.382635815e-07
-5.617181426e-07
-5.851253207e-07
-6.083898242e-07
-6.316724739e-07
-6.551453456e-07
-6.788289474e-07
-7.031791202e-07
-7.2573526e-07
-7.480108579e-07
-7.718669386e-07
-7.955934483e-07
-8.196208091e-07
-8.432513575e-07
-8.656598228e-07
-8.877844421e-07
-9.112794897e-07
-9.347012072e-07
-9.572308396e-07
-9.802482104e-07
-1.002808393e-06
-1.024981298e-06
-1.046903837e-06
-1.068525964e-06
-1.089993552e-06
-1.111330503e-06
-1.132678093e-06
-1.153698443e-06
-1.174593764e-06
-1.195404037e-06
-1.216060463e-06
-1.235905702e-06
-1.255942387e-06
-1.275885676e-06
-1.295329353e-06
-1.314722826e-06
-1.333784775e-06
-1.352814295e-06
-1.371532567e-06
-1.389936288e-06
-1.408083103e-06
-1.426034031e-06
-1.443810268e-06
-1.461232762e-06
-1.478523954e-06
-1.495634379e-06
-1.512439296e-06
-1.528940299e-06
-1.54518645e-06
-1.561284658e-06
-1.577250559e-06
-1.593025847e-06
-1.608454404e-06
-1.623887257e-06
-1.63926242e-06
-1.654443502e-06
-1.669437783e-06
-1.684181185e-06
-1.698638945e-06
-1.712922853e-06
-1.72688755e-06
-1.74076666e-06
-1.754556291e-06
-1.768270208e-06
-1.781311829e-06
-1.794407737e-06
-1.80654124e-06
-1.817439982e-06
-1.828593629e-06
-1.838430549e-06
-1.835706814e-06
-1.815496854e-06
-7.804543507e-07
2.522141018e-07
2.618075319e-07
2.710185772e-07
2.788935306e-07
)


101
(
-4.538613456e-11
-1.226832618e-09
-6.72231507e-09
-1.878535387e-08
-3.663262802e-08
-5.807582573e-08
-8.219780975e-08
-1.082475335e-07
-1.34972988e-07
-1.619174713e-07
-1.888231049e-07
-2.154603678e-07
-2.416692651e-07
-2.676330087e-07
-2.932513047e-07
-3.182253682e-07
-3.426373442e-07
-3.670795811e-07
-3.907029916e-07
-4.141763074e-07
-4.382197467e-07
-4.612181588e-07
-4.839713067e-07
-5.074618244e-07
-5.311143266e-07
-5.546756621e-07
-5.782353053e-07
-6.016737625e-07
-6.251347435e-07
-6.488012207e-07
-6.72728601e-07
-6.974496778e-07
-7.204920046e-07
-7.431839462e-07
-7.673632945e-07
-7.914409124e-07
-8.159364003e-07
-8.401771487e-07
-8.632772386e-07
-8.860677366e-07
-9.101786081e-07
-9.342551385e-07
-9.575225808e-07
-9.813382333e-07
-1.004738786e-06
-1.027787027e-06
-1.050619638e-06
-1.073171597e-06
-1.095574994e-06
-1.117839559e-06
-1.14011529e-06
-1.162084706e-06
-1.183965804e-06
-1.205796223e-06
-1.227502885e-06
-1.248424777e-06
-1.269553772e-06
-1.290594953e-06
-1.311134017e-06
-1.3316355e-06
-1.351823923e-06
-1.372007746e-06
-1.391916208e-06
-1.411537901e-06
-1.430926482e-06
-1.45012878e-06
-1.469148344e-06
-1.487817497e-06
-1.506382345e-06
-1.524792725e-06
-1.542927753e-06
-1.560796183e-06
-1.578411896e-06
-1.595873399e-06
-1.613221711e-06
-1.6304564e-06
-1.647375081e-06
-1.664314763e-06
-1.681224579e-06
-1.697968645e-06
-1.714626487e-06
-1.731121974e-06
-1.747385607e-06
-1.763506583e-06
-1.779261356e-06
-1.794959487e-06
-1.81058593e-06
-1.826180203e-06
-1.841115441e-06
-1.856313069e-06
-1.870383672e-06
-1.882898682e-06
-1.895699989e-06
-1.907014117e-06
-1.902833966e-06
-1.877033092e-06
-7.828340568e-07
3.067557892e-07
3.176476827e-07
3.281101013e-07
3.369955956e-07
)


101
(
-3.040624208e-11
-1.160099507e-09
-6.456626721e-09
-1.813279859e-08
-3.545954448e-08
-5.633957178e-08
-7.984283296e-08
-1.052607213e-07
-1.314087916e-07
-1.578116032e-07
-1.842153159e-07
-2.104140852e-07
-2.36213234e-07
-2.61785495e-07
-2.870960171e-07
-3.118223797e-07
-3.359820018e-07
-3.602275684e-07
-3.836987431e-07
-4.069840855e-07
-4.309232914e-07
-4.538930035e-07
-4.765591596e-07
-4.999318764e-07
-5.235291276e-07
-5.47113284e-07
-5.707478595e-07
-5.942903511e-07
-6.178633035e-07
-6.416480094e-07
-6.657222292e-07
-6.906779124e-07
-7.140798884e-07
-7.371326406e-07
-7.616061171e-07
-7.859620885e-07
-8.10786375e-07
-8.35457672e-07
-8.590830185e-07
-8.824288239e-07
-9.070778118e-07
-9.31710707e-07
-9.555893752e-07
-9.800677559e-07
-1.004171513e-06
-1.027952922e-06
-1.051554526e-06
-1.074907652e-06
-1.098133854e-06
-1.121224638e-06
-1.144321725e-06
-1.167113261e-06
-1.18983754e-06
-1.212546144e-06
-1.23516575e-06
-1.257032835e-06
-1.279132463e-06
-1.301159754e-06
-1.32268323e-06
-1.344171568e-06
-1.365354854e-06
-1.386554482e-06
-1.407514131e-06
-1.428222205e-06
-1.448739065e-06
-1.469098807e-06
-1.489273123e-06
-1.509088203e-06
-1.528808161e-06
-1.548396045e-06
-1.567753441e-06
-1.586899254e-06
-1.605803427e-06
-1.624546956e-06
-1.643189826e-06
-1.661793512e-06
-1.680124836e-06
-1.698512597e-06
-1.716903231e-06
-1.735143494e-06
-1.753390266e-06
-1.771570771e-06
-1.789606771e-06
-1.807568202e-06
-1.82512489e-06
-1.842671499e-06
-1.860151647e-06
-1.877629058e-06
-1.894432625e-06
-1.911746864e-06
-1.927844505e-06
-1.942032411e-06
-1.956514886e-06
-1.969305167e-06
-1.963442036e-06
-1.931597517e-06
-7.800810301e-07
3.642696268e-07
3.764093139e-07
3.880805428e-07
3.979359929e-07
)


101
(
-1.627063966e-11
-1.095676722e-09
-6.197681735e-09
-1.749395362e-08
-3.430759497e-08
-5.46301238e-08
-7.752179267e-08
-1.023113843e-07
-1.278800848e-07
-1.537376764e-07
-1.796328933e-07
-2.05380715e-07
-2.307598211e-07
-2.559276913e-07
-2.809039344e-07
-3.053562652e-07
-3.292462246e-07
-3.53260618e-07
-3.765470671e-07
-3.996220461e-07
-4.234017257e-07
-4.462904168e-07
-4.688470681e-07
-4.92070436e-07
-5.155508525e-07
-5.390814777e-07
-5.627150668e-07
-5.862920648e-07
-6.099135114e-07
-6.337501132e-07
-6.57889079e-07
-6.829626716e-07
-7.065971201e-07
-7.299257295e-07
-7.546480963e-07
-7.792327903e-07
-8.042927617e-07
-8.292528333e-07
-8.532444376e-07
-8.770105612e-07
-9.020942169e-07
-9.271881351e-07
-9.515706187e-07
-9.765918086e-07
-1.001275599e-06
-1.025661225e-06
-1.049896797e-06
-1.073919912e-06
-1.097848931e-06
-1.121658909e-06
-1.145478479e-06
-1.16898942e-06
-1.192434841e-06
-1.215883037e-06
-1.239276622e-06
-1.261956074e-06
-1.284901187e-06
-1.30780309e-06
-1.330209051e-06
-1.352579064e-06
-1.374643151e-06
-1.396733e-06
-1.418607867e-06
-1.440262814e-06
-1.461780146e-06
-1.48319523e-06
-1.504443089e-06
-1.525325283e-06
-1.546104228e-06
-1.566751642e-06
-1.587211452e-06
-1.60753249e-06
-1.627643342e-06
-1.647597031e-06
-1.667458214e-06
-1.6873437e-06
-1.706999174e-06
-1.726767618e-06
-1.746591977e-06
-1.766270474e-06
-1.786030424e-06
-1.805825709e-06
-1.825592295e-06
-1.845381348e-06
-1.864732115e-06
-1.884140357e-06
-1.903510126e-06
-1.922875264e-06
-1.941529427e-06
-1.960954651e-06
-1.979133374e-06
-1.995062208e-06
-2.011258923e-06
-2.025515419e-06
-2.01776406e-06
-1.97943339e-06
-7.723974975e-07
4.245952578e-07
4.379413888e-07
4.507802695e-07
4.615702146e-07
)


101
(
-2.962596855e-12
-1.033534714e-09
-5.945429439e-09
-1.686876942e-08
-3.317678912e-08
-5.294762143e-08
-7.523488062e-08
-9.940019549e-08
-1.243881736e-07
-1.496975297e-07
-1.750784175e-07
-2.003640201e-07
-2.253131542e-07
-2.500650727e-07
-2.74683502e-07
-2.988365316e-07
-3.224391473e-07
-3.461926131e-07
-3.692633057e-07
-3.921057938e-07
-4.156799927e-07
-4.384368147e-07
-4.608556494e-07
-4.839024606e-07
-5.072171678e-07
-5.30627755e-07
-5.541884805e-07
-5.777311454e-07
-6.013387383e-07
-6.251669902e-07
-6.49301137e-07
-6.743956172e-07
-6.981449405e-07
-7.216478943e-07
-7.465517482e-07
-7.713160497e-07
-7.965480541e-07
-8.216972054e-07
-8.459223498e-07
-8.699690804e-07
-8.953629926e-07
-9.20811732e-07
-9.455969371e-07
-9.710544245e-07
-9.962098107e-07
-1.021085312e-06
-1.045828957e-06
-1.070391968e-06
-1.094901442e-06
-1.119320382e-06
-1.143761839e-06
-1.167896663e-06
-1.191963258e-06
-1.216033824e-06
-1.240067561e-06
-1.263424814e-06
-1.287086089e-06
-1.310745501e-06
-1.333932271e-06
-1.357088741e-06
-1.379935712e-06
-1.402807578e-06
-1.425476329e-06
-1.447942547e-06
-1.470320186e-06
-1.492668513e-06
-1.514900555e-06
-1.53678198e-06
-1.558547075e-06
-1.580156372e-06
-1.601600167e-06
-1.622982424e-06
-1.644206718e-06
-1.665296175e-06
-1.686306882e-06
-1.707400373e-06
-1.72829496e-06
-1.749357076e-06
-1.770556795e-06
-1.791634058e-06
-1.81284065e-06
-1.834166946e-06
-1.855607235e-06
-1.877212362e-06
-1.898343264e-06
-1.919591692e-06
-1.940886581e-06
-1.962163859e-06
-1.98264534e-06
-2.004147064e-06
-2.024450865e-06
-2.042197117e-06
-2.060129843e-06
-2.075838088e-06
-2.06600852e-06
-2.020756842e-06
-7.599692528e-07
4.875889903e-07
5.02108128e-07
5.161043904e-07
5.278298785e-07
)


101
(
9.534882557e-12
-9.736432497e-10
-5.69981714e-09
-1.625719234e-08
-3.206712986e-08
-5.12921935e-08
-7.298227322e-08
-9.652777819e-08
-1.209343043e-07
-1.456929413e-07
-1.705543819e-07
-1.953676269e-07
-2.198772923e-07
-2.442028581e-07
-2.684427122e-07
-2.922725245e-07
-3.155698798e-07
-3.390364307e-07
-3.61862328e-07
-3.844505289e-07
-4.077808089e-07
-4.303582941e-07
-4.526070885e-07
-4.754514453e-07
-4.985610049e-07
-5.217955041e-07
-5.45217946e-07
-5.68659561e-07
-5.921913533e-07
-6.159542834e-07
-6.400238944e-07
-6.650595362e-07
-6.88821215e-07
-7.123934647e-07
-7.373929959e-07
-7.622764956e-07
-7.876278323e-07
-8.128970587e-07
-8.372560585e-07
-8.614604288e-07
-8.870356013e-07
-9.127180821e-07
-9.377988002e-07
-9.635906072e-07
-9.891170147e-07
-1.014383342e-06
-1.039528655e-06
-1.064509563e-06
-1.089473133e-06
-1.114385215e-06
-1.139346236e-06
-1.164013328e-06
-1.188610115e-06
-1.213205226e-06
-1.237765092e-06
-1.261672594e-06
-1.285917066e-06
-1.310208556e-06
-1.334069323e-06
-1.35791799e-06
-1.381459956e-06
-1.405022628e-06
-1.428383035e-06
-1.451541021e-06
-1.474641851e-06
-1.497782408e-06
-1.520882599e-06
-1.543686433e-06
-1.566380363e-06
-1.588883369e-06
-1.611212701e-06
-1.633536549e-06
-1.655761998e-06
-1.677899949e-06
-1.699992921e-06
-1.722233332e-06
-1.744296226e-06
-1.76656181e-06
-1.789052931e-06
-1.811484832e-06
-1.834094124e-06
-1.856863644e-06
-1.879893879e-06
-1.903288259e-06
-1.926204665e-06
-1.94926077e-06
-1.972473625e-06
-1.995715412e-06
-2.018004857e-06
-2.04153851e-06
-2.063984901e-06
-2.083595429e-06
-2.103294107e-06
-2.120436593e-06
-2.108347909e-06
-2.055765591e-06
-7.429724131e-07
5.5313016e-07
5.687860138e-07
5.838903786e-07
5.9652165e-07
)


101
(
2.123896895e-11
-9.159715435e-10
-5.460790788e-09
-1.565916652e-08
-3.097861679e-08
-4.966396336e-08
-7.076413932e-08
-9.369471632e-08
-1.175196738e-07
-1.4172564e-07
-1.660632124e-07
-1.903950382e-07
-2.144562428e-07
-2.383460647e-07
-2.621891162e-07
-2.856733676e-07
-3.086475942e-07
-3.318040302e-07
-3.543584036e-07
-3.766712648e-07
-3.997249525e-07
-4.220800865e-07
-4.441246678e-07
-4.667404718e-07
-4.896121139e-07
-5.126240322e-07
-5.358506075e-07
-5.591284225e-07
-5.825231908e-07
-6.061649031e-07
-6.301166032e-07
-6.550289809e-07
-6.787176167e-07
-7.022600133e-07
-7.2725978e-07
-7.521864703e-07
-7.775993905e-07
-8.029363047e-07
-8.273625671e-07
-8.516287064e-07
-8.772642115e-07
-9.030532644e-07
-9.283130875e-07
-9.543356435e-07
-9.801371497e-07
-1.00570114e-06
-1.031153156e-06
-1.056449585e-06
-1.081751587e-06
-1.107036425e-06
-1.132405641e-06
-1.157509133e-06
-1.182551989e-06
-1.20758601e-06
-1.232576123e-06
-1.256923913e-06
-1.281625998e-06
-1.306419958e-06
-1.330836418e-06
-1.35527785e-06
-1.379428978e-06
-1.403600313e-06
-1.427567985e-06
-1.451319338e-06
-1.475022709e-06
-1.498814643e-06
-1.522642997e-06
-1.54626237e-06
-1.569820132e-06
-1.593166998e-06
-1.616313026e-06
-1.639476159e-06
-1.662582007e-06
-1.685659814e-06
-1.708754925e-06
-1.732080732e-06
-1.755252743e-06
-1.778649704e-06
-1.802341464e-06
-1.826054324e-06
-1.850030277e-06
-1.874179674e-06
-1.898690369e-06
-1.923803657e-06
-1.948522788e-06
-1.973379038e-06
-1.998456517e-06
-2.02369034e-06
-2.047807491e-06
-2.073317483e-06
-2.097893191e-06
-2.119412183e-06
-2.140898072e-06
-2.15945083e-06
-2.1449148e-06
-2.084628407e-06
-7.215746035e-07
6.211059045e-07
6.37863762e-07
6.540627854e-07
6.676169308e-07
)


101
(
3.216700164e-11
-8.604882117e-10
-5.22829475e-09
-1.507463323e-08
-2.991124522e-08
-4.806304771e-08
-6.858063888e-08
-9.090155322e-08
-1.141454246e-07
-1.377973008e-07
-1.616072644e-07
-1.854496327e-07
-2.090539431e-07
-2.324995428e-07
-2.559298481e-07
-2.790479197e-07
-3.016814275e-07
-3.24506784e-07
-3.46765064e-07
-3.687824505e-07
-3.915319406e-07
-4.136264833e-07
-4.354321319e-07
-4.577924804e-07
-4.803977051e-07
-5.031486633e-07
-5.261300624e-07
-5.491870982e-07
-5.723857524e-07
-5.958507832e-07
-6.196340163e-07
-6.443687412e-07
-6.679162574e-07
-6.913434535e-07
-7.162479774e-07
-7.411299077e-07
-7.665344899e-07
-7.918878123e-07
-8.163334032e-07
-8.405950425e-07
-8.66195687e-07
-8.919724743e-07
-9.172857941e-07
-9.434244202e-07
-9.69403263e-07
-9.951772995e-07
-1.020852579e-06
-1.046373794e-06
-1.071910094e-06
-1.097456713e-06
-1.12312285e-06
-1.148558485e-06
-1.173956747e-06
-1.199351309e-06
-1.224690141e-06
-1.249384376e-06
-1.274435441e-06
-1.299607821e-06
-1.324454894e-06
-1.349379208e-06
-1.374046426e-06
-1.398744291e-06
-1.423244201e-06
-1.447512537e-06
-1.471722739e-06
-1.496039658e-06
-1.520449559e-06
-1.544748982e-06
-1.56907634e-06
-1.593212098e-06
-1.617128625e-06
-1.64105965e-06
-1.664937476e-06
-1.688830263e-06
-1.71281843e-06
-1.737155363e-06
-1.76138481e-06
-1.785856338e-06
-1.810666393e-06
-1.835567966e-06
-1.860857777e-06
-1.88634741e-06
-1.912241305e-06
-1.938957169e-06
-1.9654575e-06
-1.992142029e-06
-2.019037082e-06
-2.04622231e-06
-2.072210216e-06
-2.099675237e-06
-2.126313436e-06
-2.149757998e-06
-2.173052573e-06
-2.192997579e-06
-2.175844644e-06
-2.107484152e-06
-6.959020073e-07
6.914057847e-07
7.092397238e-07
7.26493705e-07
7.409577904e-07
)


101
(
4.233656389e-11
-8.071612349e-10
-5.002271622e-09
-1.450353041e-08
-2.886500524e-08
-4.648955536e-08
-6.643192178e-08
-8.814879224e-08
-1.108126434e-07
-1.339095392e-07
-1.571888146e-07
-1.805346741e-07
-2.036742535e-07
-2.266679493e-07
-2.496716447e-07
-2.724047582e-07
-2.946804535e-07
-3.171555546e-07
-3.390952848e-07
-3.607980159e-07
-3.832196267e-07
-4.050203799e-07
-4.265534837e-07
-4.486305981e-07
-4.709431262e-07
-4.934011339e-07
-5.160964159e-07
-5.388829345e-07
-5.618300208e-07
-5.850632213e-07
-6.086283867e-07
-6.331381127e-07
-6.564896406e-07
-6.797314469e-07
-7.044545521e-07
-7.292004021e-07
-7.545138795e-07
-7.79820549e-07
-8.042436336e-07
-8.284599088e-07
-8.539583745e-07
-8.796235981e-07
-9.048691679e-07
-9.310007761e-07
-9.570523838e-07
-9.829465538e-07
-1.008762467e-06
-1.034432177e-06
-1.060116354e-06
-1.085819468e-06
-1.111673506e-06
-1.137339133e-06
-1.162996892e-06
-1.188668834e-06
-1.214282777e-06
-1.239244396e-06
-1.264549073e-06
-1.289988643e-06
-1.315145973e-06
-1.340435024e-06
-1.365516254e-06
-1.390652425e-06
-1.415607295e-06
-1.440323321e-06
-1.464967263e-06
-1.489712628e-06
-1.514572028e-06
-1.539402035e-06
-1.564369626e-06
-1.589212493e-06
-1.613853963e-06
-1.6385082e-06
-1.663081485e-06
-1.687671043e-06
-1.712418976e-06
-1.737658394e-06
-1.762879565e-06
-1.788383817e-06
-1.814252206e-06
-1.840243306e-06
-1.866759381e-06
-1.893553903e-06
-1.920773124e-06
-1.948961076e-06
-1.977154976e-06
-2.00569572e-06
-2.034400304e-06
-2.063460625e-06
-2.091328352e-06
-2.120747022e-06
-2.149377444e-06
-2.174741568e-06
-2.19985083e-06
-2.221163089e-06
-2.201237182e-06
-2.124445011e-06
-6.660594187e-07
7.639444014e-07
7.828250798e-07
8.01070022e-07
8.16417817e-07
)


101
(
5.176542172e-11
-7.559580544e-10
-4.782662663e-09
-1.394579379e-08
-2.783988397e-08
-4.494359088e-08
-6.431813303e-08
-8.543690471e-08
-1.075223672e-07
-1.300639179e-07
-1.528100768e-07
-1.756533173e-07
-1.98320957e-07
-2.208557922e-07
-2.434208942e-07
-2.657521387e-07
-2.876537058e-07
-3.097608316e-07
-3.313614901e-07
-3.527314747e-07
-3.748047175e-07
-3.962832769e-07
-4.175123944e-07
-4.392781376e-07
-4.612726382e-07
-4.834102539e-07
-5.057858154e-07
-5.282600024e-07
-5.509057199e-07
-5.738535918e-07
-5.971502258e-07
-6.213900327e-07
-6.445014453e-07
-6.67503084e-07
-6.919721241e-07
-7.164957359e-07
-7.416288535e-07
-7.668126537e-07
-7.911626299e-07
-8.153004822e-07
-8.406578156e-07
-8.661437728e-07
-8.91217362e-07
-9.172153879e-07
-9.432204332e-07
-9.691414972e-07
-9.950195891e-07
-1.020761643e-06
-1.046519084e-06
-1.072294472e-06
-1.098232344e-06
-1.124021391e-06
-1.149842963e-06
-1.175704133e-06
-1.201519278e-06
-1.226681441e-06
-1.25215925e-06
-1.277767789e-06
-1.303120775e-06
-1.328653325e-06
-1.354039905e-06
-1.379521163e-06
-1.404847571e-06
-1.429937495e-06
-1.454949609e-06
-1.480051326e-06
-1.505258371e-06
-1.530481937e-06
-1.555940173e-06
-1.58136939e-06
-1.606666032e-06
-1.632004501e-06
-1.657228313e-06
-1.68243054e-06
-1.707805621e-06
-1.733801275e-06
-1.759908751e-06
-1.786399928e-06
-1.813292077e-06
-1.840291286e-06
-1.867920221e-06
-1.895949547e-06
-1.924463251e-06
-1.954026735e-06
-1.983773192e-06
-2.014147839e-06
-2.044689603e-06
-2.075550138e-06
-2.105257408e-06
-2.136637101e-06
-2.16719261e-06
-2.194459317e-06
-2.221384843e-06
-2.244016184e-06
-2.221177658e-06
-2.135614323e-06
-6.321387282e-07
8.386434311e-07
8.585492699e-07
8.779212287e-07
8.943383142e-07
)


101
(
6.047152611e-11
-7.068455165e-10
-4.569407562e-09
-1.340135627e-08
-2.683586442e-08
-4.342525324e-08
-6.223941145e-08
-8.276632967e-08
-1.042755812e-07
-1.262619429e-07
-1.484731929e-07
-1.708086131e-07
-1.929977562e-07
-2.150674376e-07
-2.371836471e-07
-2.590979875e-07
-2.806100621e-07
-3.023329015e-07
-3.235756691e-07
-3.445957297e-07
-3.66302702e-07
-3.874350912e-07
-4.083319318e-07
-4.297587483e-07
-4.514100025e-07
-4.732024453e-07
-4.95230547e-07
-5.173584943e-07
-5.396604381e-07
-5.622733255e-07
-5.852509334e-07
-6.091752922e-07
-6.320070781e-07
-6.547266039e-07
-6.788851045e-07
-7.031122521e-07
-7.279768141e-07
-7.529509099e-07
-7.771625608e-07
-8.011858498e-07
-8.263777305e-07
-8.516449064e-07
-8.764719844e-07
-9.022248541e-07
-9.280587168e-07
-9.538966344e-07
-9.797510566e-07
-1.00549531e-06
-1.031258038e-06
-1.057031204e-06
-1.082966315e-06
-1.108778267e-06
-1.134661474e-06
-1.160621616e-06
-1.186558066e-06
-1.211856386e-06
-1.237445321e-06
-1.263139662e-06
-1.288583571e-06
-1.314241898e-06
-1.339817841e-06
-1.365541536e-06
-1.391150731e-06
-1.416534822e-06
-1.441846164e-06
-1.467242356e-06
-1.492720472e-06
-1.518225609e-06
-1.544031998e-06
-1.569902902e-06
-1.595744718e-06
-1.621706516e-06
-1.647547471e-06
-1.673318364e-06
-1.699223167e-06
-1.725819729e-06
-1.752658536e-06
-1.780045091e-06
-1.807935761e-06
-1.835905941e-06
-1.864537141e-06
-1.893682276e-06
-1.923443276e-06
-1.954324812e-06
-1.985477455e-06
-2.017598154e-06
-2.050006671e-06
-2.08262297e-06
-2.114084987e-06
-2.147433052e-06
-2.179847423e-06
-2.208976326e-06
-2.237733253e-06
-2.261615973e-06
-2.235690315e-06
-2.141066874e-06
-5.942496451e-07
9.154288392e-07
9.363394466e-07
9.566872998e-07
9.740607369e-07
)


101
(
6.847306646e-11
-6.597883551e-10
-4.362443327e-09
-1.287014638e-08
-2.585292029e-08
-4.193462827e-08
-6.019587892e-08
-8.013746165e-08