/*--------------------------------*- C++ -*----------------------------------*\
| =========                 |                                                 |
| \\      /  F ield         | OpenFOAM: The Open Source CFD Toolbox           |
|  \\    /   O peration     | Version:  2.3.1                                 |
|   \\  /    A nd           | Web:      www.OpenFOAM.org                      |
|    \\/     M anipulation  |                                                 |
\*---------------------------------------------------------------------------*/
FoamFile
{
    version     2.0;
    format      ascii;
    class       dictionary;
    location    "constant";
    object      DPSI19;
}
// * * * * * * * * * * * * * * * * * * * * * * * * * * * * * * * * * * * * * //

DPSI19_table
101
(

101
(
-4.554999939e-13
-9.29380045e-13
-1.765534406e-12
-2.409599052e-12
-2.940393625e-12
-3.423402066e-12
-3.916347375e-12
-4.450042493e-12
-5.032388161e-12
-5.678958148e-12
-6.407731395e-12
-7.21179294e-12
-8.058728902e-12
-8.8280919e-12
-9.308580376e-12
-9.29821219e-12
-8.575015022e-12
-7.17510923e-12
-5.046927271e-12
-2.484063194e-12
2.961832927e-14
2.505843763e-12
4.641586513e-12
6.167217653e-12
7.150154955e-12
7.659664748e-12
7.773361851e-12
7.582693376e-12
7.183117796e-12
6.65716347e-12
6.075197131e-12
5.515572566e-12
4.898066356e-12
4.293415469e-12
3.796576791e-12
3.121409643e-12
2.360268724e-12
2.277487702e-12
2.35203215e-12
2.030212077e-12
1.776443713e-12
1.556160265e-12
1.350309427e-12
1.183012852e-12
1.033887935e-12
9.003279424e-13
7.839975305e-13
6.810325619e-13
5.92217463e-13
5.140372597e-13
4.470150047e-13
3.873151029e-13
3.351487986e-13
2.902514711e-13
2.516026019e-13
2.154134467e-13
1.847559052e-13
1.588507827e-13
1.35260229e-13
1.154062026e-13
9.770860428e-14
8.28034736e-14
6.966338348e-14
5.818277937e-14
4.862281806e-14
4.044039358e-14
3.331459683e-14
2.716864329e-14
2.204118716e-14
1.77711869e-14
1.417318073e-14
1.118438259e-14
8.728451631e-15
6.338514314e-15
4.587286383e-15
3.945270071e-15
3.233488516e-15
2.366982077e-15
1.729785986e-15
1.245379059e-15
8.618844033e-16
5.832753903e-16
3.632011975e-16
2.246548519e-16
1.76459027e-16
1.243778998e-16
7.635299101e-17
4.55496521e-17
2.377205537e-17
1.347746185e-17
1.013489588e-17
5.273974962e-18
2.417960699e-18
1.132753363e-18
5.197996702e-19
2.178568005e-19
5.056972176e-20
-2.135739779e-26
1.756889496e-36
1.949216726e-36
-3.900461553e-36
)


101
(
-4.466465233e-13
-9.131165273e-13
-1.737295944e-12
-2.373060237e-12
-2.896051552e-12
-3.370767279e-12
-3.852892406e-12
-4.373594314e-12
-4.941045983e-12
-5.570177038e-12
-6.278844604e-12
-7.065278797e-12
-7.904062623e-12
-8.692724328e-12
-9.237060582e-12
-9.339691836e-12
-8.787287755e-12
-7.560318288e-12
-5.624477558e-12
-3.191779164e-12
-6.746251402e-13
1.816052128e-12
4.034276121e-12
5.736310119e-12
6.90623977e-12
7.590956965e-12
7.858463968e-12
7.789845921e-12
7.477156544e-12
7.007224781e-12
6.454871064e-12
5.898937946e-12
5.30229446e-12
4.698372685e-12
4.163512234e-12
3.53278674e-12
2.798328677e-12
2.447191781e-12
2.407952534e-12
2.234568051e-12
1.993272284e-12
1.757605624e-12
1.535635904e-12
1.343252031e-12
1.175817629e-12
1.02796891e-12
8.986278168e-13
7.846710359e-13
6.849056558e-13
5.972135444e-13
5.207630936e-13
4.535859845e-13
3.947792588e-13
3.434192518e-13
2.983669706e-13
2.57821415e-13
2.22124721e-13
1.913640807e-13
1.643411103e-13
1.40890599e-13
1.203874236e-13
1.026386545e-13
8.723731833e-14
7.374012355e-14
6.199204563e-14
5.192137329e-14
4.331759993e-14
3.590998223e-14
2.95559499e-14
2.413655721e-14
1.95703858e-14
1.575983217e-14
1.261689046e-14
9.831344877e-15
7.418064752e-15
5.751077064e-15
4.582048884e-15
3.570930752e-15
2.713588513e-15
2.018979178e-15
1.468691317e-15
1.047705804e-15
7.23811875e-16
4.821553564e-16
3.241132105e-16
2.217013663e-16
1.496411638e-16
9.767058609e-17
6.03901116e-17
3.616289085e-17
2.173158117e-17
1.297401429e-17
7.535057676e-18
4.032386779e-18
2.09466354e-18
1.158469463e-18
3.664308891e-19
-1.532004181e-19
-4.342949262e-19
-1.084658358e-18
-1.562567362e-18
)


101
(
-4.378683229e-13
-8.969715554e-13
-1.70925701e-12
-2.336821248e-12
-2.852168831e-12
-3.318790573e-12
-3.790405852e-12
-4.298415197e-12
-4.851256666e-12
-5.463111323e-12
-6.151451782e-12
-6.918684455e-12
-7.745756864e-12
-8.546710914e-12
-9.145098272e-12
-9.349901711e-12
-8.956499295e-12
-7.904751394e-12
-6.159734193e-12
-3.876739663e-12
-1.398824644e-12
1.096513511e-12
3.380058317e-12
5.228676653e-12
6.574895139e-12
7.434987763e-12
7.862460855e-12
7.927894475e-12
7.71722561e-12
7.317201309e-12
6.80553597e-12
6.263722051e-12
5.68487614e-12
5.094907239e-12
4.549278172e-12
3.941597937e-12
3.247616673e-12
2.753780763e-12
2.548360416e-12
2.392848945e-12
2.191414292e-12
1.962770639e-12
1.731567707e-12
1.520921709e-12
1.334301178e-12
1.169945509e-12
1.026775613e-12
9.012776975e-13
7.909296679e-13
6.936171895e-13
6.079704861e-13
5.32396169e-13
4.659616084e-13
4.078810493e-13
3.568805874e-13
3.113990522e-13
2.70897277e-13
2.351717941e-13
2.038164858e-13
1.763791815e-13
1.523224184e-13
1.313839469e-13
1.130347473e-13
9.684389305e-14
8.263869396e-14
7.033300446e-14
5.970099442e-14
5.042578128e-14
4.239799055e-14
3.544521042e-14
2.944174103e-14
2.428133771e-14
1.992071547e-14
1.623901213e-14
1.300538304e-14
1.029749623e-14
8.142825588e-15
6.418233756e-15
5.027357702e-15
3.894403562e-15
2.970918984e-15
2.233017507e-15
1.65078616e-15
1.196406848e-15
8.483239664e-16
5.865306763e-16
4.006466994e-16
2.771912539e-16
1.878679053e-16
1.233641438e-16
7.998993555e-17
4.963177773e-17
3.052091596e-17
1.9022837e-17
1.150133423e-17
7.875730374e-18
2.134569839e-18
-3.619038195e-18
-8.066402446e-18
-1.579241266e-17
-2.063750494e-17
)


101
(
-4.291654827e-13
-8.809454932e-13
-1.681420227e-12
-2.300893325e-12
-2.808778896e-12
-3.267552639e-12
-3.729052754e-12
-4.224824453e-12
-4.763592584e-12
-5.358758938e-12
-6.027230489e-12
-6.774762037e-12
-7.588077023e-12
-8.396314094e-12
-9.04104635e-12
-9.339293856e-12
-9.095286666e-12
-8.219866209e-12
-6.667324764e-12
-4.550261785e-12
-2.148874537e-12
3.314228749e-13
2.662463276e-12
4.633066679e-12
6.142818952e-12
7.177152969e-12
7.771237978e-12
7.983225765e-12
7.891090871e-12
7.578523854e-12
7.123069038e-12
6.608754217e-12
6.048534415e-12
5.476299433e-12
4.947769026e-12
4.354679869e-12
3.689084415e-12
3.138793539e-12
2.791955313e-12
2.576491966e-12
2.386156491e-12
2.173157678e-12
1.944494549e-12
1.72419394e-12
1.520847667e-12
1.33900997e-12
1.180294241e-12
1.041957468e-12
9.207122245e-13
8.135713607e-13
7.187312246e-13
6.341493572e-13
5.592806618e-13
4.934753054e-13
4.353853802e-13
3.839347913e-13
3.382147999e-13
2.970904232e-13
2.605776259e-13
2.282966214e-13
1.996305475e-13
1.744867521e-13
1.52298518e-13
1.326172444e-13
1.152337908e-13
9.990143676e-14
8.643210439e-14
7.445319089e-14
6.385869486e-14
5.465536787e-14
4.6590059e-14
3.944856695e-14
3.320471563e-14
2.787376067e-14
2.321922129e-14
1.913822064e-14
1.562357125e-14
1.264026665e-14
1.014440421e-14
8.080852268e-15
6.396356243e-15
5.018257962e-15
3.885899681e-15
2.970849146e-15
2.233940599e-15
1.643630077e-15
1.173078743e-15
8.290324565e-16
5.94497595e-16
4.180903517e-16
2.833937315e-16
1.850799422e-16
1.208955678e-16
8.030372249e-17
5.316422669e-17
4.05704113e-17
6.97419193e-18
-3.206475093e-17
-6.563937482e-17
-1.336693706e-16
-1.803134153e-16
)


101
(
-4.20538105e-13
-8.650386418e-13
-1.653787755e-12
-2.265285875e-12
-2.76590947e-12
-3.217119565e-12
-3.668965257e-12
-4.153072556e-12
-4.678491429e-12
-5.257869904e-12
-5.907426071e-12
-6.635552038e-12
-7.434178461e-12
-8.24616104e-12
-8.931034264e-12
-9.315344117e-12
-9.212432404e-12
-8.513128019e-12
-7.155921316e-12
-5.218520119e-12
-2.925827086e-12
-4.857558539e-13
1.872331375e-12
3.942460248e-12
5.601600248e-12
6.807175552e-12
7.573510419e-12
7.943994188e-12
7.986995455e-12
7.781464428e-12
7.401361543e-12
6.931659791e-12
6.396536203e-12
5.841745897e-12
5.320782005e-12
4.767465448e-12
4.151721317e-12
3.569188285e-12
3.1250077e-12
2.826732966e-12
2.607795067e-12
2.398356312e-12
2.176439778e-12
1.954956545e-12
1.740966726e-12
1.543395627e-12
1.368299369e-12
1.215365686e-12
1.081699626e-12
9.637920646e-13
8.594025759e-13
7.654355772e-13
6.811476642e-13
6.064070978e-13
5.405102375e-13
4.816112154e-13
4.291420964e-13
3.819811683e-13
3.3965224e-13
3.017887349e-13
2.673851689e-13
2.368360229e-13
2.096097244e-13
1.852575407e-13
1.638282466e-13
1.447518401e-13
1.274940081e-13
1.118674974e-13
9.779524771e-14
8.548850895e-14
7.460878637e-14
6.469921943e-14
5.576938592e-14
4.790500333e-14
4.100837602e-14
3.491621911e-14
2.945381317e-14
2.458090768e-14
2.03520693e-14
1.668798101e-14
1.360408348e-14
1.103044611e-14
8.850477869e-15
7.036838743e-15
5.529190722e-15
4.276924968e-15
3.229083692e-15
2.367519854e-15
1.73553199e-15
1.285631431e-15
9.296993985e-16
6.48132605e-16
4.372984491e-16
2.930401461e-16
2.062881503e-16
1.648659242e-16
5.995314094e-18
-1.853931352e-16
-3.54425575e-16
-5.778386921e-16
-6.830280705e-16
)


101
(
-4.1198628e-13
-8.492512429e-13
-1.626361331e-12
-2.230006593e-12
-2.72358312e-12
-3.167544512e-12
-3.610247785e-12
-4.083353645e-12
-4.596283137e-12
-5.1609996e-12
-5.792956183e-12
-6.502558671e-12
-7.286402298e-12
-8.099715625e-12
-8.81963842e-12
-9.283540709e-12
-9.314208858e-12
-8.789474648e-12
-7.630493402e-12
-5.884499614e-12
-3.728140138e-12
-1.356006048e-12
1.005559804e-12
3.152719927e-12
4.945413779e-12
6.316572152e-12
7.258834429e-12
7.79849388e-12
7.99239677e-12
7.912316687e-12
7.629512046e-12
7.226311212e-12
6.728487565e-12
6.197493946e-12
5.692752773e-12
5.171670338e-12
4.605491072e-12
4.02946576e-12
3.527036736e-12
3.149959489e-12
2.879876269e-12
2.653910348e-12
2.432773541e-12
2.214082629e-12
1.99628048e-12
1.787228862e-12
1.595961281e-12
1.426291124e-12
1.27841531e-12
1.148946062e-12
1.03475088e-12
9.313384311e-13
8.370873648e-13
7.520566805e-13
6.768539643e-13
6.096642696e-13
5.495120697e-13
4.948923587e-13
4.45650823e-13
4.01751055e-13
3.608092745e-13
3.237241252e-13
2.904010509e-13
2.599582204e-13
2.330942856e-13
2.093517652e-13
1.877071069e-13
1.677951882e-13
1.491141401e-13
1.324102574e-13
1.178568429e-13
1.044958866e-13
9.213368166e-14
8.081776078e-14
7.06596588e-14
6.152738358e-14
5.328907464e-14
4.588818576e-14
3.916365176e-14
3.302816204e-14
2.760682486e-14
2.300690243e-14
1.907132354e-14
1.564640956e-14
1.273012774e-14
1.025668517e-14
8.128212679e-15
6.256177808e-15
4.727073201e-15
3.596355515e-15
2.725598731e-15
1.991674652e-15
1.429904881e-15
9.994731599e-16
7.15741452e-16
5.918355236e-16
-1.694547316e-17
-7.878602213e-16
-1.790800933e-15
-3.156343192e-15
-3.75066194e-15
)


101
(
-4.035101127e-13
-8.33583501e-13
-1.599142313e-12
-2.195061616e-12
-2.681817767e-12
-3.118869159e-12
-3.552980032e-12
-4.015812687e-12
-4.517205192e-12
-5.068538666e-12
-5.684464415e-12
-6.376846736e-12
-7.146431607e-12
-7.959518173e-12
-8.710234904e-12
-9.247871392e-12
-9.405045788e-12
-9.052056738e-12
-8.093475895e-12
-6.54887085e-12
-4.552538342e-12
-2.276681904e-12
6.189410618e-14
2.262090119e-12
4.170278228e-12
5.698011777e-12
6.816905846e-12
7.53449268e-12
7.893811259e-12
7.957630383e-12
7.792600298e-12
7.478274407e-12
7.036417808e-12
6.539702388e-12
6.059260999e-12
5.568759415e-12
5.049438152e-12
4.501769152e-12
3.97674739e-12
3.54026969e-12
3.213473847e-12
2.954542395e-12
2.722044208e-12
2.503788951e-12
2.286348653e-12
2.071250881e-12
1.866520035e-12
1.679381977e-12
1.515351655e-12
1.372451116e-12
1.247616682e-12
1.135080144e-12
1.031182515e-12
9.351720142e-13
8.492441696e-13
7.727797496e-13
7.041817325e-13
6.415308085e-13
5.844990564e-13
5.330760295e-13
4.847202662e-13
4.404389976e-13
4.003251446e-13
3.630026198e-13
3.292013415e-13
2.994558834e-13
2.725977541e-13
2.477393419e-13
2.240674806e-13
2.018994845e-13
1.820301193e-13
1.641285469e-13
1.476385915e-13
1.322331021e-13
1.179130153e-13
1.045820558e-13
9.247215121e-14
8.165601358e-14
7.159406713e-14
6.209081568e-14
5.322613959e-14
4.544569378e-14
3.874247835e-14
3.267948484e-14
2.737815743e-14
2.2831998e-14
1.882634281e-14
1.515046576e-14
1.187643378e-14
9.331955708e-15
7.378499479e-15
5.619295004e-15
4.185883186e-15
3.071372782e-15
2.330504973e-15
1.991267477e-15
-4.839134496e-16
-3.639824788e-15
-7.871035034e-15
-1.274877836e-14
-1.429277575e-14
)


101
(
-3.95109715e-13
-8.180355547e-13
-1.572131653e-12
-2.160455784e-12
-2.640628009e-12
-3.071127438e-12
-3.497224356e-12
-3.950553586e-12
-4.44141665e-12
-4.980747382e-12
-5.582378878e-12
-6.2591434e-12
-7.015445737e-12
-7.82741585e-12
-8.605333282e-12
-9.21123409e-12
-9.488046465e-12
-9.302825407e-12
-8.54567194e-12
-7.210720835e-12
-5.394656027e-12
-3.242589157e-12
-9.554723679e-13
1.271544483e-12
3.274466943e-12
4.945873879e-12
6.237844949e-12
7.138738985e-12
7.675759135e-12
7.900501242e-12
7.873065731e-12
7.66998355e-12
7.305732768e-12
6.858711349e-12
6.412384978e-12
5.954429587e-12
5.480378083e-12
4.972900444e-12
4.453531183e-12
3.9838611e-12
3.608734961e-12
3.308880851e-12
3.052470254e-12
2.827451484e-12
2.610016028e-12
2.39324668e-12
2.180412077e-12
1.978116075e-12
1.796747464e-12
1.638234694e-12
1.501415972e-12
1.379200604e-12
1.265730534e-12
1.159489723e-12
1.062535577e-12
9.750190042e-13
8.970112013e-13
8.261318605e-13
7.611805653e-13
7.022253482e-13
6.458614265e-13
5.934222109e-13
5.452958449e-13
5.001731655e-13
4.58588931e-13
4.216287052e-13
3.883367367e-13
3.576664762e-13
3.286423802e-13
3.004839531e-13
2.745067952e-13
2.509838085e-13
2.293341478e-13
2.090673172e-13
1.898957341e-13
1.714637525e-13
1.541487049e-13
1.386028001e-13
1.243142064e-13
1.108102439e-13
9.763533641e-14
8.520474678e-14
7.435226666e-14
6.446697168e-14
5.53739222e-14
4.750777445e-14
4.055123151e-14
3.392029847e-14
2.767706422e-14
2.243999894e-14
1.837905325e-14
1.470721231e-14
1.134522299e-14
8.725455843e-15
6.896672911e-15
6.044578595e-15
-2.748930653e-15
-1.42658435e-14
-3.008264497e-14
-4.78498002e-14
-5.304343332e-14
)


101
(
-3.867852045e-13
-8.026075263e-13
-1.545330002e-12
-2.126192712e-12
-2.600025337e-12
-3.024347061e-12
-3.44303076e-12
-3.887647058e-12
-4.369012322e-12
-4.897780877e-12
-5.486965097e-12
-6.149921535e-12
-6.894248005e-12
-7.704731416e-12
-8.506797437e-12
-9.175775364e-12
-9.565404857e-12
-9.542915048e-12
-8.986839061e-12
-7.868105608e-12
-6.24951971e-12
-4.24704201e-12
-2.041018283e-12
1.839496369e-13
2.257688943e-12
4.055760468e-12
5.512342979e-12
6.597463521e-12
7.321279687e-12
7.721884426e-12
7.850473999e-12
7.779943853e-12
7.516222415e-12
7.138785939e-12
6.740826214e-12
6.321888579e-12
5.893472369e-12
5.432008047e-12
4.938370162e-12
4.461619549e-12
4.054366536e-12
3.715987332e-12
3.429562755e-12
3.189824457e-12
2.968069288e-12
2.750532783e-12
2.534024302e-12
2.320550177e-12
2.123302087e-12
1.949398396e-12
1.7992168e-12
1.665534445e-12
1.543437235e-12
1.428094245e-12
1.319408493e-12
1.220521255e-12
1.132859244e-12
1.052688813e-12
9.790954034e-13
9.126095257e-13
8.485562927e-13
7.886813625e-13
7.325260757e-13
6.784782766e-13
6.277428472e-13
5.818043762e-13
5.411933098e-13
5.046074958e-13
4.707061962e-13
4.368968864e-13
4.040374831e-13
3.731445169e-13
3.445432891e-13
3.191345208e-13
2.95088521e-13
2.710949554e-13
2.477377143e-13
2.261999611e-13
2.066539772e-13
1.88162354e-13
1.698545477e-13
1.515803398e-13
1.350493347e-13
1.200494696e-13
1.059111561e-13
9.29466632e-14
8.144150332e-14
7.062930199e-14
5.969690231e-14
5.019166172e-14
4.250429739e-14
3.514878834e-14
2.809096012e-14
2.26091815e-14
1.850200791e-14
1.694306195e-14
-1.07131575e-14
-4.778905203e-14
-9.738781181e-14
-1.598334034e-13
-1.832616121e-13
)


101
(
-3.785366959e-13
-7.872994788e-13
-1.518737728e-12
-2.092274836e-12
-2.560017663e-12
-2.978547734e-12
-3.390434954e-12
-3.827135573e-12
-4.300033291e-12
-4.819703355e-12
-5.398346475e-12
-6.049436751e-12
-6.783327897e-12
-7.592364957e-12
-8.415989297e-12
-9.143093779e-12
-9.638710521e-12
-9.772982105e-12
-9.416158504e-12
-8.518475773e-12
-7.111948023e-12
-5.282628252e-12
-3.187606541e-12
-9.963616725e-13
1.120460029e-12
3.02403998e-12
4.632301336e-12
5.898005511e-12
6.813861997e-12
7.402649709e-12
7.704015515e-12
7.785488224e-12
7.644279738e-12
7.359364955e-12
7.028373915e-12
6.657780521e-12
6.276956928e-12
5.864908278e-12
5.411236544e-12
4.951990698e-12
4.535842233e-12
4.169600423e-12
3.851858406e-12
3.591216461e-12
3.359322744e-12
3.139389532e-12
2.921729815e-12
2.702378248e-12
2.493940085e-12
2.305301496e-12
2.13985083e-12
1.993468839e-12
1.862692403e-12
1.739856357e-12
1.622778213e-12
1.512742812e-12
1.415035768e-12
1.325604814e-12
1.241756198e-12
1.167901677e-12
1.096743762e-12
1.029657108e-12
9.664569609e-13
9.043179732e-13
8.44874328e-13
7.891946538e-13
7.397611517e-13
6.962662059e-13
6.564258042e-13
6.171059332e-13
5.780512238e-13
5.406696271e-13
5.050114048e-13
4.724775821e-13
4.425042893e-13
4.134411548e-13
3.842463542e-13
3.552935788e-13
3.293090247e-13
3.059364732e-13
2.81697307e-13
2.564267708e-13
2.326140913e-13
2.113000218e-13
1.915713583e-13
1.712836508e-13
1.532481714e-13
1.369814741e-13
1.195557976e-13
1.038298561e-13
9.03464483e-14
7.704763147e-14
6.403942578e-14
5.354062955e-14
4.560087649e-14
4.242596836e-14
-3.514794566e-14
-1.3872599e-13
-2.677263796e-13
-4.535937341e-13
-5.405746486e-13
)


101
(
-3.703643463e-13
-7.72111497e-13
-1.492355102e-12
-2.058704036e-12
-2.520610505e-12
-2.933741841e-12
-3.339457201e-12
-3.769042947e-12
-4.23449393e-12
-4.74651414e-12
-5.316523007e-12
-5.95775344e-12
-6.682905324e-12
-7.490860091e-12
-8.333858835e-12
-9.114350516e-12
-9.709089608e-12
-9.993335811e-12
-9.83241235e-12
-9.158795221e-12
-7.976647089e-12
-6.342306406e-12
-4.387610042e-12
-2.263522678e-12
-1.353233497e-13
1.848311519e-12
3.590827426e-12
5.028666513e-12
6.137045776e-12
6.922570025e-12
7.411667426e-12
7.663723577e-12
7.664868708e-12
7.494343289e-12
7.251706382e-12
6.943193759e-12
6.615122613e-12
6.256724275e-12
5.853789478e-12
5.431329602e-12
5.029918218e-12
4.652922618e-12
4.309693512e-12
4.026292097e-12
3.77895875e-12
3.553753691e-12
3.337410401e-12
3.118064757e-12
2.903392281e-12
2.702048256e-12
2.521343043e-12
2.36091303e-12
2.220577873e-12
2.093587576e-12
1.971234755e-12
1.850138291e-12
1.742704459e-12
1.644744083e-12
1.551161846e-12
1.470068824e-12
1.393625591e-12
1.320119845e-12
1.250566077e-12
1.18300633e-12
1.117320068e-12
1.051564382e-12
9.910875826e-13
9.388646204e-13
8.927603195e-13
8.495616379e-13
8.060943214e-13
7.624183291e-13
7.190995238e-13
6.792636346e-13
6.437302574e-13
6.102003014e-13
5.750524765e-13
5.389986781e-13
5.059988363e-13
4.768296917e-13
4.467080638e-13
4.143912781e-13
3.821934569e-13
3.530679602e-13
3.279557677e-13
2.99771482e-13
2.723128032e-13
2.487188026e-13
2.22805734e-13
1.990676847e-13
1.781131995e-13
1.556958657e-13
1.336322152e-13
1.150987871e-13
1.017293738e-13
9.768786931e-14
-9.918049263e-14
-3.601758344e-13
-6.437871511e-13
-9.84490411e-13
-1.110897353e-12
)


101
(
-3.622682935e-13
-7.570436041e-13
-1.466182066e-12
-2.025481106e-12
-2.481806534e-12
-2.88993541e-12
-3.290105807e-12
-3.713373399e-12
-4.172380556e-12
-4.678158337e-12
-5.241401869e-12
-5.874794052e-12
-6.592994358e-12
-7.400493363e-12
-8.261061499e-12
-9.090413331e-12
-9.777372632e-12
-1.020415899e-11
-1.023439699e-11
-9.785967733e-12
-8.838229391e-12
-7.418896368e-12
-5.632674708e-12
-3.610129851e-12
-1.505877867e-12
5.283068282e-13
2.383127267e-12
3.97911397e-12
5.27475403e-12
6.260523606e-12
6.948671864e-12
7.388087172e-12
7.549862266e-12
7.513920338e-12
7.382101739e-12
7.154197418e-12
6.889267247e-12
6.589807214e-12
6.244688787e-12
5.872984252e-12
5.507491647e-12
5.141070404e-12
4.785083066e-12
4.482289758e-12
4.217681163e-12
3.985005288e-12
3.77129661e-12
3.55643753e-12
3.340930628e-12
3.131696065e-12
2.938780185e-12
2.76426928e-12
2.613617339e-12
2.48303125e-12
2.355333275e-12
2.227457868e-12
2.114870263e-12
2.010365731e-12
1.907753358e-12
1.817751077e-12
1.737266178e-12
1.660537445e-12
1.587601298e-12
1.515657743e-12
1.445177536e-12
1.374518026e-12
1.304196313e-12
1.240512049e-12
1.187078423e-12
1.139569065e-12
1.093527363e-12
1.046702659e-12
9.979674897e-13
9.513961635e-13
9.099754597e-13
8.718186676e-13
8.313262832e-13
7.908035359e-13
7.52146931e-13
7.156737834e-13
6.803273724e-13
6.420038187e-13
6.009382028e-13
5.637342835e-13
5.339953256e-13
4.988371389e-13
4.592418328e-13
4.251258989e-13
3.912919666e-13
3.588366844e-13
3.268406745e-13
2.926414087e-13
2.587225625e-13
2.278337342e-13
2.05957017e-13
2.009333018e-13
-2.405656832e-13
-8.26010045e-13
-1.403885635e-12
-2.115216283e-12
-2.404101893e-12
)


101
(
-3.542486982e-13
-7.420958329e-13
-1.440218373e-12
-1.992605914e-12
-2.443605695e-12
-2.847127985e-12
-3.242377963e-12
-3.660118288e-12
-4.11365693e-12
-4.614532199e-12
-5.172817943e-12
-5.800377343e-12
-6.513453693e-12
-7.32132971e-12
-8.198015976e-12
-9.071976941e-12
-9.844279654e-12
-1.04056569e-11
-1.062106785e-11
-1.039685051e-11
-9.690889473e-12
-8.504152185e-12
-6.912722758e-12
-5.025366149e-12
-2.982574084e-12
-9.330832817e-13
1.005164936e-12
2.738689823e-12
4.210149446e-12
5.394053284e-12
6.287400887e-12
6.92696097e-12
7.266344752e-12
7.384838273e-12
7.386363839e-12
7.260884779e-12
7.075048301e-12
6.843025981e-12
6.559663773e-12
6.247006665e-12
5.935487717e-12
5.602551951e-12
5.252961548e-12
4.941334038e-12
4.662131246e-12
4.419419784e-12
4.206289942e-12
3.999092262e-12
3.789366954e-12
3.579329481e-12
3.379819627e-12
3.193403446e-12
3.032092179e-12
2.89620957e-12
2.766941869e-12
2.636980287e-12
2.523019562e-12
2.415954927e-12
2.306257162e-12
2.208315641e-12
2.123528307e-12
2.04548919e-12
1.972341658e-12
1.901438553e-12
1.827978211e-12
1.754163562e-12
1.680294746e-12
1.606825819e-12
1.545256429e-12
1.493058418e-12
1.444195287e-12
1.398555333e-12
1.34981153e-12
1.298938297e-12
1.25115495e-12
1.208429452e-12
1.16609768e-12
1.122359635e-12
1.0801133e-12
1.040706799e-12
1.00122387e-12
9.577197725e-13
9.105145595e-13
8.645466946e-13
8.288901335e-13
7.920229906e-13
7.425719828e-13
6.942579053e-13
6.512394452e-13
6.107483072e-13
5.652097643e-13
5.154179649e-13
4.681986967e-13
4.213432985e-13
3.86360309e-13
3.788876738e-13
-5.35421013e-13
-1.738461407e-12
-2.791251864e-12
-3.992490356e-12
-4.448640185e-12
)


101
(
-3.463057432e-13
-7.272682063e-13
-1.414463542e-12
-1.960077466e-12
-2.406005523e-12
-2.805312235e-12
-3.196258345e-12
-3.609264548e-12
-4.058284837e-12
-4.555484652e-12
-5.110532383e-12
-5.734237602e-12
-6.443991344e-12
-7.253220061e-12
-8.144926188e-12
-9.059659808e-12
-9.910690078e-12
-1.059833269e-11
-1.099167143e-11
-1.098831376e-11
-1.052826933e-11
-9.588754772e-12
-8.216940025e-12
-6.498333786e-12
-4.555897301e-12
-2.530399523e-12
-5.439522747e-13
1.299210952e-12
2.92797631e-12
4.301591333e-12
5.400362603e-12
6.247270266e-12
6.777789962e-12
7.069681153e-12
7.227332633e-12
7.228002905e-12
7.14083193e-12
6.987627125e-12
6.770092817e-12
6.5210889e-12
6.276608766e-12
5.998403345e-12
5.678210717e-12
5.375539002e-12
5.09062442e-12
4.838248601e-12
4.622500496e-12
4.422447268e-12
4.222427022e-12
4.021045878e-12
3.825525442e-12
3.630491262e-12
3.458406751e-12
3.318616692e-12
3.191925833e-12
3.060970613e-12
2.947982687e-12
2.844181165e-12
2.732580868e-12
2.629545436e-12
2.541695288e-12
2.466788131e-12
2.395880891e-12
2.326401161e-12
2.255969512e-12
2.187218197e-12
2.113897815e-12
2.037793389e-12
1.969289505e-12
1.909554846e-12
1.858494329e-12
1.816851196e-12
1.775607239e-12
1.728157887e-12
1.679829519e-12
1.633082078e-12
1.586275657e-12
1.544532946e-12
1.505271009e-12
1.466687361e-12
1.427148398e-12
1.382609621e-12
1.334886176e-12
1.281761917e-12
1.239140256e-12
1.205815772e-12
1.153601216e-12
1.091205435e-12
1.035704454e-12
9.888524985e-13
9.313340179e-13
8.63674855e-13
7.992333134e-13
7.324285157e-13
6.800794668e-13
6.636622079e-13
-1.085161518e-12
-3.36262553e-12
-5.125416926e-12
-7.146727221e-12
-7.972033485e-12
)


101
(
-3.384396138e-13
-7.125607238e-13
-1.388916869e-12
-1.92789386e-12
-2.369001415e-12
-2.764476336e-12
-3.151722224e-12
-3.56078605e-12
-4.006216726e-12
-4.500842057e-12
-5.05426109e-12
-5.676052402e-12
-6.384231019e-12
-7.195884699e-12
-8.101830693e-12
-9.053934111e-12
-9.977454379e-12
-1.07828454e-11
-1.134595717e-11
-1.155799012e-11
-1.134469251e-11
-1.066362799e-11
-9.533987574e-12
-8.017163236e-12
-6.215092972e-12
-4.255902328e-12
-2.261188588e-12
-3.423753364e-13
1.417489243e-12
2.963717989e-12
4.260697651e-12
5.31700566e-12
6.04785082e-12
6.528121805e-12
6.862046348e-12
7.012049239e-12
7.045277956e-12
6.985751915e-12
6.841338137e-12
6.659741199e-12
6.489279859e-12
6.281479811e-12
6.01433155e-12
5.744762584e-12
5.469806386e-12
5.213373653e-12
4.994407027e-12
4.79909618e-12
4.610921641e-12
4.426058235e-12
4.243218955e-12
4.0454187e-12
3.86591053e-12
3.723003842e-12
3.597796983e-12
3.469933309e-12
3.362303331e-12
3.270037438e-12
3.165975309e-12
3.059730675e-12
2.969697811e-12
2.90345946e-12
2.839678327e-12
2.771839268e-12
2.711520359e-12
2.653774348e-12
2.590905687e-12
2.519329998e-12
2.446517421e-12
2.386640769e-12
2.334574735e-12
2.296633516e-12
2.266898169e-12
2.23355563e-12
2.198323778e-12
2.153676275e-12
2.105301161e-12
2.068360402e-12
2.035319255e-12
2.009514535e-12
1.98165517e-12
1.939797061e-12
1.896398684e-12
1.84897051e-12
1.803614728e-12
1.770536878e-12
1.727242183e-12
1.660129268e-12
1.58726363e-12
1.538610096e-12
1.471186641e-12
1.388544442e-12
1.307054557e-12
1.210057354e-12
1.132429176e-12
1.104020631e-12
-2.005678848e-12
-6.013728686e-12
-8.786200125e-12
-1.229549026e-11
-1.40059906e-11
)


101
(
-3.306505269e-13
-6.979733989e-13
-1.363577497e-12
-1.896052355e-12
-2.332586385e-12
-2.724604529e-12
-3.10873691e-12
-3.514645749e-12
-3.957398177e-12
-4.450438888e-12
-5.003674671e-12
-5.625427169e-12
-6.33376812e-12
-7.148999453e-12
-8.068688915e-12
-9.055080944e-12
-1.004512571e-11
-1.095960898e-11
-1.168305533e-11
-1.210332794e-11
-1.213557896e-11
-1.172154198e-11
-1.085368887e-11
-9.56938818e-12
-7.947892939e-12
-6.099598107e-12
-4.140326199e-12
-2.18532692e-12
-3.279145591e-13
1.364444639e-12
2.842744766e-12
4.103833111e-12
5.03930994e-12
5.717981729e-12
6.24410411e-12
6.564031544e-12
6.739868796e-12
6.791884598e-12
6.731324628e-12
6.620743196e-12
6.527895263e-12
6.401636288e-12
6.206046937e-12
5.992766421e-12
5.749522872e-12
5.503629826e-12
5.284588931e-12
5.092268417e-12
4.917602661e-12
4.750920811e-12
4.586053713e-12
4.3973143e-12
4.216420782e-12
4.069576594e-12
3.94590488e-12
3.823477933e-12
3.724411221e-12
3.649790051e-12
3.564219021e-12
3.468526492e-12
3.379144995e-12
3.318100696e-12
3.263303465e-12
3.203013556e-12
3.16184608e-12
3.125736324e-12
3.080387529e-12
3.019694991e-12
2.956467159e-12
2.906521204e-12
2.857319598e-12
2.827140318e-12
2.810695654e-12
2.796953243e-12
2.795710046e-12
2.776951742e-12
2.738229015e-12
2.702294821e-12
2.680753204e-12
2.682804453e-12
2.678729909e-12
2.658555242e-12
2.629565695e-12
2.591930063e-12
2.561114333e-12
2.540334833e-12
2.511364296e-12
2.455616887e-12
2.370579253e-12
2.322468952e-12
2.250740039e-12
2.151608491e-12
2.055474613e-12
1.921613427e-12
1.807541951e-12
1.763064456e-12
-3.458707891e-12
-1.010029307e-11
-1.423274823e-11
-1.855784628e-11
-2.02528364e-11
)


101
(
-3.229387269e-13
-6.835062563e-13
-1.338444381e-12
-1.864549544e-12
-2.296751842e-12
-2.685677625e-12
-3.067261955e-12
-3.470795698e-12
-3.911769334e-12
-4.404117238e-12
-4.958416016e-12
-5.581910467e-12
-6.292176247e-12
-7.112208416e-12
-8.045399085e-12
-9.063277161e-12
-1.011403665e-11
-1.112889828e-11
-1.200210681e-11
-1.262218862e-11
-1.289721421e-11
-1.275620828e-11
-1.216649678e-11
-1.114218292e-11
-9.740527782e-12
-8.048953546e-12
-6.171959195e-12
-4.225871669e-12
-2.311769307e-12
-5.073255139e-13
1.127039292e-12
2.578379642e-12
3.714593797e-12
4.595263821e-12
5.322821043e-12
5.828135847e-12
6.167588364e-12
6.351868063e-12
6.388928406e-12
6.35681048e-12
6.344506262e-12
6.3013987e-12
6.188393413e-12
6.054461422e-12
5.867590287e-12
5.649099524e-12
5.436396643e-12
5.250666179e-12
5.091254679e-12
4.939993524e-12
4.794726299e-12
4.626974187e-12
4.453121384e-12
4.30502259e-12
4.189387651e-12
4.069748419e-12
3.973565708e-12
3.922322216e-12
3.869328708e-12
3.794740477e-12
3.712190563e-12
3.65637028e-12
3.609365377e-12
3.573154842e-12
3.55253805e-12
3.539009869e-12
3.534882291e-12
3.504356178e-12
3.464764034e-12
3.429976057e-12
3.394426518e-12
3.382571363e-12
3.383448726e-12
3.39748494e-12
3.443463897e-12
3.489412441e-12
3.484319063e-12
3.460265756e-12
3.462473226e-12
3.490333151e-12
3.531895046e-12
3.572569925e-12
3.577990298e-12
3.56189518e-12
3.561623524e-12
3.571611145e-12
3.572590643e-12
3.549701004e-12
3.470396984e-12
3.420507055e-12
3.35708371e-12
3.244349147e-12
3.132194361e-12
2.960598e-12
2.786099461e-12
2.701504945e-12
-5.628592669e-12
-1.607609598e-11
-2.208556123e-11
-2.856165988e-11
-3.128560384e-11
)


101
(
-3.153044307e-13
-6.691599079e-13
-1.31351618e-12
-1.833380474e-12
-2.261487615e-12
-2.647673494e-12
-3.027250108e-12
-3.429167507e-12
-3.8692526e-12
-4.361738519e-12
-4.918138941e-12
-5.545014373e-12
-6.258978904e-12
-7.08508327e-12
-8.031765197e-12
-9.078659126e-12
-1.018462511e-11
-1.129137404e-11
-1.230283353e-11
-1.311305719e-11
-1.362658251e-11
-1.376157743e-11
-1.346278815e-11
-1.272190825e-11
-1.157658903e-11
-1.008834949e-11
-8.344273161e-12
-6.457966198e-12
-4.535056999e-12
-2.659328393e-12
-9.011116123e-13
7.159062531e-13
2.038311496e-12
3.116077631e-12
4.045941618e-12
4.74430209e-12
5.264074996e-12
5.603261055e-12
5.757697759e-12
5.813392543e-12
5.881137337e-12
5.919581625e-12
5.89322864e-12
5.851776372e-12
5.742669567e-12
5.573221931e-12
5.381252991e-12
5.205095162e-12
5.058151162e-12
4.92194998e-12
4.797199715e-12
4.654946847e-12
4.497906847e-12
4.352870679e-12
4.24727985e-12
4.132766252e-12
4.040298187e-12
4.008130925e-12
3.989190221e-12
3.952319928e-12
3.892666858e-12
3.84263266e-12
3.802786656e-12
3.796754474e-12
3.802992217e-12
3.830141338e-12
3.882018034e-12
3.89785007e-12
3.892452813e-12
3.888211571e-12
3.898746889e-12
3.923293937e-12
3.953760982e-12
4.012051269e-12
4.114485894e-12
4.231604822e-12
4.317119661e-12