/*--------------------------------*- C++ -*----------------------------------*\
| =========                 |                                                 |
| \\      /  F ield         | OpenFOAM: The Open Source CFD Toolbox           |
|  \\    /   O peration     | Version:  2.3.1                                 |
|   \\  /    A nd           | Web:      www.OpenFOAM.org                      |
|    \\/     M anipulation  |                                                 |
\*---------------------------------------------------------------------------*/
FoamFile
{
    version     2.0;
    format      ascii;
    class       dictionary;
    location    "constant";
    object      DPSI47;
}
// * * * * * * * * * * * * * * * * * * * * * * * * * * * * * * * * * * * * * //

DPSI47_table
101
(

101
(
3.75275906e-25
3.833546776e-15
8.578720194e-14
6.748078084e-13
3.274639384e-12
1.136868032e-11
3.047467458e-11
7.05295883e-11
1.406182466e-10
2.522381055e-10
4.143078083e-10
6.354889858e-10
9.141874493e-10
1.266086098e-09
1.671070705e-09
2.125883623e-09
2.629824432e-09
3.179441879e-09
3.719079884e-09
4.329513029e-09
4.904842226e-09
5.477152356e-09
6.080291481e-09
6.655437721e-09
7.204516605e-09
7.731810805e-09
8.232191618e-09
8.699752042e-09
9.135790574e-09
9.52953561e-09
9.879646428e-09
1.018125386e-08
1.043774449e-08
1.063778469e-08
1.077669214e-08
1.085776606e-08
1.088251699e-08
1.086220298e-08
1.077339886e-08
1.059357455e-08
1.034415471e-08
1.008205321e-08
9.721648019e-09
9.302187126e-09
8.86132149e-09
8.327508972e-09
7.765463718e-09
7.11458985e-09
6.432537758e-09
5.671057406e-09
4.888278383e-09
4.050645207e-09
3.169314162e-09
2.254620413e-09
1.316104656e-09
3.503432317e-10
-7.231584534e-10
-1.721189466e-09
-2.817026695e-09
-3.891067939e-09
-5.013067543e-09
-6.132772299e-09
-7.256353099e-09
-8.400124477e-09
-9.543671324e-09
-1.069658531e-08
-1.183783796e-08
-1.297138378e-08
-1.411967274e-08
-1.523590348e-08
-1.634560037e-08
-1.744237493e-08
-1.85502355e-08
-1.960942498e-08
-2.062530115e-08
-2.159220221e-08
-2.257615935e-08
-2.351938901e-08
-2.440924798e-08
-2.525396622e-08
-2.605418513e-08
-2.684320561e-08
-2.756904829e-08
-2.825916605e-08
-2.890055902e-08
-2.94883162e-08
-3.002561841e-08
-3.051829797e-08
-3.096717912e-08
-3.137542426e-08
-3.173595509e-08
-3.205012638e-08
-3.232600087e-08
-3.25669219e-08
-3.276899139e-08
-3.299847226e-08
-3.329643608e-08
-3.744314388e-08
-4.175799996e-08
-4.637563193e-08
-5.113452418e-08
)


101
(
3.752853126e-25
3.47395047e-15
8.121459765e-14
6.487532382e-13
3.176547445e-12
1.108557438e-11
2.981281137e-11
6.915991265e-11
1.382160423e-10
2.48430153e-10
4.088928393e-10
6.284105734e-10
9.060717273e-10
1.256851719e-09
1.663013979e-09
2.120524384e-09
2.628625134e-09
3.184284082e-09
3.736405425e-09
4.353907153e-09
4.947879387e-09
5.537849678e-09
6.156294067e-09
6.75483592e-09
7.329276257e-09
7.882676736e-09
8.41090385e-09
8.90816692e-09
9.374711575e-09
9.801102178e-09
1.018465566e-08
1.052051194e-08
1.081023957e-08
1.104612219e-08
1.122036028e-08
1.133519828e-08
1.139180396e-08
1.139933559e-08
1.134084663e-08
1.119486702e-08
1.097338035e-08
1.072336325e-08
1.038707668e-08
9.983793559e-09
9.546073678e-09
9.025116604e-09
8.461510727e-09
7.815833185e-09
7.124916488e-09
6.358550305e-09
5.555536519e-09
4.697756318e-09
3.790481914e-09
2.842429964e-09
1.863093331e-09
8.523878527e-10
-2.507133343e-10
-1.321006207e-09
-2.463090469e-09
-3.606575983e-09
-4.790951085e-09
-5.985455446e-09
-7.188793117e-09
-8.411923403e-09
-9.641790224e-09
-1.088272994e-08
-1.211948497e-08
-1.335149263e-08
-1.45947256e-08
-1.581763091e-08
-1.703203438e-08
-1.823407445e-08
-1.944101317e-08
-2.06135084e-08
-2.174819999e-08
-2.283795947e-08
-2.392706291e-08
-2.498178135e-08
-2.598671844e-08
-2.69447983e-08
-2.785606004e-08
-2.874367484e-08
-2.957525083e-08
-3.036479634e-08
-3.110455561e-08
-3.178988712e-08
-3.24175599e-08
-3.299247658e-08
-3.351762266e-08
-3.399742932e-08
-3.442492566e-08
-3.480450211e-08
-3.513431037e-08
-3.542401837e-08
-3.567453719e-08
-3.595768246e-08
-3.632676344e-08
-4.053779654e-08
-4.490663726e-08
-4.957911313e-08
-5.438416176e-08
)


101
(
3.752947199e-25
2.783011924e-15
7.222669753e-14
5.964574545e-13
2.974696925e-12
1.048607852e-11
2.836623446e-11
6.605918833e-11
1.325305799e-10
2.389479652e-10
3.945102434e-10
6.08048944e-10
8.797711202e-10
1.222952006e-09
1.624247795e-09
2.078299395e-09
2.583928362e-09
3.138657938e-09
3.70080729e-09
4.316583084e-09
4.928006827e-09
5.534439048e-09
6.162554741e-09
6.78355103e-09
7.384814335e-09
7.966127755e-09
8.524854603e-09
9.055918932e-09
9.557795732e-09
1.002372146e-08
1.04492384e-08
1.082970852e-08
1.116416211e-08
1.144866848e-08
1.167452095e-08
1.184058967e-08
1.19472471e-08
1.200001272e-08
1.199219924e-08
1.190699602e-08
1.174241189e-08
1.152528171e-08
1.124027246e-08
1.088261208e-08
1.047123824e-08
9.992496478e-09
9.454113934e-09
8.845938914e-09
8.175887117e-09
7.438308922e-09
6.644522796e-09
5.79634517e-09
4.893269868e-09
3.940127946e-09
2.944838858e-09
1.912127835e-09
8.160409613e-10
-3.078265198e-10
-1.469997458e-09
-2.662338046e-09
-3.886128209e-09
-5.135729883e-09
-6.402963098e-09
-7.689117252e-09
-8.991111367e-09
-1.030684297e-08
-1.162973737e-08
-1.29540329e-08
-1.428383221e-08
-1.561062801e-08
-1.692947856e-08
-1.82378742e-08
-1.954089212e-08
-2.082951699e-08
-2.209318735e-08
-2.332388107e-08
-2.453094789e-08
-2.571189279e-08
-2.685321465e-08
-2.794911253e-08
-2.89975785e-08
-3.000544171e-08
-3.096853144e-08
-3.188444564e-08
-3.275123308e-08
-3.356653128e-08
-3.432193268e-08
-3.501401846e-08
-3.564681514e-08
-3.622929673e-08
-3.675504739e-08
-3.723281263e-08
-3.765191478e-08
-3.802009251e-08
-3.835179795e-08
-3.872630253e-08
-3.920977371e-08
-4.347596657e-08
-4.789217162e-08
-5.261496386e-08
-5.746397077e-08
)


101
(
3.753041272e-25
2.153395781e-15
6.380418785e-14
5.468067847e-13
2.781433529e-12
9.908522018e-12
2.696562331e-11
6.304433458e-11
1.269712152e-10
2.296342163e-10
3.803014287e-10
5.878212592e-10
8.53395722e-10
1.188888279e-09
1.584598826e-09
2.034568053e-09
2.53710444e-09
3.090098736e-09
3.659729537e-09
4.275408231e-09
4.899865228e-09
5.522169462e-09
6.161061874e-09
6.800887122e-09
7.426892694e-09
8.035188464e-09
8.62322543e-09
9.18665186e-09
9.722933004e-09
1.02267449e-08
1.069309447e-08
1.111716713e-08
1.149638671e-08
1.182836726e-08
1.210504028e-08
1.232307228e-08
1.2481332e-08
1.258259719e-08
1.262495573e-08
1.259724344e-08
1.249191029e-08
1.232073232e-08
1.208425225e-08
1.177614784e-08
1.140350301e-08
1.096540535e-08
1.046221115e-08
9.8910509e-09
9.25236847e-09
8.545553252e-09
7.77432182e-09
6.943142606e-09
6.053014151e-09
5.106181822e-09
4.108041356e-09
3.064362101e-09
1.9666958e-09
8.222204375e-10
-3.6319425e-10
-1.586801339e-09
-2.845739394e-09
-4.13703347e-09
-5.454796798e-09
-6.795971375e-09
-8.158578526e-09
-9.540136413e-09
-1.093633254e-08
-1.234146327e-08
-1.37538458e-08
-1.517021568e-08
-1.658550411e-08
-1.799500287e-08
-1.939795743e-08
-2.079147511e-08
-2.216891155e-08
-2.352321671e-08
-2.485311082e-08
-2.615807356e-08
-2.743043328e-08
-2.866196324e-08
-2.984649796e-08
-3.098481292e-08
-3.20779159e-08
-3.312361793e-08
-3.4119174e-08
-3.506342004e-08
-3.595138131e-08
-3.677482591e-08
-3.752753245e-08
-3.822275071e-08
-3.885650716e-08
-3.943907863e-08
-3.996510778e-08
-4.042741285e-08
-4.085145556e-08
-4.1336447e-08
-4.194841243e-08
-4.626426673e-08
-5.072453975e-08
-5.549566702e-08
-6.038850732e-08
)


101
(
3.753135693e-25
1.582391141e-15
5.592870296e-14
4.997336234e-13
2.59658684e-12
9.352605547e-12
2.56107132e-11
6.01155943e-11
1.215404998e-10
2.204949852e-10
3.662806882e-10
5.677527516e-10
8.26995176e-10
1.154705716e-09
1.544197681e-09
1.989447505e-09
2.488268228e-09
3.038756472e-09
3.613608427e-09
4.230022009e-09
4.864267013e-09
5.501061486e-09
6.151367094e-09
6.807534141e-09
7.455889121e-09
8.089812877e-09
8.705945219e-09
9.300325809e-09
9.869883885e-09
1.041006887e-08
1.091589573e-08
1.138238739e-08
1.180591416e-08
1.218445648e-08
1.251094267e-08
1.278091591e-08
1.29917464e-08
1.31439273e-08
1.323728217e-08
1.32651508e-08
1.321903383e-08
1.310128578e-08
1.29160102e-08
1.265970723e-08
1.233365489e-08
1.193985537e-08
1.147786328e-08
1.094705469e-08
1.034600699e-08
9.674712577e-09
8.934221939e-09
8.128289634e-09
7.259006822e-09
6.327977075e-09
5.338510768e-09
4.295612912e-09
3.198739386e-09
2.047956651e-09
8.49114971e-10
-3.947870373e-10
-1.679859707e-09
-3.003131145e-09
-4.359979509e-09
-5.7462109e-09
-7.15921455e-09
-8.5966438e-09
-1.005529081e-08
-1.15302424e-08
-1.301747564e-08
-1.451382543e-08
-1.601540222e-08
-1.751740468e-08
-1.901661222e-08
-2.051036939e-08
-2.199392484e-08
-2.346115184e-08
-2.490774767e-08
-2.633263687e-08
-2.773063833e-08
-2.909477419e-08
-3.041562112e-08
-3.168810534e-08
-3.291379477e-08
-3.409171394e-08
-3.521975593e-08
-3.629616432e-08
-3.731697655e-08
-3.827799608e-08
-3.916574666e-08
-3.998500766e-08
-4.07380837e-08
-4.143706285e-08
-4.20783669e-08
-4.265400859e-08
-4.318342605e-08
-4.379443766e-08
-4.454874175e-08
-4.891156171e-08
-5.34149959e-08
-5.823427976e-08
-6.317229933e-08
)


101
(
3.753229423e-25
1.067322068e-15
4.858191208e-14
4.551698816e-13
2.41998278e-12
8.818014211e-12
2.430117671e-11
5.727307084e-11
1.162406811e-10
2.115359943e-10
3.524615889e-10
5.478676706e-10
8.006170756e-10
1.120450779e-09
1.503165451e-09
1.943060378e-09
2.437539022e-09
2.98477861e-09
3.56283989e-09
4.180218895e-09
4.821797857e-09
5.471307708e-09
6.133137483e-09
6.803893148e-09
7.472242547e-09
8.130098403e-09
8.772977916e-09
9.396903962e-09
9.99847819e-09
1.057356996e-08
1.11174019e-08
1.162496848e-08
1.209197264e-08
1.25161624e-08
1.289136333e-08
1.321273073e-08
1.347646632e-08
1.368119155e-08
1.38268139e-08
1.390956204e-08
1.392196378e-08
1.38613811e-08
1.373090649e-08
1.352896223e-08
1.325468807e-08
1.290992421e-08
1.249428275e-08
1.200814244e-08
1.144985888e-08
1.08192708e-08
1.011604612e-08
9.342752007e-09
8.501682217e-09
7.594489391e-09
6.623335548e-09
5.592019332e-09
4.503103519e-09
3.355582211e-09
2.153872039e-09
9.003437396e-10
-4.008719649e-10
-1.746550073e-09
-3.132475198e-09
-4.554048786e-09
-6.00785478e-09
-7.491366426e-09
-9.002199052e-09
-1.053648865e-08
-1.208961519e-08
-1.365756631e-08
-1.523644505e-08
-1.682193167e-08
-1.841012574e-08
-1.999814109e-08
-2.15818691e-08
-2.315550068e-08
-2.471303305e-08
-2.625270326e-08
-2.777070022e-08
-2.926192868e-08
-3.071731474e-08
-3.212660017e-08
-3.348801107e-08
-3.480108206e-08
-3.60646189e-08
-3.727747609e-08
-3.843562954e-08
-3.953598858e-08
-4.056884903e-08
-4.152558631e-08
-4.240955263e-08
-4.323716999e-08
-4.400347706e-08
-4.470890325e-08
-4.535878366e-08
-4.610868796e-08
-4.701957926e-08
-5.142795151e-08
-5.597455294e-08
-6.084362105e-08
-6.582960121e-08
)


101
(
3.753323485e-25
6.055359539e-16
4.174558398e-14
4.13047439e-13
2.251446049e-12
8.304426423e-12
2.303666254e-11
5.451679701e-11
1.110738203e-10
2.027627267e-10
3.38857142e-10
5.281898761e-10
7.743072606e-10
1.086171229e-09
1.461616496e-09
1.895532897e-09
2.385041601e-09
2.928311249e-09
3.50779129e-09
4.125918248e-09
4.772892404e-09
5.433201289e-09
6.106177541e-09
6.790194182e-09
7.476379597e-09
8.15626583e-09
8.824361824e-09
9.47637601e-09
1.010861393e-08
1.071714929e-08
1.12974492e-08
1.184460955e-08
1.235397017e-08
1.28227878e-08
1.324553959e-08
1.361737323e-08
1.393379144e-08
1.419194878e-08
1.439103397e-08
1.452872955e-08
1.459907348e-08
1.459729826e-08
1.452449276e-08
1.437954977e-08
1.416089482e-08
1.386956863e-08
1.350497464e-08
1.306793869e-08
1.255710856e-08
1.197226521e-08
1.131223189e-08
1.057831757e-08
9.772382137e-09
8.896184711e-09
7.951431032e-09
6.940894411e-09
5.868154223e-09
4.732568469e-09
3.53763127e-09
2.284791746e-09
9.777423007e-10
-3.804161276e-10
-1.785713386e-09
-3.233304071e-09
-4.718967097e-09
-6.239465518e-09
-7.792771875e-09
-9.376172114e-09
-1.098561901e-08
-1.261671314e-08
-1.426475179e-08
-1.592549005e-08
-1.759476952e-08
-1.926975035e-08
-2.094689699e-08
-2.262097324e-08
-2.428476891e-08
-2.593498962e-08
-2.75681474e-08
-2.91809468e-08
-3.076610015e-08
-3.231234079e-08
-3.381269395e-08
-3.526487209e-08
-3.666786647e-08
-3.802117576e-08
-3.932086506e-08
-4.056585141e-08
-4.174734613e-08
-4.285527302e-08
-4.388142138e-08
-4.484980679e-08
-4.575496574e-08
-4.660166542e-08
-4.738793104e-08
-4.828923896e-08
-4.937154139e-08
-5.382543716e-08
-5.84163541e-08
-6.333740655e-08
-6.837431856e-08
)


101
(
3.753417555e-25
1.944144615e-16
3.540157262e-14
3.732978068e-13
2.09079795e-12
7.811506612e-12
2.181677715e-11
5.184669566e-11
1.060416987e-10
1.94180193e-10
3.254795293e-10
5.08741949e-10
7.481099476e-10
1.051915676e-09
1.419660285e-09
1.8469957e-09
2.330906717e-09
2.869503489e-09
3.448800406e-09
4.067144951e-09
4.717895488e-09
5.387071728e-09
6.070422244e-09
6.76657132e-09
7.468670286e-09
8.168605412e-09
8.86021526e-09
9.538766944e-09
1.020023267e-08
1.08407296e-08
1.145592884e-08
1.204110241e-08
1.259146319e-08
1.310373089e-08
1.357280506e-08
1.399394162e-08
1.436233775e-08
1.467412802e-08
1.492750698e-08
1.512056314e-08
1.524858002e-08
1.53062519e-08
1.529298606e-08
1.520729775e-08
1.50472727e-08
1.481316918e-08
1.450387764e-08
1.412019979e-08
1.366109357e-08
1.312651338e-08
1.251502012e-08
1.182680802e-08
1.106273707e-08
1.0224326e-08
9.313179598e-09
8.331410128e-09
7.282675812e-09
6.166983295e-09
4.987452286e-09
3.744838968e-09
2.442052523e-09
1.08153385e-09
-3.3318375e-10
-1.797428946e-09
-3.306279884e-09
-4.855467343e-09
-6.442434745e-09
-8.065262259e-09
-9.721162583e-09
-1.140640885e-08
-1.311568517e-08
-1.48441117e-08
-1.658703525e-08
-1.834150834e-08
-2.010468734e-08
-2.187238622e-08
-2.363727803e-08
-2.539419009e-08
-2.713897013e-08
-2.886930376e-08
-3.057974945e-08
-3.225990311e-08
-3.390026978e-08
-3.549473947e-08
-3.70415713e-08
-3.854054815e-08
-3.998597119e-08
-4.138123057e-08
-4.271557392e-08
-4.398457822e-08
-4.516461201e-08
-4.62849109e-08
-4.734329543e-08
-4.83427017e-08
-4.928215107e-08
-5.034834416e-08
-5.161413214e-08
-5.61154284e-08
-6.075343781e-08
-6.572915183e-08
-7.082072336e-08
)


101
(
3.753512323e-25
-1.686252611e-16
2.95318137e-14
3.358526536e-13
1.937857223e-12
7.338903487e-12
2.06410742e-11
4.926256924e-11
1.011458527e-10
1.857930227e-10
3.123403458e-10
4.895456349e-10
7.220678246e-10
1.017732744e-09
1.377399664e-09
1.797580974e-09
2.275270151e-09
2.808506748e-09
3.386179587e-09
4.003992783e-09
4.657100699e-09
5.333269849e-09
6.025915112e-09
6.733114996e-09
7.449422646e-09
8.167444331e-09
8.880741553e-09
9.584168456e-09
1.027332996e-08
1.094426598e-08
1.159276935e-08
1.221431114e-08
1.280414677e-08
1.335850966e-08
1.387258532e-08
1.434171233e-08
1.4761022e-08
1.512605066e-08
1.543404472e-08
1.568286202e-08
1.58685191e-08
1.59858645e-08
1.603323145e-08
1.600848123e-08
1.590936767e-08
1.573553906e-08
1.54852775e-08
1.51589645e-08
1.4755607e-08
1.427532475e-08
1.371682783e-08
1.307979963e-08
1.236407079e-08
1.157022715e-08
1.069957497e-08
9.753927401e-09
8.736626677e-09
7.648049587e-09
6.491558531e-09
5.267624603e-09
3.978394065e-09
2.625457884e-09
1.211522217e-09
-2.595307326e-10
-1.78268418e-09
-3.352669334e-09
-4.965564285e-09
-6.619303361e-09
-8.312116775e-09
-1.004192938e-08
-1.18039763e-08
-1.359267454e-08
-1.540243519e-08
-1.722960204e-08
-1.90716254e-08
-2.092560999e-08
-2.278549559e-08
-2.464498847e-08
-2.649817237e-08
-2.834264145e-08
-3.017513107e-08
-3.198621874e-08
-3.376550133e-08
-3.550349525e-08
-3.719722686e-08
-3.884712188e-08
-4.044448633e-08
-4.199499825e-08
-4.348935648e-08
-4.49249319e-08
-4.627227777e-08
-4.755476345e-08
-4.877905834e-08
-4.994430914e-08
-5.105227883e-08
-5.229742232e-08
-5.375760848e-08
-5.830867229e-08
-6.299682137e-08
-6.803011502e-08
-7.318023015e-08
)


101
(
3.753606391e-25
-4.861333195e-16
2.411836755e-14
3.006439346e-13
1.792441442e-12
6.886249955e-12
1.950904111e-11
4.676404501e-11
9.638751086e-11
1.776054024e-10
2.994502886e-10
4.706214043e-10
6.962214904e-10
9.836712085e-10
1.334931812e-09
1.747419811e-09
2.218271489e-09
2.745473029e-09
3.320222657e-09
3.936610117e-09
4.590773051e-09
5.272145904e-09
5.972785913e-09
6.689918095e-09
7.418895331e-09
8.153116893e-09
8.886201931e-09
9.612730746e-09
1.032795632e-08
1.102775184e-08
1.170793549e-08
1.236415418e-08
1.299180877e-08
1.35867518e-08
1.414438928e-08
1.466008657e-08
1.512900314e-08
1.554639496e-08
1.590877621e-08
1.621349418e-08
1.645681182e-08
1.663388873e-08
1.674247478e-08
1.677981125e-08
1.67432795e-08
1.663205577e-08
1.644389454e-08
1.617850634e-08
1.5834683e-08
1.54125401e-08
1.491094745e-08
1.432953519e-08
1.366762346e-08
1.292483179e-08
1.210150924e-08
1.119903204e-08
1.022035031e-08
9.165936992e-09
8.039505688e-09
6.841661634e-09
5.574192804e-09
4.237978602e-09
2.834766923e-09
1.367171872e-09
-1.606153595e-10
-1.743111825e-09
-3.374730331e-09
-5.052110434e-09
-6.773501876e-09
-8.53842279e-09
-1.034392559e-08
-1.218490986e-08
-1.405476469e-08
-1.594853816e-08
-1.786313889e-08
-1.979662964e-08
-2.17446073e-08
-2.370149383e-08
-2.565998309e-08
-2.761561992e-08
-2.95665808e-08
-3.150628847e-08
-3.342337346e-08
-3.530576514e-08
-3.714771093e-08
-3.895251805e-08
-4.070892224e-08
-4.241907935e-08
-4.408067022e-08
-4.568922684e-08
-4.721670057e-08
-4.867216036e-08
-5.007254683e-08
-5.141851793e-08
-5.270866571e-08
-5.414606517e-08
-5.581349326e-08
-6.041636072e-08
-6.515718702e-08
-7.024843865e-08
-7.545949819e-08
)


101
(
3.753440253e-25
-7.606255764e-16
1.914339107e-14
2.676033464e-13
1.654366004e-12
6.453167438e-12
1.842012277e-11
4.435063159e-11
9.176764298e-11
1.696211599e-10
2.868193319e-10
4.5198882e-10
6.706095534e-10
9.497807677e-10
1.292350887e-09
1.696642971e-09
2.160055228e-09
2.680560452e-09
3.251201125e-09
3.865192202e-09
4.519173444e-09
5.204044203e-09
5.911233609e-09
6.637093519e-09
7.377301835e-09
8.12594167e-09
8.876898439e-09
9.624664292e-09
1.036421802e-08
1.109122472e-08
1.180143333e-08
1.24906087e-08
1.315434397e-08
1.378820133e-08
1.438782977e-08
1.494857358e-08
1.546563105e-08
1.593416347e-08
1.635020686e-08
1.671056726e-08
1.701143234e-08
1.724818376e-08
1.741821741e-08
1.75183538e-08
1.754557086e-08
1.749862509e-08
1.737495077e-08
1.71735652e-08
1.689269663e-08
1.653228206e-08
1.609124667e-08
1.556931554e-08
1.496564229e-08
1.427934112e-08
1.350979687e-08
1.26574012e-08
1.172451057e-08
1.071128031e-08
9.621714631e-09
8.456795626e-09
7.218337253e-09
5.906896621e-09
4.523471325e-09
3.069417676e-09
1.547421316e-09
-3.802978878e-11
-1.680671452e-09
-3.375043822e-09
-5.118171721e-09
-6.910023281e-09
-8.749594515e-09
-1.063381e-08
-1.255622304e-08
-1.451060246e-08
-1.649244969e-08
-1.849970334e-08
-2.052897611e-08
-2.257660162e-08
-2.463638991e-08
-2.670108334e-08
-2.876718687e-08
-3.083231786e-08
-3.288645326e-08
-3.49147066e-08
-3.690662279e-08
-3.886762096e-08
-4.07894298e-08
-4.266575409e-08
-4.449869371e-08
-4.628882366e-08
-4.800602513e-08
-4.964717665e-08
-5.123409823e-08
-5.277475786e-08
-5.426112991e-08
-5.590441508e-08
-5.779120566e-08
-6.244683177e-08
-6.724127606e-08
-7.238400631e-08
-7.764975346e-08
)


101
(
3.752624465e-25
-9.945809183e-16
1.458918884e-14
2.366625887e-13
1.523444066e-12
6.039268023e-12
1.737373547e-11
4.202176789e-11
8.728704488e-11
1.618438492e-10
2.744570204e-10
4.336669304e-10
6.452693609e-10
9.161105986e-10
1.249747738e-09
1.645381571e-09
2.100772217e-09
2.613931506e-09
3.179380186e-09
3.789959838e-09
4.442567212e-09
5.129326168e-09
5.84152383e-09
6.574801569e-09
7.324839453e-09
8.086215878e-09
8.853160471e-09
9.620243578e-09
1.038229166e-08
1.11347806e-08
1.187332195e-08
1.259370916e-08
1.329172899e-08
1.396272713e-08
1.460264087e-08
1.520679523e-08
1.57704102e-08
1.628863222e-08
1.675720822e-08
1.717252138e-08
1.753054727e-08
1.782674006e-08
1.80581945e-08
1.822148431e-08
1.831322109e-08
1.833170751e-08
1.827419683e-08
1.813922978e-08
1.792441143e-08
1.762910225e-08
1.725207739e-08
1.679313729e-08
1.625152501e-08
1.562616064e-08
1.491583839e-08
1.411996712e-08
1.32398729e-08
1.227499216e-08
1.122918743e-08
1.010383154e-08
8.901101841e-09
7.621571105e-09
6.2659062e-09
4.834605679e-09
3.328737155e-09
1.750999571e-09
1.066485135e-10
-1.597487557e-09
-3.356227322e-09
-5.168268392e-09
-7.033569443e-09
-8.95156927e-09
-1.091786867e-08
-1.292595196e-08
-1.496976604e-08
-1.704578469e-08
-1.91509059e-08
-2.128259699e-08
-2.343740275e-08
-2.5608046e-08
-2.778745228e-08
-2.997413661e-08
-3.216307222e-08
-3.433870425e-08
-3.648462317e-08
-3.860203329e-08
-4.069263843e-08
-4.274376742e-08
-4.475290632e-08
-4.673122001e-08
-4.86469882e-08
-5.048711274e-08
-5.2272425e-08
-5.402004898e-08
-5.571791889e-08
-5.758070221e-08
-5.969838891e-08
-6.440380875e-08
-6.924792153e-08
-7.441999813e-08
-7.972152318e-08
)


101
(
3.752067468e-25
-1.190439172e-15
1.0438185e-14
2.077530703e-13
1.399485005e-12
5.644143925e-12
1.636921924e-11
3.977669951e-11
8.294617546e-11
1.542764187e-10
2.623718e-10
4.156729752e-10
6.202359441e-10
8.827076172e-10
1.207206958e-09
1.593763437e-09
2.040573825e-09
2.545749395e-09
3.105009881e-09
3.711152874e-09
4.361222383e-09
5.048336375e-09
5.763958226e-09
6.503246597e-09
7.261702953e-09
8.034201383e-09
8.815308643e-09
9.599775341e-09
1.038240624e-08
1.115855773e-08
1.192368237e-08
1.267352296e-08
1.340400527e-08
1.411029031e-08
1.478865567e-08
1.543445924e-08
1.604294136e-08
1.660924953e-08
1.712893943e-08
1.759812209e-08
1.80125701e-08
1.836771777e-08
1.866034442e-08
1.888682149e-08
1.904350919e-08
1.912822787e-08
1.913802859e-08
1.907118215e-08
1.89248695e-08
1.869772116e-08
1.838809523e-08
1.799555943e-08
1.751944994e-08
1.695882484e-08
1.631223864e-08
1.557837738e-08
1.475753278e-08
1.384819115e-08
1.285330599e-08
1.177435082e-08
1.061400735e-08
9.37297897e-09
8.052064871e-09
6.65151428e-09
5.17135194e-09
3.612084591e-09
1.976888441e-09
2.720983289e-10
-1.495292867e-09
-3.321471277e-09
-5.205638552e-09
-7.148701775e-09
-9.149186938e-09
-1.120230401e-08
-1.330162524e-08
-1.544177308e-08
-1.761832242e-08
-1.982855543e-08
-2.207141946e-08
-2.434258992e-08
-2.663334407e-08
-2.893866159e-08
-3.125804608e-08
-3.35803107e-08
-3.588448675e-08
-3.816140226e-08
-4.042097384e-08
-4.265382306e-08
-4.484854949e-08
-4.701822262e-08
-4.914192014e-08
-5.119382493e-08
-5.319087606e-08
-5.515722257e-08
-5.708232481e-08
-5.917797095e-08
-6.153894434e-08
-6.628076339e-08
-7.115785673e-08
-7.631022082e-08
-8.158824719e-08
)


101
(
3.752162893e-25
-1.350603748e-15
6.672903299e-15
1.808063194e-13
1.28229731e-12
5.267382348e-12
1.540589113e-11
3.761458747e-11
7.874528222e-11
1.469215102e-10
2.505716056e-10
3.980235844e-10
5.955426867e-10
8.496186934e-10
1.164811077e-09
1.541915059e-09
1.979614498e-09
2.476187007e-09
3.02832933e-09
3.629024691e-09
4.275421254e-09
4.961428164e-09
5.678880665e-09
6.422688542e-09
7.188120567e-09
7.970172216e-09
8.763679562e-09
9.563608839e-09
1.036485517e-08
1.116276053e-08
1.195264665e-08
1.273015005e-08
1.349125925e-08
1.423094218e-08
1.494583438e-08
1.563139799e-08
1.628293605e-08
1.689560706e-08
1.746481155e-08
1.798646755e-08
1.845624765e-08
1.886956113e-08
1.922284886e-08
1.951227005e-08
1.973400436e-08
1.988544948e-08
1.996337073e-08
1.996580523e-08
1.98897656e-08
1.973326063e-08
1.949405503e-08
1.917130928e-08
1.876416235e-08
1.827172351e-08
1.769279057e-08
1.702560916e-08
1.626966152e-08
1.542245842e-08
1.448571011e-08
1.346039314e-08
1.234932862e-08
1.115352388e-08
9.873939995e-09
8.511135644e-09
7.064931879e-09
5.534121803e-09
3.919447354e-09
2.225019866e-09
4.580633976e-10
-1.375414701e-09
-3.272135409e-09
-5.23275483e-09
-7.257782446e-09
-9.345558004e-09
-1.14915762e-08
-1.368991021e-08
-1.593353922e-08
-1.821782343e-08
-2.054239811e-08
-2.290688594e-08
-2.530493209e-08
-2.772728225e-08
-3.017260124e-08
-3.263686907e-08
-3.510082324e-08
-3.754300785e-08
-3.99715311e-08
-4.238874198e-08
-4.477868495e-08
-4.714457311e-08
-4.948306689e-08
-5.175942784e-08
-5.398154721e-08
-5.617943848e-08
-5.834744482e-08
-6.068863543e-08
-6.330661597e-08
-6.805187854e-08
-7.292257114e-08
-7.797165454e-08
-8.309031246e-08
)


101
(
3.752258302e-25
-1.477437041e-15
3.27598791e-15
1.557538824e-13
1.171686331e-12
4.908554479e-12
1.448302757e-11
3.553446371e-11
7.468424158e-11
1.397811844e-10
2.390635356e-10
3.807339158e-10
5.712206415e-10
8.168887911e-10
1.122638998e-09
1.489957843e-09
1.918049809e-09
2.405417398e-09
2.949576015e-09
3.543828812e-09
4.185446854e-09
4.868956192e-09
5.586656514e-09
6.3334284e-09
7.104347113e-09
7.894403204e-09
8.698601952e-09
9.512106703e-09
1.032997456e-08
1.114764615e-08
1.19603906e-08
1.27637239e-08
1.355360861e-08
1.432478351e-08
1.507423032e-08
1.57975578e-08
1.64902126e-08
1.714740317e-08
1.776439206e-08
1.833691388e-08
1.886063317e-08
1.933099408e-08
1.974412672e-08
2.009599e-08
2.038256911e-08
2.060091054e-08
2.074750803e-08
2.082002861e-08
2.081545877e-08
2.073147599e-08
2.056527254e-08
2.031534854e-08
1.998054796e-08
1.955979489e-08
1.905202575e-08
1.845568556e-08
1.776959365e-08
1.699043883e-08
1.611871035e-08
1.51543328e-08
1.409972452e-08
1.295632258e-08
1.172505151e-08
1.04068089e-08
9.001660551e-09
7.507985799e-09
5.924545143e-09
4.252521943e-09
2.497407133e-09
6.656560424e-10
-1.236546698e-09
-3.207823403e-09
-5.248807798e-09
-7.360205928e-09
-9.541283227e-09
-1.178846749e-08
-1.409344724e-08
-1.644755412e-08
-1.884787876e-08
-2.129747662e-08
-2.379542349e-08
-2.633181829e-08
-2.890002316e-08
-3.149945242e-08
-3.411920781e-08
-3.673131565e-08
-3.93310528e-08
-4.193197237e-08
-4.45231285e-08
-4.709281913e-08
-4.965108965e-08
-5.216288547e-08
-5.4620452e-08
-5.70625252e-08
-5.948846533e-08
-6.208693678e-08
-6.497410686e-08
-6.966190963e-08
-7.445425362e-08
-7.92783011e-08
-8.423722329e-08
)


101
(
3.752349524e-25
-1.573256459e-15
2.302423614e-16
1.32527309e-13
1.067456058e-12
4.567220304e-12
1.359986132e-11
3.353522969e-11
7.076260827e-11
1.328569583e-10
2.278538199e-10
3.638176796e-10
5.472986528e-10
7.845607904e-10
1.080764572e-09
1.438008308e-09
1.856033791e-09
2.333617145e-09
2.868977082e-09
3.455825016e-09
4.091587095e-09
4.771268953e-09
5.487668631e-09
6.235804485e-09
7.010663356e-09
7.807171205e-09
8.62039693e-09
9.445647427e-09
1.027814909e-08
1.111353557e-08
1.194713604e-08
1.27743962e-08
1.359120065e-08
1.439196071e-08
1.517396729e-08
1.593299316e-08
1.666470821e-08
1.7364451e-08
1.802736956e-08
1.864901095e-08
1.922504469e-08
1.975103896e-08
2.022289037e-08
2.063639691e-08
2.098734231e-08
2.127243433e-08
2.148797915e-08
2.163120644e-08
2.16989216e-08
2.168873156e-08
2.159755928e-08
2.142316893e-08
2.116381285e-08
2.081818928e-08
2.038509934e-08
1.986323596e-08
1.925145962e-08
1.854582348e-08
1.774551125e-08
1.684923918e-08
1.585861256e-08
1.477512113e-08
1.359975203e-08
1.233342973e-08
1.097639641e-08
9.527687267e-09
7.985007866e-09
6.347078847e-09
4.616445364e-09
2.798198355e-09
8.998981215e-10
-1.074446561e-09
-3.123569056e-09
-5.248369625e-09
-7.451304986e-09
-9.733881786e-09
-1.209041741e-08
-1.450805909e-08
-1.697900078e-08
-1.950512305e-08
-2.209151003e-08
-2.473418622e-08
-2.742188147e-08
-3.014965421e-08
-3.291649832e-08
-3.569738059e-08
-3.847157104e-08
-4.125319905e-08
-4.404707851e-08
-4.682705777e-08
-4.960590234e-08
-5.236273761e-08
-5.506305222e-08
-5.775890729e-08
-6.045496243e-08
-6.332010186e-08
-6.648278041e-08
-7.102014948e-08
-7.562585278e-08
-8.00663958e-08
-8.461612371e-08
)


101
(
3.752443542e-25
-1.640350418e-15
-2.479930657e-15
1.110585265e-13
9.69412691e-13
4.242948606e-12
1.275563316e-11
3.161578964e-11
6.697981869e-11
1.261501865e-10
2.169486022e-10
3.472887408e-10
5.238050911e-10
7.526780326e-10
1.039260722e-09
1.386185412e-09
1.793724086e-09
2.260974692e-09
2.786768241e-09
3.365284333e-09
3.994145157e-09
4.66874247e-09
5.382337741e-09
6.130223293e-09
6.907412589e-09
7.70878909e-09
8.529405497e-09
9.364633004e-09
1.020982396e-08
1.106084801e-08
1.191321238e-08
1.27623918e-08
1.360421066e-08
1.443267621e-08
1.524526256e-08
1.603790486e-08
1.680654625e-08
1.754674e-08
1.825360046e-08
1.892250471e-08
1.954907882e-08
2.012906427e-08
2.065821088e-08
2.113224547e-08
2.154679629e-08
2.189821449e-08
2.218264098e-08
2.239694884e-08
2.253763132e-08
2.260214497e-08
2.258740499e-08
2.24907324e-08
2.230965475e-08
2.204240978e-08
2.168755459e-08
2.124379384e-08
2.071026789e-08
2.008295544e-08
1.936007961e-08
1.853900772e-08
1.762013144e-08
1.660436984e-08
1.549300197e-08
1.428664713e-08
1.298569568e-08
1.158985309e-08
1.009667227e-08
8.503688075e-09
6.810380595e-09
5.01950602e-09
3.137572963e-09
1.170037244e-09
-8.787714282e-10
-3.007928419e-09
-5.220243141e-09
-7.521839014e-09
-9.91362158e-09
-1.238407492e-08
-1.491894213e-08
-1.751337937e-08
-2.017486847e-08
-2.291014605e-08
-2.570851193e-08
-2.855751384e-08
-3.145948525e-08
-3.440005097e-08
-3.734924379e-08
-4.030685716e-08
-4.329825462e-08
-4.629058733e-08
-4.928592056e-08
-5.229134908e-08
-5.524089613e-08
-5.819362106e-08
-6.116648251e-08
-6.4302304e-08
-6.773977294e-08
-7.199967032e-08
-7.62781339e-08
-8.016644184e-08
-8.398851922e-08
)


101
(
3.752540354e-25
-1.68096032e-15
-4.872840977e-15
9.1279547e-14
8.773597046e-13
3.935292771e-12
1.194952815e-11
2.977489664e-11
6.333478782e-11
1.196612028e-10
2.063528048e-10
3.311592111e-10
5.007656966e-10
7.212805209e-10
9.981942025e-10
1.334599407e-09
1.731274471e-09
2.187674358e-09
2.703182188e-09
3.272476547e-09
3.893420387e-09
4.561734295e-09
5.271085336e-09
6.017115979e-09
6.794978459e-09
7.599583067e-09
8.425955231e-09
9.269445552e-09
1.01254496e-08
1.099004766e-08
1.185901747e-08
1.272800327e-08
1.359283964e-08
1.444711651e-08
1.528834348e-08
1.611253185e-08
1.691591374e-08
1.769434747e-08
1.844303419e-08
1.915722485e-08
1.983246545e-08
2.046464215e-08
2.104942276e-08
2.158257391e-08
2.205965356e-08
2.247668147e-08
2.282962456e-08
2.31150662e-08
2.332923318e-08
2.34692089e-08
2.353194131e-08
2.351461294e-08
2.341421021e-08
2.322832985e-08
2.295511495e-08
2.259319459e-08
2.214177404e-08
2.159717214e-08
2.095724535e-08
2.021816536e-08
1.937867843e-08
1.843900869e-08
1.7400159e-08
1.626260341e-08
1.502686724e-08
1.369253134e-08
1.225787503e-08
1.072023512e-08
9.077000996e-09
7.32811915e-09