/*--------------------------------*- C++ -*----------------------------------*\
| =========                 |                                                 |
| \\      /  F ield         | OpenFOAM: The Open Source CFD Toolbox           |
|  \\    /   O peration     | Version:  2.3.1                                 |
|   \\  /    A nd           | Web:      www.OpenFOAM.org                      |
|    \\/     M anipulation  |                                                 |
\*---------------------------------------------------------------------------*/
FoamFile
{
    version     2.0;
    format      ascii;
    class       dictionary;
    location    "constant";
    object      DPSI41;
}
// * * * * * * * * * * * * * * * * * * * * * * * * * * * * * * * * * * * * * //

DPSI41_table
101
(

101
(
3.907427027e-26
1.316751221e-17
1.280782047e-16
6.058766273e-16
1.791237922e-15
3.837737358e-15
6.699866285e-15
1.045294835e-14
1.467815332e-14
1.916383516e-14
2.345254387e-14
2.716046697e-14
2.974692166e-14
3.063816838e-14
2.934507601e-14
2.564541644e-14
1.932082979e-14
1.031381936e-14
6.629399277e-16
-1.13139446e-14
-2.184012524e-14
-3.114942868e-14
-3.915740582e-14
-4.440896629e-14
-4.707083924e-14
-4.744532998e-14
-4.590824496e-14
-4.302928427e-14
-3.920190209e-14
-3.501512015e-14
-3.074804258e-14
-2.674132702e-14
-2.328299484e-14
-1.900758254e-14
-1.576890336e-14
-1.296335407e-14
-8.533703253e-15
-4.365857424e-15
-6.647508063e-15
-5.998500939e-15
-4.880688491e-15
-4.003423181e-15
-3.190684887e-15
-2.558362555e-15
-2.094853508e-15
-1.685644927e-15
-1.372057059e-15
-1.09335892e-15
-8.761584429e-16
-6.903538449e-16
-5.467304148e-16
-4.297983707e-16
-3.35914176e-16
-2.595674996e-16
-1.991904482e-16
-1.526142108e-16
-1.128641976e-16
-8.575099218e-17
-6.311178481e-17
-4.663433134e-17
-3.35332568e-17
-2.41634413e-17
-1.7177907e-17
-1.193078623e-17
-8.039610248e-18
-5.413488348e-18
-3.572856225e-18
-2.297219862e-18
-1.427560677e-18
-8.676444232e-19
-5.076052682e-19
-2.902337484e-19
-1.602738351e-19
-8.368792942e-20
-3.854190557e-20
-1.744352159e-20
-8.544471318e-21
-3.862627108e-21
-1.668929093e-21
-6.771090069e-22
-2.575094033e-22
-8.226791947e-23
-2.70594352e-23
-6.40162028e-24
-1.617118672e-24
-1.24747266e-24
-8.941870113e-25
-4.72863078e-25
-1.609487787e-25
-5.548245526e-26
-2.448327631e-26
-9.926320132e-27
-3.537978902e-27
-1.120626829e-27
-3.904626856e-28
-1.134083059e-28
-8.139645824e-30
-1.586212269e-29
-3.370858456e-29
-1.425561034e-28
-6.235388165e-28
)


101
(
3.90752497e-26
1.275450894e-17
1.255251007e-16
5.97200339e-16
1.769408649e-15
3.794138084e-15
6.623793654e-15
1.032456845e-14
1.448249725e-14
1.8871199e-14
2.303221441e-14
2.657237377e-14
2.895235342e-14
2.95947136e-14
2.800358987e-14
2.393852416e-14
1.718676669e-14
7.689559331e-15
-2.668090952e-15
-1.522563076e-14
-2.666325819e-14
-3.682217962e-14
-4.558546627e-14
-5.161782122e-14
-5.490370598e-14
-5.570658021e-14
-5.438873764e-14
-5.150497053e-14
-4.749982751e-14
-4.295518206e-14
-3.822495986e-14
-3.367556606e-14
-2.96094931e-14
-2.499922413e-14
-2.10935935e-14
-1.765189075e-14
-1.317189021e-14
-8.65961325e-15
-9.322341155e-15
-8.631128601e-15
-7.3823185e-15
-6.20002172e-15
-5.105517824e-15
-4.196469637e-15
-3.4765302e-15
-2.862456694e-15
-2.365474268e-15
-1.93554238e-15
-1.581922469e-15
-1.281053494e-15
-1.035359884e-15
-8.323755117e-16
-6.662919893e-16
-5.301881786e-16
-4.189221373e-16
-3.289443229e-16
-2.537774794e-16
-1.961227385e-16
-1.495457579e-16
-1.133454712e-16
-8.484430157e-17
-6.305619044e-17
-4.630820114e-17
-3.355971487e-17
-2.39289035e-17
-1.68557182e-17
-1.167732858e-17
-7.94361032e-18
-5.311957784e-18
-3.472522653e-18
-2.212710441e-18
-1.373899543e-18
-8.382302022e-19
-4.962771193e-19
-2.81441906e-19
-1.546804147e-19
-8.283829847e-20
-4.282347098e-20
-2.153063267e-20
-1.045282799e-20
-4.862132139e-21
-2.10670359e-21
-8.803254726e-22
-3.423083445e-22
-1.216711739e-22
-4.151529291e-23
-1.529997277e-23
-7.27345139e-24
-2.890506963e-24
-1.024316141e-24
-4.090235204e-25
-1.741518189e-25
-7.607207719e-26
-2.98976742e-26
-1.240708111e-26
-4.672780154e-27
-6.843370722e-28
-2.287900742e-27
-7.061973008e-27
-4.002080566e-26
5.797592393e-24
)


101
(
3.90762292e-26
1.192916501e-17
1.20281737e-16
5.786772055e-16
1.720858714e-15
3.693387092e-15
6.442632877e-15
1.001394166e-14
1.400248853e-14
1.815337594e-14
2.200723228e-14
2.51559562e-14
2.706826383e-14
2.716726318e-14
2.4954309e-14
2.016043044e-14
1.258710083e-14
2.182776497e-15
-9.474920261e-15
-2.310230089e-14
-3.620271875e-14
-4.799796548e-14
-5.824252918e-14
-6.582688269e-14
-7.043515743e-14
-7.222979859e-14
-7.152482092e-14
-6.882464174e-14
-6.465013492e-14
-5.956846169e-14
-5.404782672e-14
-4.852100589e-14
-4.33151711e-14
-3.802981686e-14
-3.298241367e-14
-2.814848602e-14
-2.342770226e-14
-1.836562369e-14
-1.616261876e-14
-1.48366321e-14
-1.320674044e-14
-1.144548186e-14
-9.759487197e-15
-8.249123645e-15
-6.958709713e-15
-5.866044474e-15
-4.941943701e-15
-4.152300495e-15
-3.474274929e-15
-2.893173874e-15
-2.396291656e-15
-1.975747065e-15
-1.62277556e-15
-1.327690874e-15
-1.080147806e-15
-8.736143626e-16
-6.999824724e-16
-5.57003366e-16
-4.402260423e-16
-3.449802398e-16
-2.684952751e-16
-2.073905505e-16
-1.587322341e-16
-1.204152847e-16
-9.036770077e-17
-6.692317158e-17
-4.894832676e-17
-3.527080348e-17
-2.515622484e-17
-1.767713016e-17
-1.217913998e-17
-8.219376925e-18
-5.460889484e-18
-3.559868888e-18
-2.263089107e-18
-1.400943001e-18
-8.417252042e-19
-4.921068922e-19
-2.802101262e-19
-1.559875819e-19
-8.460697754e-20
-4.377054079e-20
-2.183535427e-20
-1.046869797e-20
-4.731522759e-21
-2.010605515e-21
-8.046171895e-22
-3.400643754e-22
-1.437760307e-22
-5.466008913e-23
-1.916640231e-23
-7.42924265e-24
-3.038607695e-24
-1.235462919e-24
-5.241443522e-25
-1.963571493e-25
-2.874117536e-26
-2.105670739e-25
-9.348971874e-25
-7.519333093e-24
-3.713713226e-23
)


101
(
3.90772087e-26
1.112509475e-17
1.151394239e-16
5.604904642e-16
1.673310542e-15
3.595205871e-15
6.267330772e-15
9.715545021e-15
1.35434524e-14
1.747064777e-14
2.103408694e-14
2.381137802e-14
2.527430096e-14
2.48447844e-14
2.201615726e-14
1.64855684e-14
8.054031063e-15
-3.33119967e-15
-1.635300811e-14
-3.128184171e-14
-4.61607034e-14
-5.987693422e-14
-7.19764005e-14
-8.14479979e-14
-8.778177174e-14
-9.099087499e-14
-9.130676646e-14
-8.917121142e-14
-8.513596478e-14
-7.977211956e-14
-7.360425763e-14
-6.717062722e-14
-6.083257289e-14
-5.465666576e-14
-4.86206906e-14
-4.276406057e-14
-3.683121692e-14
-3.096000334e-14
-2.67616106e-14
-2.396249035e-14
-2.152832239e-14
-1.908301244e-14
-1.66877775e-14
-1.444494447e-14
-1.243257337e-14
-1.068150267e-14
-9.165500874e-15
-7.856975271e-15
-6.714390508e-15
-5.720310013e-15
-4.850174837e-15
-4.094172208e-15
-3.443304749e-15
-2.887470694e-15
-2.411738701e-15
-2.003691788e-15
-1.656443273e-15
-1.360752306e-15
-1.111987742e-15
-9.014342649e-16
-7.265424345e-16
-5.825281488e-16
-4.637732547e-16
-3.669845322e-16
-2.882592257e-16
-2.238392021e-16
-1.720415637e-16
-1.308201475e-16
-9.855494543e-17
-7.360727248e-17
-5.405409256e-17
-3.909678566e-17
-2.785954643e-17
-1.959151377e-17
-1.353886393e-17
-9.175349892e-18
-6.061048401e-18
-3.919711325e-18
-2.474862196e-18
-1.530663968e-18
-9.289321403e-19
-5.461291682e-19
-3.10502855e-19
-1.717906991e-19
-9.130957737e-20
-4.621315262e-20
-2.208834644e-20
-1.035682679e-20
-4.860515095e-21
-2.187845406e-21
-8.848268703e-22
-3.533018048e-22
-1.403762123e-22
-5.517677368e-23
-2.303293955e-23
-8.219493253e-24
-1.491967445e-24
-1.812390506e-23
-8.330670522e-23
-6.511932818e-22
-2.085657901e-21
)


101
(
3.907819183e-26
1.034231208e-17
1.100979643e-16
5.426418456e-16
1.626798432e-15
3.49975033e-15
6.09829618e-15
9.43034849e-15
1.310750631e-14
1.682686821e-14
2.011941534e-14
2.254893332e-14
2.35862167e-14
2.264964948e-14
1.922042085e-14
1.29569598e-14
3.645963602e-15
-8.776965532e-15
-2.322093479e-14
-3.964677254e-14
-5.644622084e-14
-7.234526682e-14
-8.668051168e-14
-9.843070244e-14
-1.069435389e-13
-1.120624931e-13
-1.138996141e-13
-1.128158135e-13
-1.093513392e-13
-1.040809358e-13
-9.758002366e-14
-9.039264639e-14
-8.299827187e-14
-7.581539585e-14
-6.874359216e-14
-6.203358757e-14
-5.472289931e-14
-4.76869073e-14
-4.180228185e-14
-3.727056885e-14
-3.358096677e-14
-3.01784088e-14
-2.690949383e-14
-2.37915062e-14
-2.088918633e-14
-1.827589723e-14
-1.595909186e-14
-1.393273443e-14
-1.214663847e-14
-1.056762748e-14
-9.160231261e-15
-7.907392214e-15
-6.801652108e-15
-5.837387786e-15
-4.99790717e-15
-4.260116566e-15
-3.617937583e-15
-3.057968535e-15
-2.576052363e-15
-2.155730865e-15
-1.793156773e-15
-1.486613565e-15
-1.224900739e-15
-1.004729167e-15
-8.204639024e-16
-6.645466963e-16
-5.33534558e-16
-4.245421203e-16
-3.345297815e-16
-2.625065272e-16
-2.034558869e-16
-1.55772702e-16
-1.176350821e-16
-8.783369137e-17
-6.471473786e-17
-4.700180322e-17
-3.35767088e-17
-2.353826461e-17
-1.611827746e-17
-1.084192745e-17
-7.167220424e-18
-4.665796031e-18
-2.942662701e-18
-1.815590862e-18
-1.088213063e-18
-6.306265531e-19
-3.475516995e-19
-1.859017605e-19
-9.752394116e-20
-5.04111737e-20
-2.419417392e-20
-1.106996237e-20
-5.045831858e-21
-2.167190563e-21
-9.572581785e-22
-3.60055556e-22
-8.024974005e-23
-8.855480843e-22
-3.972755223e-21
-3.315330337e-20
-9.857737289e-20
)


101
(
3.907916776e-26
9.580837213e-18
1.051567379e-16
5.251263511e-16
1.58130781e-15
3.406987367e-15
5.935447526e-15
9.158165496e-15
1.269440885e-14
1.622166976e-14
1.92630119e-14
2.136824085e-14
2.200493518e-14
2.058359548e-14
1.657129378e-14
9.584646264e-15
-6.205185713e-16
-1.412746478e-14
-3.004356369e-14
-4.81340734e-14
-6.701298277e-14
-8.534240696e-14
-1.022874191e-13
-1.167471614e-13
-1.279280688e-13
-1.35516136e-13
-1.394730915e-13
-1.400354433e-13
-1.376946924e-13
-1.330157091e-13
-1.266239356e-13
-1.190340179e-13
-1.108081899e-13
-1.026451097e-13
-9.448701042e-14
-8.652970939e-14
-7.825988423e-14
-6.995644376e-14
-6.241515245e-14
-5.610656373e-14
-5.084821485e-14
-4.616146247e-14
-4.178637416e-14
-3.761591774e-14
-3.364785685e-14
-2.996575033e-14
-2.661338328e-14
-2.363552913e-14
-2.09865455e-14
-1.861181688e-14
-1.646786619e-14
-1.451780978e-14
-1.275541607e-14
-1.118168169e-14
-9.791355814e-15
-8.546957397e-15
-7.434708916e-15
-6.443625115e-15
-5.568459165e-15
-4.789742235e-15
-4.101507752e-15
-3.501474539e-15
-2.974924464e-15
-2.515842932e-15
-2.120723659e-15
-1.778815843e-15
-1.48151919e-15
-1.224839689e-15
-1.003963096e-15
-8.182580226e-16
-6.623600011e-16
-5.314952111e-16
-4.219252861e-16
-3.313497174e-16
-2.572781422e-16
-1.9745614e-16
-1.499584392e-16
-1.121367077e-16
-8.229196859e-17
-5.937369011e-17
-4.214209577e-17
-2.96016361e-17
-2.033222372e-17
-1.366768241e-17
-9.016047503e-18
-5.788290107e-18
-3.587313806e-18
-2.145156311e-18
-1.260414899e-18
-7.304728933e-19
-4.028910295e-19
-2.100734644e-19
-1.096373048e-19
-5.454389955e-20
-2.706807816e-20
-1.139600919e-20
-3.101032058e-21
-3.495514345e-20
-1.417842851e-19
-9.202434806e-19
-2.317692882e-18
)


101
(
3.908014715e-26
8.840669155e-18
1.003151071e-16
5.079371574e-16
1.536806492e-15
3.316806276e-15
5.778479612e-15
8.898354029e-15
1.23033907e-14
1.565411304e-14
1.846393343e-14
2.026899797e-14
2.053133601e-14
1.865080829e-14
1.407704727e-14
6.384528548e-15
-4.715225894e-15
-1.933580009e-14
-3.676198168e-14
-5.665269377e-14
-7.776883707e-14
-9.876011663e-14
-1.186665797e-13
-1.362804043e-13
-1.506454624e-13
-1.613023984e-13
-1.680597611e-13
-1.709855911e-13
-1.704687212e-13
-1.670323417e-13
-1.613165332e-13
-1.53884505e-13
-1.452585841e-13
-1.363587099e-13
-1.272750883e-13
-1.182258022e-13
-1.089219934e-13
-9.940489693e-14
-9.029921527e-14
-8.218069721e-14
-7.51524883e-14
-6.887903631e-14
-6.3135206e-14
-5.770551854e-14
-5.249396545e-14
-4.75580338e-14
-4.294006074e-14
-3.874029591e-14
-3.495670902e-14
-3.153213543e-14
-2.841138416e-14
-2.552586334e-14
-2.287138869e-14
-2.044754025e-14
-1.825987456e-14
-1.627425778e-14
-1.447129808e-14
-1.282514344e-14
-1.13357756e-14
-9.980418702e-15
-8.756192249e-15
-7.661494772e-15
-6.679881299e-15
-5.803493476e-15
-5.025949409e-15
-4.338449693e-15
-3.724618461e-15
-3.18121997e-15
-2.698091393e-15
-2.274336938e-15
-1.908113849e-15
-1.58962765e-15
-1.314247622e-15
-1.076589626e-15
-8.73761518e-16
-7.018510992e-16
-5.592712399e-16
-4.408872493e-16
-3.43051187e-16
-2.628465752e-16
-1.982104563e-16
-1.477346784e-16
-1.088082239e-16
-7.848066375e-17
-5.583213153e-17
-3.892705587e-17
-2.645616975e-17
-1.74018426e-17
-1.127036764e-17
-7.168110227e-18
-4.439772229e-18
-2.600820276e-18
-1.523515961e-18
-8.653810047e-19
-4.801287977e-19
-2.402608182e-19
-8.243027581e-20
-7.397238232e-19
-2.700812158e-18
-1.464588214e-17
-3.558014528e-17
)


101
(
3.908112662e-26
8.121828451e-18
9.557245898e-17
4.910668644e-16
1.493257288e-15
3.229070209e-15
5.626976278e-15
8.649940374e-15
1.193332072e-14
1.512267809e-14
1.772026045e-14
1.9248872e-14
1.916304485e-14
1.685034221e-14
1.173941064e-14
3.363112763e-15
-8.619492443e-15
-2.43665928e-14
-4.332657675e-14
-6.512246972e-14
-8.862491011e-14
-1.124956995e-13
-1.35682319e-13
-1.568932773e-13
-1.74982745e-13
-1.89341351e-13
-1.996429238e-13
-2.057673404e-13
-2.079365446e-13
-2.065764917e-13
-2.023142206e-13
-1.957549127e-13
-1.873852016e-13
-1.782413065e-13
-1.685686222e-13
-1.586992078e-13
-1.484823599e-13
-1.37876753e-13
-1.273795565e-13
-1.175298398e-13
-1.08654608e-13
-1.006188571e-13
-9.32716698e-14
-8.635985764e-14
-7.971878269e-14
-7.336378418e-14
-6.729254512e-14
-6.162961135e-14
-5.644202592e-14
-5.168978617e-14
-4.72975682e-14
-4.320841048e-14
-3.93997994e-14
-3.583577848e-14
-3.256065404e-14
-2.955767762e-14
-2.678295586e-14
-2.420068159e-14
-2.182540004e-14
-1.961940825e-14
-1.75806214e-14
-1.571651224e-14
-1.400033999e-14
-1.244298358e-14
-1.102998249e-14
-9.757922625e-15
-8.603422645e-15
-7.551795687e-15
-6.591935782e-15
-5.716122351e-15
-4.937257004e-15
-4.240193182e-15
-3.627291436e-15
-3.081923355e-15
-2.595978912e-15
-2.167888798e-15
-1.797118999e-15
-1.478007269e-15
-1.204366461e-15
-9.687976899e-16
-7.698800136e-16
-6.041297202e-16
-4.706674591e-16
-3.604325899e-16
-2.728013803e-16
-2.026837369e-16
-1.48671035e-16
-1.058419227e-16
-7.430676948e-17
-5.131011044e-17
-3.464845204e-17
-2.248361946e-17
-1.454707859e-17
-9.229111528e-18
-5.67956004e-18
-3.299075934e-18
-1.395577841e-18
-9.60546068e-18
-3.139333755e-17
-1.420059244e-16
-3.603411863e-16
)


101
(
3.908211336e-26
7.42435452e-18
9.092825868e-17
4.745079058e-16
1.450625114e-15
3.143672675e-15
5.480645669e-15
8.412185739e-15
1.158320016e-14
1.46260351e-14
1.703057746e-14
1.830605872e-14
1.789874482e-14
1.518196136e-14
9.561387673e-15
5.277299384e-16
-1.231734035e-14
-2.918915049e-14
-4.969156214e-14
-7.34689684e-14
-9.949254911e-14
-1.264516497e-13
-1.532112763e-13
-1.784630493e-13
-2.008588514e-13
-2.196136009e-13
-2.342658311e-13
-2.445078172e-13
-2.503513849e-13
-2.520597687e-13
-2.501952445e-13
-2.453966271e-13
-2.381455326e-13
-2.295146162e-13
-2.198057394e-13
-2.095541183e-13
-1.987758467e-13
-1.874095167e-13
-1.758587898e-13
-1.64544041e-13
-1.539038924e-13
-1.440285527e-13
-1.34933532e-13
-1.263763642e-13
-1.181622923e-13
-1.102680729e-13
-1.026207567e-13
-9.534896035e-14
-8.852881144e-14
-8.217567573e-14
-7.623971968e-14
-7.069928097e-14
-6.547414781e-14
-6.049949173e-14
-5.583372128e-14
-5.147117551e-14
-4.740964944e-14
-4.354861701e-14
-3.996292314e-14
-3.659211706e-14
-3.340462389e-14
-3.04375809e-14
-2.764426112e-14
-2.505403215e-14
-2.26566966e-14
-2.045167911e-14
-1.842911913e-14
-1.654478026e-14
-1.479225286e-14
-1.315759316e-14
-1.165838977e-14
-1.028494771e-14
-9.035768376e-15
-7.902929474e-15
-6.869604268e-15
-5.931110132e-15
-5.082265509e-15
-4.32752787e-15
-3.66365995e-15
-3.069048251e-15
-2.542443614e-15
-2.087880126e-15
-1.700941433e-15
-1.372429081e-15
-1.091921676e-15
-8.560401667e-16
-6.668767447e-16
-5.073951976e-16
-3.806734358e-16
-2.817253563e-16
-2.043623286e-16
-1.446675351e-16
-1.014437712e-16
-7.036750183e-17
-4.732522824e-17
-3.034598705e-17
-1.573416333e-17
-8.408043589e-17
-2.447556455e-16
-9.070188928e-16
-2.374435467e-15
)


101
(
3.908309281e-26
6.748266868e-18
8.638207324e-17
4.582522969e-16
1.408869568e-15
3.06050685e-15
5.339293917e-15
8.184703676e-15
1.125198256e-14
1.416237861e-14
1.639317449e-14
1.743967468e-14
1.673919805e-14
1.364913143e-14
7.550498294e-15
-2.108532371e-15
-1.57861225e-14
-3.376647077e-14
-5.580315543e-14
-8.160713731e-14
-1.102619816e-13
-1.405118961e-13
-1.711493496e-13
-2.008763433e-13
-2.281953575e-13
-2.5210847e-13
-2.719819217e-13
-2.873247333e-13
-2.979278173e-13
-3.038469598e-13
-3.054990747e-13
-3.034997825e-13
-2.983705943e-13
-2.912608363e-13
-2.823685579e-13
-2.724474202e-13
-2.61746995e-13
-2.502202949e-13
-2.381418164e-13
-2.258346908e-13
-2.13753849e-13
-2.021435601e-13
-1.91340775e-13
-1.811388677e-13
-1.713458071e-13
-1.619221179e-13
-1.526792798e-13
-1.437221759e-13
-1.351021233e-13
-1.269507706e-13
-1.192721945e-13
-1.120710563e-13
-1.052249346e-13
-9.86448905e-14
-9.227459173e-14
-8.623997964e-14
-8.058974426e-14
-7.513840186e-14
-6.999997803e-14
-6.51231886e-14
-6.042568612e-14
-5.595805359e-14
-5.171273161e-14
-4.767847271e-14
-4.385675823e-14
-4.025237184e-14
-3.692998591e-14
-3.379695141e-14
-3.085286013e-14
-2.804954794e-14
-2.540298972e-14
-2.291635267e-14
-2.060478156e-14
-1.846477163e-14
-1.647727056e-14
-1.461521093e-14
-1.288235047e-14
-1.129928366e-14
-9.861615364e-15
-8.544083664e-15
-7.332835101e-15
-6.251009515e-15
-5.287238976e-15
-4.446374991e-15
-3.695025071e-15
-3.027268985e-15
-2.468933084e-15
-1.983029254e-15
-1.570886064e-15
-1.234153197e-15
-9.498080328e-16
-7.201291238e-16
-5.407864884e-16
-4.028851386e-16
-2.935999284e-16
-2.043421793e-16
-1.215211352e-16
-5.298270281e-16
-1.385742021e-15
-4.196595429e-15
-8.647046273e-15
)


101
(
3.908123714e-26
6.093606162e-18
8.19336148e-17
4.422933492e-16
1.367953717e-15
2.979467218e-15
5.202725654e-15
7.967150929e-15
1.093864024e-14
1.372957426e-14
1.580593091e-14
1.664825489e-14
1.568466124e-14
1.225481276e-14
5.713478829e-15
-4.533884114e-15
-1.90042344e-14
-3.806160074e-14
-6.160813605e-14
-8.945569912e-14
-1.208192512e-13
-1.545411806e-13
-1.893799514e-13
-2.239961388e-13
-2.568652766e-13
-2.867363168e-13
-3.127417595e-13
-3.342239837e-13
-3.507731872e-13
-3.622104638e-13
-3.687267039e-13
-3.708092753e-13
-3.689997549e-13
-3.646599625e-13
-3.577877888e-13
-3.492420017e-13
-3.395103854e-13
-3.286358823e-13
-3.167823741e-13
-3.042161643e-13
-2.913691437e-13
-2.785232349e-13
-2.663224845e-13
-2.547209515e-13
-2.435536046e-13
-2.327864783e-13
-2.220904388e-13
-2.115106397e-13
-2.011118697e-13
-1.911319329e-13
-1.816001135e-13
-1.725768531e-13
-1.63980363e-13
-1.556415722e-13
-1.47401421e-13
-1.39586983e-13
-1.320613552e-13
-1.247730104e-13
-1.177416383e-13
-1.110524431e-13
-1.045430006e-13
-9.821123104e-14
-9.210558476e-14
-8.618642463e-14
-8.050458878e-14
-7.503074879e-14
-6.985060933e-14
-6.497420512e-14
-6.034473759e-14
-5.587398266e-14
-5.157115259e-14
-4.742656369e-14
-4.349378897e-14
-3.977488187e-14
-3.625933168e-14
-3.289697911e-14
-2.970643953e-14
-2.672116831e-14
-2.39029963e-14
-2.128293489e-14
-1.882485903e-14
-1.653949892e-14
-1.444445732e-14
-1.255635287e-14
-1.081593796e-14
-9.197187714e-15
-7.781335715e-15
-6.532891685e-15
-5.42106411e-15
-4.454950543e-15
-3.605034845e-15
-2.890236749e-15
-2.293443019e-15
-1.808861635e-15
-1.407702822e-15
-1.055396027e-15
-7.111501481e-16
-2.485973511e-15
-5.867332616e-15
-1.523902498e-14
-2.937530222e-14
)


101
(
3.907230072e-26
5.460433856e-18
7.758280005e-17
4.266259218e-16
1.327849832e-15
2.900472291e-15
5.070775685e-15
7.759166033e-15
1.064230056e-14
1.332609411e-14
1.526738678e-14
1.593020917e-14
1.473436451e-14
1.100012251e-14
4.054201847e-15
-6.740594068e-15
-2.195865984e-14
-4.204921118e-14
-6.706904094e-14
-9.69565386e-14
-1.310628952e-13
-1.683805935e-13
-2.076836911e-13
-2.475468471e-13
-2.864937411e-13
-3.230634622e-13
-3.561457324e-13
-3.848998132e-13
-4.087266846e-13
-4.271802248e-13
-4.401722429e-13
-4.479824494e-13
-4.510799829e-13
-4.510418206e-13
-4.477035215e-13
-4.419308621e-13
-4.343645966e-13
-4.251912855e-13
-4.146035443e-13
-4.029027119e-13
-3.903536691e-13
-3.77187861e-13
-3.642468315e-13
-3.517640261e-13
-3.396442807e-13
-3.279173844e-13
-3.161929683e-13
-3.044156997e-13
-2.925828385e-13
-2.810143531e-13
-2.697416891e-13
-2.589291958e-13
-2.485942702e-13
-2.385175572e-13
-2.285398773e-13
-2.188712245e-13
-2.094033769e-13
-2.000802731e-13
-1.909809174e-13
-1.822367944e-13
-1.73711051e-13
-1.652885871e-13
-1.570295472e-13
-1.488800464e-13
-1.409061667e-13
-1.33196294e-13
-1.256577924e-13
-1.184663832e-13
-1.116055485e-13
-1.049098679e-13
-9.841114606e-14
-9.204681973e-14
-8.581612631e-14
-7.980972676e-14
-7.404748814e-14
-6.849971245e-14
-6.312191866e-14
-5.79460076e-14
-5.298258015e-14
-4.823846541e-14
-4.369367026e-14
-3.93641782e-14
-3.529207618e-14
-3.149211312e-14
-2.794965544e-14
-2.454797152e-14
-2.139628381e-14
-1.857647064e-14
-1.599711171e-14
-1.364146114e-14
-1.149955267e-14
-9.639403797e-15
-8.00803797e-15
-6.603956154e-15
-5.409873638e-15
-4.308755752e-15
-3.201569589e-15
-9.354198926e-15
-2.00558854e-14
-4.523143579e-14
-7.947567123e-14
)


101
(
3.906618467e-26
4.848790766e-18
7.332958565e-17
4.112448406e-16
1.288529414e-15
2.823439212e-15
4.943317367e-15
7.560497881e-15
1.03618116e-14
1.294993139e-14
1.47763659e-14
1.528406541e-14
1.388741327e-14
9.887309435e-15
2.578980502e-15
-8.718099951e-15
-2.464015223e-14
-4.572045594e-14
-7.216916803e-14
-1.040714209e-13
-1.40894745e-13
-1.818362097e-13
-2.257475365e-13
-2.711575094e-13
-3.166283478e-13
-3.605629872e-13
-4.016704173e-13
-4.389025252e-13
-4.714657682e-13
-4.986078867e-13
-5.19919553e-13
-5.354332157e-13
-5.454595509e-13
-5.516399371e-13
-5.536745868e-13
-5.524198937e-13
-5.485960421e-13
-5.425567855e-13
-5.346513725e-13
-5.253300489e-13
-5.145847951e-13
-5.02484222e-13
-4.899563521e-13
-4.774879462e-13
-4.651403712e-13
-4.531201231e-13
-4.411057311e-13
-4.289455222e-13
-4.164646407e-13
-4.040231211e-13
-3.914896942e-13
-3.79229696e-13
-3.675125085e-13
-3.560359162e-13
-3.446250707e-13
-3.332020799e-13
-3.221303613e-13
-3.109111135e-13
-2.999173782e-13
-2.890929045e-13
-2.785746951e-13
-2.680064319e-13
-2.574855207e-13
-2.469938597e-13
-2.365907689e-13
-2.263277098e-13
-2.161045094e-13
-2.06159575e-13
-1.964733161e-13
-1.870792139e-13
-1.778649735e-13
-1.687829766e-13
-1.59641362e-13
-1.506177191e-13
-1.417926117e-13
-1.331995887e-13
-1.248061982e-13
-1.166088277e-13
-1.085265009e-13
-1.006635594e-13
-9.29476073e-14
-8.549104088e-14
-7.826412965e-14
-7.133037839e-14
-6.481118058e-14
-5.845181038e-14
-5.224416019e-14
-4.654115995e-14
-4.124062719e-14
-3.628409929e-14
-3.158537266e-14
-2.739889848e-14
-2.358080689e-14
-2.019377534e-14
-1.719082895e-14
-1.436303867e-14
-1.148503691e-14
-2.881211071e-14
-5.666653443e-14
-1.131936176e-13
-1.878443928e-13
)


101
(
3.906717823e-26
4.258739169e-18
6.91740726e-17
3.961459065e-16
1.249966982e-15
2.748283315e-15
4.820197322e-15
7.370910221e-15
1.009624684e-14
1.259897733e-14
1.433139571e-14
1.470810729e-14
1.314218841e-14
8.917425621e-15
1.292676832e-15
-1.045669257e-14
-2.703777195e-14
-4.906759229e-14
-7.689380418e-14
-1.107769832e-13
-1.502518951e-13
-1.94768074e-13
-2.433267894e-13
-2.945215482e-13
-3.469590843e-13
-3.989189773e-13
-4.489569265e-13
-4.958184732e-13
-5.385383221e-13
-5.760963267e-13
-6.077496434e-13
-6.331852322e-13
-6.524392612e-13
-6.671337547e-13
-6.767794275e-13
-6.822219825e-13
-6.842202368e-13
-6.832925511e-13
-6.800190969e-13
-6.749718094e-13
-6.68003823e-13
-6.589402585e-13
-6.486614006e-13
-6.377143912e-13
-6.263860281e-13
-6.151999942e-13
-6.039774638e-13
-5.925610941e-13
-5.806694207e-13
-5.685101114e-13
-5.557578097e-13
-5.429599457e-13
-5.307072084e-13
-5.185836625e-13
-5.06470842e-13
-4.941652881e-13
-4.821426457e-13
-4.698023219e-13
-4.573341287e-13
-4.448702023e-13
-4.327523227e-13
-4.204338595e-13
-4.078198774e-13
-3.952276562e-13
-3.826927994e-13
-3.698393546e-13
-3.569837485e-13
-3.440143489e-13
-3.313233342e-13
-3.188935035e-13
-3.065440265e-13
-2.943428449e-13
-2.819206351e-13
-2.693705093e-13
-2.567574655e-13
-2.441784754e-13
-2.319271223e-13
-2.197681462e-13
-2.075749824e-13
-1.955240916e-13
-1.833552187e-13
-1.713938662e-13
-1.596325872e-13
-1.480566163e-13
-1.368459686e-13
-1.259408976e-13
-1.150711934e-13
-1.045725321e-13
-9.473340446e-14
-8.544698125e-14
-7.62511172e-14
-6.79719809e-14
-6.000523758e-14
-5.291068973e-14
-4.641958984e-14
-4.023513358e-14
-3.377897969e-14
-7.426976951e-14
-1.351649349e-13
-2.452299703e-13
-4.03024948e-13
)


101
(
3.906817162e-26
3.690348616e-18
6.511640952e-17
3.813250699e-16
1.212138758e-15
2.674925251e-15
4.701210076e-15
7.190092141e-15
9.845061843e-15
1.22716563e-14
1.392938887e-14
1.420084499e-14
1.249628028e-14
8.08703416e-15
1.920157326e-16
-1.195660853e-14
-2.91386605e-14
-5.206057898e-14
-8.118834706e-14
-1.169613589e-13
-1.590045424e-13
-2.070321434e-13
-2.602654651e-13
-3.174064333e-13
-3.771825822e-13
-4.378039881e-13
-4.97636896e-13
-5.55198491e-13
-6.09388266e-13
-6.590426873e-13
-7.031765312e-13
-7.410006716e-13
-7.720182777e-13
-7.9785741e-13
-8.177717514e-13
-8.325908019e-13
-8.430550032e-13
-8.497923053e-13
-8.536478446e-13
-8.552729903e-13
-8.546089566e-13
-8.511225364e-13
-8.455901506e-13
-8.384908771e-13
-8.302719146e-13
-8.217481973e-13
-8.129334446e-13
-8.039362449e-13
-7.942999021e-13
-7.840449102e-13
-7.729454476e-13
-7.613624605e-13
-7.499531308e-13
-7.386060045e-13
-7.272487019e-13
-7.155906846e-13
-7.039020659e-13
-6.918296061e-13
-6.790612389e-13
-6.660256728e-13
-6.529981594e-13
-6.399361772e-13
-6.261930192e-13
-6.124479777e-13
-5.984641677e-13
-5.837201623e-13
-5.686845372e-13
-5.531525501e-13
-5.378408781e-13
-5.223445775e-13
-5.067851517e-13
-4.913433046e-13
-4.754883598e-13
-4.593581158e-13
-4.426922394e-13
-4.253916482e-13
-4.082622143e-13
-3.910662672e-13
-3.740240722e-13
-3.566107007e-13
-3.387184639e-13
-3.207694509e-13
-3.027178284e-13
-2.847920743e-13
-2.67000851e-13
-2.493438658e-13
-2.317004413e-13
-2.14058934e-13
-1.970635011e-13
-1.810254071e-13
-1.646439244e-13
-1.497324706e-13
-1.349472119e-13
-1.214903031e-13
-1.091059347e-13
-9.704376667e-14
-8.422934495e-14
-1.662518904e-13
-2.828249512e-13
-4.747140425e-13
-7.036146354e-13
)


101
(
3.906912142e-26
3.14367376e-18
6.115680535e-17
3.66778573e-16
1.175020218e-15
2.603283224e-15
4.586142442e-15
7.017733239e-15
9.607754351e-15
1.196652558e-14
1.356645434e-14
1.376098079e-14
1.194779901e-14
7.391382667e-15
-7.291607238e-16
-1.322395851e-14
-3.093415272e-14
-5.466062466e-14
-8.498010166e-14
-1.224625672e-13
-1.669704648e-13
-2.18437244e-13
-2.763882803e-13
-3.395760977e-13
-4.069563768e-13
-4.768004359e-13
-5.472252713e-13
-6.165097736e-13
-6.834617765e-13
-7.468507328e-13
-8.055274448e-13
-8.582643742e-13
-9.03875234e-13
-9.438417127e-13
-9.771250183e-13
-1.004536249e-12
-1.026713622e-12
-1.04426044e-12
-1.058284855e-12
-1.069626773e-12
-1.078240751e-12
-1.08341832e-12
-1.085900975e-12
-1.085849578e-12
-1.083685557e-12
-1.080526301e-12
-1.076695967e-12
-1.072691734e-12
-1.067630585e-12
-1.061736281e-12
-1.054994178e-12
-1.047320545e-12
-1.039027541e-12
-1.030822242e-12
-1.022365521e-12
-1.01325831e-12
-1.004233909e-12
-9.946778939e-13
-9.839011389e-13
-9.721918576e-13
-9.601093782e-13
-9.479931707e-13
-9.352158377e-13
-9.222026027e-13
-9.0801615e-13
-8.93403153e-13
-8.775599695e-13
-8.607205186e-13
-8.435221005e-13
-8.256567523e-13
-8.076956036e-13
-7.893718635e-13
-7.70496072e-13
-7.511254596e-13
-7.307317174e-13
-7.087708629e-13
-6.856623878e-13
-6.628144862e-13
-6.397393755e-13
-6.159852617e-13
-5.914948051e-13
-5.6603212e-13
-5.394750761e-13
-5.131468806e-13
-4.864770156e-13
-4.595580271e-13
-4.322303902e-13
-4.046366272e-13
-3.769202006e-13
-3.506843215e-13
-3.237763903e-13
-2.984174534e-13
-2.734607268e-13
-2.49819158e-13
-2.281099942e-13
-2.068115171e-13
-1.842651652e-13
-3.324072858e-13
-5.337419774e-13
-8.455691865e-13
-1.206820019e-12
)


101
(
3.907010032e-26
2.618770493e-18
5.729727297e-17
3.525043391e-16
1.138591034e-15
2.533274161e-15
4.474784453e-15
6.853526715e-15
9.38426358e-15
1.168283827e-14
1.323929417e-14
1.338584863e-14
1.149462094e-14
6.827195413e-15
-1.473323495e-15
-1.426072972e-14
-3.242105305e-14
-5.685104481e-14
-8.824504651e-14
-1.272194194e-13
-1.740671966e-13
-2.288646894e-13
-2.915003435e-13
-3.607525606e-13
-4.358393011e-13
-5.152777574e-13
-5.969879326e-13
-6.790042835e-13
-7.600565162e-13
-8.388392237e-13
-9.139803623e-13
-9.839835643e-13
-1.047169509e-12
-1.10455227e-12
-1.15473899e-12
-1.198515321e-12
-1.23631948e-12
-1.268509262e-12
-1.296292095e-12
-1.320857791e-12
-1.342275458e-12
-1.359926621e-12
-1.374372116e-12
-1.385398173e-12
-1.393223227e-12
-1.399225102e-12
-1.40404195e-12
-1.408474708e-12
-1.411549121e-12
-1.413640283e-12
-1.414744061e-12
-1.414676953e-12
-1.413246583e-12
-1.411604375e-12
-1.409484966e-12
-1.406149343e-12
-1.40307422e-12
-1.399183263e-12
-1.394000067e-12
-1.387045086e-12
-1.379235472e-12
-1.370869948e-12
-1.362284162e-12
-1.352904815e-12
-1.341558074e-12
-1.329999693e-12
-1.315928583e-12
-1.300196479e-12
-1.283108021e-12
-1.26530678e-12
-1.246677237e-12
-1.226644022e-12
-1.205934376e-12
-1.184138592e-12
-1.160678433e-12
-1.135085389e-12
-1.106997468e-12
-1.077503863e-12
-1.047156865e-12
-1.016294928e-12
-9.844322163e-13
-9.496195106e-13
-9.128331857e-13
-8.753303213e-13
-8.367977859e-13
-7.973911822e-13
-7.564271405e-13
-7.151135823e-13
-6.721736024e-13
-6.309539791e-13
-5.893443973e-13
-5.480842573e-13
-5.080435803e-13
-4.692904943e-13
-4.330473502e-13
-3.980634996e-13
-3.613197871e-13
-6.072430251e-13
-9.307449982e-13
-1.418529939e-12
-2.026396817e-12
)


101
(
3.907110832e-26
2.115689121e-18
5.353672019e-17
3.384999655e-16
1.102830182e-15
2.464813093e-15
4.366912525e-15
6.697089847e-15
9.175071419e-15
1.142167446e-14
1.29448983e-14
1.307075341e-14
1.113224348e-14
6.392911677e-15
-2.033076952e-15
-1.504563688e-14
-3.356878798e-14
-5.859587216e-14