/*--------------------------------*- C++ -*----------------------------------*\
| =========                 |                                                 |
| \\      /  F ield         | OpenFOAM: The Open Source CFD Toolbox           |
|  \\    /   O peration     | Version:  2.3.1                                 |
|   \\  /    A nd           | Web:      www.OpenFOAM.org                      |
|    \\/     M anipulation  |                                                 |
\*---------------------------------------------------------------------------*/
FoamFile
{
    version     2.0;
    format      ascii;
    class       dictionary;
    location    "constant";
    object      DPSI32;
}
// * * * * * * * * * * * * * * * * * * * * * * * * * * * * * * * * * * * * * //

DPSI32_table
101
(

101
(
4.777262181e-10
1.584597885e-08
3.243895276e-08
4.901137606e-08
6.480416064e-08
7.946595949e-08
9.283961504e-08
1.046625495e-07
1.150747483e-07
1.239749539e-07
1.313990612e-07
1.373031299e-07
1.418455895e-07
1.446043724e-07
1.460244695e-07
1.460252069e-07
1.444466197e-07
1.411585916e-07
1.374523218e-07
1.310197971e-07
1.246170704e-07
1.173467233e-07
1.07951614e-07
9.818454347e-08
8.795091407e-08
7.70156117e-08
6.546498982e-08
5.346231934e-08
4.070709656e-08
2.764849277e-08
1.415304512e-08
5.404898098e-10
-1.233223195e-08
-2.88132694e-08
-4.349543291e-08
-5.846353083e-08
-7.344980216e-08
-8.804351299e-08
-1.034876685e-07
-1.200798176e-07
-1.366689525e-07
-1.517384389e-07
-1.680042239e-07
-1.842164071e-07
-1.996626065e-07
-2.159015513e-07
-2.316428811e-07
-2.479782223e-07
-2.639324944e-07
-2.802737472e-07
-2.961703085e-07
-3.121405135e-07
-3.280543682e-07
-3.438086359e-07
-3.593268736e-07
-3.746838714e-07
-3.907640658e-07
-4.05623252e-07
-4.211098897e-07
-4.360258153e-07
-4.510839346e-07
-4.658137341e-07
-4.803042244e-07
-4.947199251e-07
-5.088982045e-07
-5.229332324e-07
-5.366635792e-07
-5.501404125e-07
-5.635601677e-07
-5.76560795e-07
-5.893694158e-07
-6.019416882e-07
-6.144698894e-07
-6.265098398e-07
-6.381180063e-07
-6.492634203e-07
-6.604297253e-07
-6.712067932e-07
-6.814961046e-07
-6.913724977e-07
-7.008391727e-07
-7.101404772e-07
-7.188938924e-07
-7.272907975e-07
-7.352249994e-07
-7.426749423e-07
-7.496349567e-07
-7.56166651e-07
-7.622383395e-07
-7.679142259e-07
-7.730472931e-07
-7.777437986e-07
-7.819999127e-07
-7.858456426e-07
-7.892964216e-07
-7.944881539e-07
-8.024305217e-07
-8.83243426e-07
-9.652681883e-07
-1.04814351e-06
-1.131846723e-06
)


101
(
4.777381926e-10
1.585841695e-08
3.248944528e-08
4.912963752e-08
6.502187023e-08
7.981392935e-08
9.334675829e-08
1.053632219e-07
1.159892502e-07
1.251299693e-07
1.328140667e-07
1.389982933e-07
1.438271801e-07
1.469082056e-07
1.486282816e-07
1.489347541e-07
1.476717717e-07
1.44702285e-07
1.411835794e-07
1.351363888e-07
1.288310359e-07
1.217059506e-07
1.12583821e-07
1.028601102e-07
9.262079201e-08
8.16745921e-08
7.006764275e-08
5.794349808e-08
4.506428047e-08
3.177500051e-08
1.801709988e-08
4.053934267e-09
-9.353306401e-09
-2.570368046e-08
-4.112518412e-08
-5.667918666e-08
-7.230064362e-08
-8.76417367e-08
-1.036472246e-07
-1.207381936e-07
-1.380840472e-07
-1.543072994e-07
-1.713006599e-07
-1.884249844e-07
-2.050095322e-07
-2.221424027e-07
-2.390125314e-07
-2.563330919e-07
-2.734706881e-07
-2.909083789e-07
-3.080851175e-07
-3.252964626e-07
-3.424926649e-07
-3.595873237e-07
-3.764982521e-07
-3.93259899e-07
-4.105619868e-07
-4.270557236e-07
-4.438867097e-07
-4.603466223e-07
-4.768568054e-07
-4.9313057e-07
-5.091832807e-07
-5.251342835e-07
-5.408861993e-07
-5.56488053e-07
-5.71824877e-07
-5.869091207e-07
-6.018883644e-07
-6.165170467e-07
-6.309171825e-07
-6.450644756e-07
-6.591040396e-07
-6.72741914e-07
-6.859676117e-07
-6.987362742e-07
-7.113773521e-07
-7.236567667e-07
-7.354496788e-07
-7.467936976e-07
-7.576875653e-07
-7.683056841e-07
-7.784051757e-07
-7.880812918e-07
-7.972605978e-07
-8.059257394e-07
-8.140164287e-07
-8.215910728e-07
-8.286337009e-07
-8.352280406e-07
-8.412059391e-07
-8.467204418e-07
-8.516811149e-07
-8.561665747e-07
-8.602344211e-07
-8.662595127e-07
-8.754626043e-07
-9.56245441e-07
-1.038054467e-06
-1.120548837e-06
-1.203779152e-06
)


101
(
4.777501682e-10
1.587165662e-08
3.254388554e-08
4.925971683e-08
6.526566247e-08
8.02086353e-08
9.392793013e-08
1.061789988e-07
1.170641091e-07
1.265033989e-07
1.345160306e-07
1.410637711e-07
1.462690066e-07
1.497997241e-07
1.519413229e-07
1.526912339e-07
1.519110543e-07
1.494594741e-07
1.462403281e-07
1.408770283e-07
1.347961571e-07
1.279617841e-07
1.194219169e-07
1.099439461e-07
9.985607968e-08
8.907990812e-08
7.760896975e-08
6.554401883e-08
5.275753689e-08
3.942252737e-08
2.558542093e-08
1.142235113e-08
-2.506492146e-09
-1.816510059e-08
-3.415105144e-08
-5.018736124e-08
-6.634219161e-08
-8.239697445e-08
-9.878269271e-08
-1.160029496e-07
-1.338004167e-07
-1.512111885e-07
-1.687734727e-07
-1.866171391e-07
-2.04311179e-07
-2.221788039e-07
-2.400803953e-07
-2.581988733e-07
-2.763925904e-07
-2.947483811e-07
-3.131010694e-07
-3.314458659e-07
-3.498105298e-07
-3.681539478e-07
-3.864037021e-07
-4.045321113e-07
-4.228548466e-07
-4.409841759e-07
-4.590665468e-07
-4.770321918e-07
-4.949212954e-07
-5.126930956e-07
-5.302905967e-07
-5.477453082e-07
-5.650513119e-07
-5.822006975e-07
-5.991516185e-07
-6.158692659e-07
-6.324046468e-07
-6.486964361e-07
-6.647312846e-07
-6.804964977e-07
-6.960462264e-07
-7.113218165e-07
-7.262541336e-07
-7.407890942e-07
-7.549946836e-07
-7.688745575e-07
-7.823121252e-07
-7.952800904e-07
-8.077620583e-07
-8.198133434e-07
-8.314044038e-07
-8.425099286e-07
-8.530992875e-07
-8.631725638e-07
-8.726211616e-07
-8.814434859e-07
-8.896330604e-07
-8.97322761e-07
-9.043351666e-07
-9.108736039e-07
-9.167713384e-07
-9.220966135e-07
-9.27014562e-07
-9.341516815e-07
-9.449454238e-07
-1.025557626e-06
-1.107072548e-06
-1.189166621e-06
-1.271952633e-06
)


101
(
4.777621436e-10
1.588488201e-08
3.259827918e-08
4.938964629e-08
6.55090923e-08
8.060266145e-08
9.450796431e-08
1.06992524e-07
1.181367673e-07
1.278735424e-07
1.362142727e-07
1.431246573e-07
1.48707786e-07
1.526832695e-07
1.5525495e-07
1.56451101e-07
1.56154483e-07
1.54223924e-07
1.513544035e-07
1.466131991e-07
1.40860885e-07
1.343223798e-07
1.263081575e-07
1.171709128e-07
1.072881298e-07
9.669893313e-08
8.539263571e-08
7.343285392e-08
6.075636827e-08
4.744345229e-08
3.356785774e-08
1.926834207e-08
4.957589025e-09
-1.039929138e-08
-2.652289882e-08
-4.294540678e-08
-5.955877659e-08
-7.621871791e-08
-9.308257255e-08
-1.105426586e-07
-1.286485812e-07
-1.468491697e-07
-1.651149106e-07
-1.836132971e-07
-2.021838742e-07
-2.208635339e-07
-2.396489267e-07
-2.586018037e-07
-2.777048411e-07
-2.969682004e-07
-3.163294805e-07
-3.357361195e-07
-3.55185909e-07
-3.746654959e-07
-3.941273627e-07
-4.135259105e-07
-4.3298437e-07
-4.524209372e-07
-4.718074344e-07
-4.911231176e-07
-5.103665389e-07
-5.295223882e-07
-5.485535747e-07
-5.674498609e-07
-5.862156013e-07
-6.048394898e-07
-6.232988274e-07
-6.41557306e-07
-6.596167129e-07
-6.774563934e-07
-6.950606792e-07
-7.123977349e-07
-7.294772257e-07
-7.462906725e-07
-7.627992214e-07
-7.789550102e-07
-7.947437706e-07
-8.101874763e-07
-8.252101586e-07
-8.397654327e-07
-8.538040608e-07
-8.673363694e-07
-8.803750959e-07
-8.928982375e-07
-9.048717045e-07
-9.163087479e-07
-9.271198965e-07
-9.37265714e-07
-9.466574535e-07
-9.554728177e-07
-9.635493681e-07
-9.711216857e-07
-9.780530035e-07
-9.843005636e-07
-9.901294289e-07
-9.985053298e-07
-1.01094672e-06
-1.091330946e-06
-1.172544288e-06
-1.254273255e-06
-1.336685798e-06
)


101
(
4.777741635e-10
1.589809434e-08
3.26526284e-08
4.951942929e-08
6.575216535e-08
8.099601411e-08
9.508686495e-08
1.078038072e-07
1.192071482e-07
1.292403783e-07
1.379086757e-07
1.451808029e-07
1.511430245e-07
1.555588931e-07
1.585672936e-07
1.602131081e-07
1.604008714e-07
1.589935367e-07
1.565154099e-07
1.523553233e-07
1.470027478e-07
1.407849623e-07
1.332552618e-07
1.245164141e-07
1.148989817e-07
1.045254762e-07
9.341030637e-08
8.159556981e-08
6.905414021e-08
5.581738276e-08
4.195260008e-08
2.757517315e-08
1.299380511e-08
-2.270723683e-09
-1.83788531e-08
-3.502111252e-08
-5.199001108e-08
-6.914653934e-08
-8.649760458e-08
-1.04283729e-07
-1.226676261e-07
-1.414062272e-07
-1.603103275e-07
-1.794334722e-07
-1.987350875e-07
-2.181814498e-07
-2.377722121e-07
-2.575276744e-07
-2.774615604e-07
-2.975762503e-07
-3.1784602e-07
-3.382215389e-07
-3.58677167e-07
-3.791997071e-07
-3.997609107e-07
-4.20318929e-07
-4.409068501e-07
-4.615196057e-07
-4.821265424e-07
-5.027014402e-07
-5.232286075e-07
-5.436914602e-07
-5.640632819e-07
-5.843217703e-07
-6.04465404e-07
-6.244835035e-07
-6.443632566e-07
-6.640739387e-07
-6.835961912e-07
-7.029083478e-07
-7.220026574e-07
-7.408439614e-07
-7.594215306e-07
-7.777304774e-07
-7.95747426e-07
-8.134317894e-07
-8.307441144e-07
-8.477056001e-07
-8.642571737e-07
-8.803615961e-07
-8.959426103e-07
-9.1096495e-07
-9.25447751e-07
-9.393789144e-07
-9.527317841e-07
-9.655213429e-07
-9.776642243e-07
-9.891527819e-07
-9.998352955e-07
-1.009830434e-06
-1.019015054e-06
-1.027668911e-06
-1.035663827e-06
-1.042945935e-06
-1.049754347e-06
-1.059461052e-06
-1.07361489e-06
-1.15377539e-06
-1.234729677e-06
-1.316164777e-06
-1.398301679e-06
)


101
(
4.777860953e-10
1.591128882e-08
3.270692323e-08
4.96490506e-08
6.59948616e-08
8.138866866e-08
9.566460132e-08
1.086128181e-07
1.202751343e-07
1.306038284e-07
1.395990751e-07
1.472320082e-07
1.535742101e-07
1.584265382e-07
1.61876693e-07
1.639758512e-07
1.646489568e-07
1.637663255e-07
1.617142039e-07
1.581098051e-07
1.532056813e-07
1.473424988e-07
1.402722419e-07
1.319653523e-07
1.226697534e-07
1.12549581e-07
1.016537691e-07
9.001946072e-08
7.764163942e-08
6.45269025e-08
5.072455621e-08
3.63271455e-08
2.156780622e-08
6.295358274e-09
-9.764280386e-09
-2.648785114e-08
-4.369395441e-08
-6.123025587e-08
-7.902091988e-08
-9.717146341e-08
-1.15845401e-07
-1.349856827e-07
-1.544138207e-07
-1.741015585e-07
-1.940338852e-07
-2.14167277e-07
-2.34489593e-07
-2.549944432e-07
-2.756963578e-07
-2.965986686e-07
-3.176965045e-07
-3.38953459e-07
-3.603353052e-07
-3.818204531e-07
-4.03387196e-07
-4.250016283e-07
-4.466577608e-07
-4.683630271e-07
-4.900978612e-07
-5.118418035e-07
-5.335722296e-07
-5.552674053e-07
-5.769019712e-07
-5.984475614e-07
-6.198947644e-07
-6.412303126e-07
-6.624492517e-07
-6.835294788e-07
-7.04445254e-07
-7.251662512e-07
-7.456829542e-07
-7.659613307e-07
-7.859832326e-07
-8.057423253e-07
-8.252201403e-07
-8.443788244e-07
-8.631638521e-07
-8.815948043e-07
-8.996221663e-07
-9.172233781e-07
-9.343228397e-07
-9.508437149e-07
-9.667808237e-07
-9.821250272e-07
-9.968581113e-07
-1.011005263e-06
-1.024483223e-06
-1.037299281e-06
-1.049325692e-06
-1.060582547e-06
-1.070937903e-06
-1.08072542e-06
-1.089824135e-06
-1.0982405e-06
-1.106110016e-06
-1.117219772e-06
-1.13316107e-06
-1.213134622e-06
-1.293896541e-06
-1.375137776e-06
-1.457117115e-06
)


101
(
4.777980694e-10
1.592446966e-08
3.27611719e-08
4.977852253e-08
6.623719748e-08
8.178064549e-08
9.624119568e-08
1.094195868e-07
1.213406784e-07
1.319638811e-07
1.412853918e-07
1.492781559e-07
1.560009638e-07
1.61286214e-07
1.651818075e-07
1.677380157e-07
1.688975858e-07
1.685406196e-07
1.669428111e-07
1.638801099e-07
1.594582372e-07
1.539858676e-07
1.473642804e-07
1.395085881e-07
1.305830191e-07
1.207584286e-07
1.101138828e-07
9.869312508e-08
8.650821635e-08
7.355560366e-08
5.986603456e-08
4.550736927e-08
3.065271972e-08
1.533841949e-08
-6.840825157e-10
-1.741159544e-08
-3.473739848e-08
-5.253122248e-08
-7.067781565e-08
-8.918238025e-08
-1.081571336e-07
-1.276321877e-07
-1.474838911e-07
-1.676571618e-07
-1.881332396e-07
-2.088686265e-07
-2.298451578e-07
-2.510362556e-07
-2.724454089e-07
-2.940717988e-07
-3.159231374e-07
-3.379788865e-07
-3.602074361e-07
-3.825798786e-07
-4.050727389e-07
-4.276568297e-07
-4.503077236e-07
-4.730290768e-07
-4.95807221e-07
-5.186314562e-07
-5.4147996e-07
-5.64329229e-07
-5.871527818e-07
-6.099164325e-07
-6.326017415e-07
-6.551871627e-07
-6.776714373e-07
-7.000428763e-07
-7.222800734e-07
-7.443481822e-07
-7.662290847e-07
-7.878866889e-07
-8.092984881e-07
-8.304582236e-07
-8.513505963e-07
-8.719413854e-07
-8.92164158e-07
-9.120302481e-07
-9.314927087e-07
-9.50543915e-07
-9.691203843e-07
-9.871355062e-07
-1.004545443e-06
-1.02132515e-06
-1.037457339e-06
-1.052976372e-06
-1.067799671e-06
-1.081957591e-06
-1.095331714e-06
-1.107935726e-06
-1.119535804e-06
-1.130525311e-06
-1.140794847e-06
-1.150411331e-06
-1.159438385e-06
-1.172009151e-06
-1.189834277e-06
-1.269684788e-06
-1.350340308e-06
-1.431496843e-06
-1.513437971e-06
)


101
(
4.778100445e-10
1.593763509e-08
3.281537041e-08
4.990783894e-08
6.647916493e-08
8.21719349e-08
9.681663546e-08
1.10224104e-07
1.22403693e-07
1.33320474e-07
1.429675012e-07
1.513190853e-07
1.58422871e-07
1.641378279e-07
1.684813765e-07
1.714981578e-07
1.731454877e-07
1.733147405e-07
1.721942112e-07
1.696670682e-07
1.657516707e-07
1.607053585e-07
1.545328296e-07
1.471403193e-07
1.386237844e-07
1.291377318e-07
1.187799533e-07
1.076058112e-07
9.564318174e-08
8.288828074e-08
6.935780163e-08
5.509552592e-08
4.022364162e-08
2.487649266e-08
8.875214109e-09
-7.821471903e-09
-2.517963156e-08
-4.311639516e-08
-6.151541537e-08
-8.032233926e-08
-9.958726469e-08
-1.19360373e-07
-1.395627281e-07
-1.601444415e-07
-1.810825345e-07
-2.02334879e-07
-2.238846709e-07
-2.456925533e-07
-2.677483414e-07
-2.900399234e-07
-3.125760206e-07
-3.353503552e-07
-3.583440498e-07
-3.815276188e-07
-4.048725353e-07
-4.283501071e-07
-4.519261461e-07
-4.755948787e-07
-4.993419467e-07
-5.231643924e-07
-5.470461132e-07
-5.709682075e-07
-5.949046455e-07
-6.188186448e-07
-6.426822069e-07
-6.664610541e-07
-6.901484507e-07
-7.137402915e-07
-7.372267222e-07
-7.605784711e-07
-7.837702923e-07
-8.067578254e-07
-8.295121295e-07
-8.52025863e-07
-8.742875314e-07
-8.962690322e-07
-9.178990854e-07
-9.39176859e-07
-9.600507709e-07
-9.805229677e-07
-1.000543341e-06
-1.020029848e-06
-1.038920543e-06
-1.05715997e-06
-1.074723029e-06
-1.091648014e-06
-1.107838234e-06
-1.123363925e-06
-1.138097042e-06
-1.152105601e-06
-1.165027772e-06
-1.177298856e-06
-1.188818439e-06
-1.19969603e-06
-1.209992031e-06
-1.22410574e-06
-1.243873883e-06
-1.323694937e-06
-1.404352068e-06
-1.485536785e-06
-1.567562946e-06
)


101
(
4.778221085e-10
1.59507877e-08
3.286952392e-08
5.003700738e-08
6.672077403e-08
8.256254965e-08
9.739093509e-08
1.110263916e-07
1.234641279e-07
1.346735783e-07
1.4464532e-07
1.533546814e-07
1.60839588e-07
1.669813242e-07
1.717743807e-07
1.75254906e-07
1.773914333e-07
1.780871676e-07
1.774623748e-07
1.754700241e-07
1.720790732e-07
1.674912394e-07
1.617765569e-07
1.548566855e-07
1.467797936e-07
1.376729204e-07
1.276396247e-07
1.167462688e-07
1.050359277e-07
9.251117481e-08
7.918140259e-08
6.506962329e-08
5.025380763e-08
3.491082179e-08
1.892896431e-08
2.274648203e-09
-1.506134473e-08
-3.304702048e-08
-5.159261181e-08
-7.062246905e-08
-9.013861149e-08
-1.101769573e-07
-1.306764811e-07
-1.516008822e-07
-1.72928276e-07
-1.946175476e-07
-2.166583958e-07
-2.390074775e-07
-2.61644722e-07
-2.845447357e-07
-3.077078029e-07
-3.311304511e-07
-3.548073084e-07
-3.787208923e-07
-4.028422959e-07
-4.271395311e-07
-4.515730982e-07
-4.761287301e-07
-5.007819019e-07
-5.255321399e-07
-5.503697517e-07
-5.752838026e-07
-6.002536199e-07
-6.252459177e-07
-6.502279948e-07
-6.751514776e-07
-6.999942501e-07
-7.247502277e-07
-7.494195613e-07
-7.7398889e-07
-7.984367729e-07
-8.227096138e-07
-8.467676632e-07
-8.705974808e-07
-8.941888355e-07
-9.175214389e-07
-9.405286693e-07
-9.632012204e-07
-9.85473447e-07
-1.007349434e-06
-1.028796401e-06
-1.049738177e-06
-1.070106441e-06
-1.089819937e-06
-1.108842958e-06
-1.127217669e-06
-1.144821463e-06
-1.161747292e-06
-1.177880027e-06
-1.193318945e-06
-1.207653129e-06
-1.221282176e-06
-1.234140241e-06
-1.246345694e-06
-1.258018002e-06
-1.273771832e-06
-1.295528784e-06
-1.375420762e-06
-1.456190346e-06
-1.53752058e-06
-1.619754735e-06
)


101
(
4.778340834e-10
1.596392129e-08
3.29236192e-08
5.016600741e-08
6.69619976e-08
8.295245665e-08
9.796405548e-08
1.118264121e-07
1.245218691e-07
1.360230868e-07
1.463186899e-07
1.553847517e-07
1.632507097e-07
1.698165258e-07
1.750598506e-07
1.790068513e-07
1.816340829e-07
1.828563921e-07
1.82741883e-07
1.812870159e-07
1.784345392e-07
1.743341051e-07
1.690917833e-07
1.62654058e-07
1.550407615e-07
1.463496732e-07
1.366793066e-07
1.261024787e-07
1.146754672e-07
1.024113485e-07
8.9319211e-08
7.54071225e-08
6.071579853e-08
4.543004749e-08
2.948610931e-08
1.288105746e-08
-4.403895327e-09
-2.237216572e-08
-4.097029901e-08
-6.013127934e-08
-7.983472321e-08
-1.000948546e-07
-1.208446637e-07
-1.420563499e-07
-1.637100272e-07
-1.857644816e-07
-2.082177833e-07
-2.310311485e-07
-2.541797443e-07
-2.776266584e-07
-3.013623028e-07
-3.253763989e-07
-3.496671515e-07
-3.742298805e-07
-3.990477221e-07
-4.24089243e-07
-4.493110897e-07
-4.746928698e-07
-5.001962364e-07
-5.258163113e-07
-5.515446094e-07
-5.773776437e-07
-6.033029939e-07
-6.292967596e-07
-6.553306672e-07
-6.813490111e-07
-7.073091082e-07
-7.331897136e-07
-7.589909411e-07
-7.847160692e-07
-8.103606335e-07
-8.358727564e-07
-8.612002583e-07
-8.863176624e-07
-9.112096241e-07
-9.358621102e-07
-9.602159602e-07
-9.842656697e-07
-1.007932386e-06
-1.031205922e-06
-1.054066084e-06
-1.076458407e-06
-1.098307153e-06
-1.11951066e-06
-1.140013537e-06
-1.15987931e-06
-1.178958659e-06
-1.197321927e-06
-1.214906322e-06
-1.231812143e-06
-1.24764472e-06
-1.262707911e-06
-1.276990446e-06
-1.290609012e-06
-1.303752605e-06
-1.321224757e-06
-1.345059176e-06
-1.425118554e-06
-1.506104422e-06
-1.587688954e-06
-1.670246847e-06
)


101
(
4.778458812e-10
1.597703254e-08
3.297764891e-08
5.029482746e-08
6.720281996e-08
8.334163701e-08
9.853597434e-08
1.126241473e-07
1.255768277e-07
1.373689107e-07
1.479874799e-07
1.574091299e-07
1.656558878e-07
1.726432392e-07
1.783369309e-07
1.827526673e-07
1.858721057e-07
1.87620946e-07
1.880281808e-07
1.871151875e-07
1.84812705e-07
1.812252245e-07
1.764732509e-07
1.705287644e-07
1.633985116e-07
1.551549222e-07
1.458849016e-07
1.356616265e-07
1.245506428e-07
1.125769031e-07
9.975522395e-08
8.608588852e-08
7.158037757e-08
5.641325376e-08
4.054415873e-08
2.400343303e-08
6.785843282e-09
-1.112356382e-08
-2.970074593e-08
-4.890433423e-08
-6.871543489e-08
-8.913699654e-08
-1.100883319e-07
-1.31536617e-07
-1.534617961e-07
-1.758199977e-07
-1.986138609e-07
-2.218141192e-07
-2.454021051e-07
-2.693312127e-07
-2.935825649e-07
-3.181351037e-07
-3.429838209e-07
-3.681281379e-07
-3.935640456e-07
-4.192715378e-07
-4.452074628e-07
-4.713513755e-07
-4.976500323e-07
-5.240889648e-07
-5.506546101e-07
-5.773461212e-07
-6.041582619e-07
-6.310779024e-07
-6.580891547e-07
-6.851412743e-07
-7.121795143e-07
-7.39156783e-07
-7.660587429e-07
-7.928942974e-07
-8.196789685e-07
-8.463783827e-07
-8.729384397e-07
-8.993202077e-07
-9.25495069e-07
-9.514475683e-07
-9.771222476e-07
-1.002526047e-06
-1.027584226e-06
-1.052263897e-06
-1.076532611e-06
-1.100369909e-06
-1.123711299e-06
-1.146431134e-06
-1.168440043e-06
-1.189821086e-06
-1.210439362e-06
-1.230300277e-06
-1.249374583e-06
-1.267808743e-06
-1.285202508e-06
-1.301789786e-06
-1.317584873e-06
-1.332713012e-06
-1.347419868e-06
-1.366699366e-06
-1.392691857e-06
-1.473014997e-06
-1.554317895e-06
-1.636259601e-06
-1.719242695e-06
)


101
(
4.778578547e-10
1.599013295e-08
3.303163653e-08
5.042350291e-08
6.744328825e-08
8.373014979e-08
9.910676205e-08
1.134196856e-07
1.266290373e-07
1.387110899e-07
1.496517001e-07
1.594277994e-07
1.680549543e-07
1.754614466e-07
1.816050482e-07
1.864912664e-07
1.901043268e-07
1.92379638e-07
1.933173895e-07
1.929515769e-07
1.912087787e-07
1.881562026e-07
1.839145557e-07
1.784766017e-07
1.718464102e-07
1.640773946e-07
1.552425633e-07
1.454100973e-07
1.346496515e-07
1.22996564e-07
1.104752073e-07
9.708591901e-08
8.281977149e-08
6.783331913e-08
5.208968148e-08
3.564228654e-08
1.850856231e-08
6.81946953e-10
-1.782471738e-08
-3.699520838e-08
-5.683074379e-08
-7.733995073e-08
-9.843471808e-08
-1.200679966e-07
-1.422136654e-07
-1.648223541e-07
-1.878960423e-07
-2.114118951e-07
-2.35363419e-07
-2.597056497e-07
-2.844127922e-07
-3.094514551e-07
-3.348073756e-07
-3.604780857e-07
-3.86466225e-07
-4.127642215e-07
-4.393380508e-07
-4.661739875e-07
-4.932094783e-07
-5.204181889e-07
-5.477749987e-07
-5.75276314e-07
-6.02919409e-07
-6.306988638e-07
-6.58613765e-07
-6.866276545e-07
-7.146909336e-07
-7.427360785e-07
-7.707213094e-07
-7.986419766e-07
-8.265249561e-07
-8.543602551e-07
-8.821103886e-07
-9.097310341e-07
-9.371769857e-07
-9.644196686e-07
-9.914034553e-07
-1.018142655e-06
-1.044578417e-06
-1.070673544e-06
-1.096365757e-06
-1.121643538e-06
-1.146484266e-06
-1.170754121e-06
-1.194317742e-06
-1.217232042e-06
-1.239433909e-06
-1.260874854e-06
-1.281488474e-06
-1.301507682e-06
-1.320522392e-06
-1.338728446e-06
-1.356125497e-06
-1.372865848e-06
-1.389230719e-06
-1.410417652e-06
-1.438635695e-06
-1.519318818e-06
-1.601037806e-06
-1.683431532e-06
-1.766930116e-06
)


101
(
4.778698292e-10
1.600321628e-08
3.308556856e-08
5.055201286e-08
6.768337432e-08
8.411796075e-08
9.967637921e-08
1.142129909e-07
1.27678395e-07
1.400495104e-07
1.513111976e-07
1.614405776e-07
1.704475672e-07
1.782709398e-07
1.848635438e-07
1.902214201e-07
1.943293667e-07
1.971311028e-07
1.986059463e-07
1.987927028e-07
1.97617964e-07
1.951192431e-07
1.914083645e-07
1.864922061e-07
1.803781341e-07
1.731072027e-07
1.64738984e-07
1.553334976e-07
1.449593834e-07
1.336587707e-07
1.21466549e-07
1.083891989e-07
9.440741556e-08
7.965973359e-08
6.409983832e-08
4.778897684e-08
3.076409583e-08
1.303798887e-08
-5.367226392e-09
-2.444914556e-08
-4.423430656e-08
-6.475103036e-08
-8.591801909e-08
-1.076796025e-07
-1.299947211e-07
-1.528041731e-07
-1.761055005e-07
-1.998757983e-07
-2.241203001e-07
-2.488039481e-07
-2.739002525e-07
-2.993684133e-07
-3.251830129e-07
-3.513318618e-07
-3.778177299e-07
-4.046420972e-07
-4.317821694e-07
-4.592357457e-07
-4.869433929e-07
-5.148692138e-07
-5.429725386e-07
-5.71243401e-07
-5.996749612e-07
-6.282631791e-07
-6.570171463e-07
-6.859204229e-07
-7.149409724e-07
-7.440098849e-07
-7.730590037e-07
-8.020543294e-07
-8.310152401e-07
-8.599477818e-07
-8.888415832e-07
-9.176662416e-07
-9.463687433e-07
-9.749016329e-07
-1.003196049e-06
-1.031265497e-06
-1.059065511e-06
-1.086576298e-06
-1.113716145e-06
-1.140445813e-06
-1.166782918e-06
-1.192626533e-06
-1.217803136e-06
-1.242294996e-06
-1.266102675e-06
-1.289198467e-06
-1.311440386e-06
-1.333083482e-06
-1.35379042e-06
-1.373705148e-06
-1.392798492e-06
-1.411257605e-06
-1.429373763e-06
-1.452566818e-06
-1.483087942e-06
-1.564218901e-06
-1.646444407e-06
-1.729380133e-06
-1.813488601e-06
)


101
(
4.778819828e-10
1.60162881e-08
3.313945614e-08
5.068037385e-08
6.792309999e-08
8.450509766e-08
1.002448601e-07
1.150041124e-07
1.287248967e-07
1.413841611e-07
1.529659312e-07
1.634473972e-07
1.728335336e-07
1.810716251e-07
1.881119515e-07
1.939421177e-07
1.98546017e-07
2.018740602e-07
2.038909945e-07
2.046352479e-07
2.040357146e-07
2.021070421e-07
1.989468847e-07
1.94569395e-07
1.8898729e-07
1.822350983e-07
1.743613866e-07
1.65417099e-07
1.554657103e-07
1.445513096e-07
1.327176082e-07
1.199809544e-07
1.063207766e-07
9.186238508e-08
7.654509462e-08
6.042463104e-08
4.354678566e-08
2.594362875e-08
7.65844292e-09
-1.129987382e-08
-3.097485559e-08
-5.142246106e-08
-7.258239061e-08
-9.440591589e-08
-1.168363166e-07
-1.397969825e-07
-1.632779941e-07
-1.872507384e-07
-2.117259221e-07
-2.36682355e-07
-2.621009065e-07
-2.879358793e-07
-3.141550138e-07
-3.407365101e-07
-3.676723877e-07
-3.949690243e-07
-4.226124684e-07
-4.506148604e-07
-4.789259539e-07
-5.075094821e-07
-5.363123366e-07
-5.653132952e-07
-5.94498832e-07
-6.238593968e-07
-6.53405321e-07
-6.831358636e-07
-7.130426028e-07
-7.430739579e-07
-7.731520451e-07
-8.032124112e-07
-8.332458489e-07
-8.632572438e-07
-8.932565206e-07
-9.232425884e-07
-9.531754925e-07
-9.829975808e-07
-1.012614153e-06
-1.042023436e-06
-1.071185809e-06
-1.100107931e-06
-1.128715761e-06
-1.156931575e-06
-1.184771275e-06
-1.212192158e-06
-1.239029079e-06
-1.265172644e-06
-1.290613052e-06
-1.315410694e-06
-1.339380134e-06
-1.362706758e-06
-1.38516919e-06
-1.406883667e-06
-1.427769983e-06
-1.448058727e-06
-1.468022796e-06
-1.493312193e-06
-1.52622975e-06
-1.607889865e-06
-1.69070574e-06
-1.774265291e-06
-1.859061233e-06
)


101
(
4.778941341e-10
1.602934205e-08
3.319328573e-08
5.080856471e-08
6.816243652e-08
8.489152539e-08
1.008121649e-07
1.157930146e-07
1.297684489e-07
1.427149269e-07
1.546157465e-07
1.654480746e-07
1.752125481e-07
1.838632687e-07
1.913497059e-07
1.976523023e-07
2.027529186e-07
2.066071686e-07
2.091697763e-07
2.1047603e-07
2.104576838e-07
2.091125367e-07
2.065219384e-07
2.027010381e-07
1.976670646e-07
1.91452278e-07
1.840977152e-07
1.756461514e-07
1.661534163e-07
1.55660688e-07
1.442165018e-07
1.318479114e-07
1.185407758e-07
1.044139515e-07
8.939319337e-08
7.352151251e-08
5.684082336e-08
3.939408864e-08
2.124722739e-08
2.433684263e-09
-1.709204908e-08
-3.740652143e-08
-5.848052541e-08
-8.02882162e-08
-1.027719685e-07
-1.258333636e-07
-1.494463578e-07
-1.735753528e-07
-1.982285153e-07
-2.23394011e-07
-2.49067533e-07
-2.752074588e-07
-3.017734969e-07
-3.287373177e-07
-3.560807652e-07
-3.838013067e-07
-4.11892919e-07
-4.403823401e-07
-4.692300394e-07
-4.984093255e-07
-5.27861002e-07
-5.575491906e-07
-5.874534547e-07
-6.17556933e-07
-6.478653414e-07
-6.78380085e-07
-7.091124039e-07
-7.400380377e-07
-7.71091272e-07
-8.021930746e-07
-8.332974119e-07
-8.643869673e-07
-8.954741402e-07
-9.265832587e-07
-9.577062709e-07
-9.887997759e-07
-1.019751591e-06
-1.050524348e-06
-1.081060568e-06
-1.111391639e-06
-1.141477237e-06
-1.171221541e-06
-1.200597407e-06
-1.229597143e-06
-1.258116778e-06
-1.285992804e-06
-1.313122863e-06
-1.339655993e-06
-1.365434733e-06
-1.390538332e-06
-1.414822235e-06
-1.438423883e-06
-1.461189802e-06
-1.483414964e-06
-1.505334406e-06
-1.532808225e-06
-1.5682136e-06
-1.650483446e-06
-1.733970632e-06
-1.818229745e-06
-1.903821069e-06
)


101
(
4.779057524e-10
1.604235981e-08
3.32470188e-08
5.093652585e-08
6.840130327e-08
8.527714378e-08
1.013781763e-07
1.165795739e-07
1.308088623e-07
1.440415826e-07
1.562603698e-07
1.674422991e-07
1.775841775e-07
1.866454876e-07
1.945761621e-07
2.01350844e-07
2.069485913e-07
2.113289053e-07
2.144397912e-07
2.163118203e-07
2.168795991e-07
2.161291004e-07
2.141251147e-07
2.108791714e-07
2.064102106e-07
2.007503444e-07
1.93936664e-07
1.860058277e-07
1.770059329e-07
1.669714541e-07
1.559504779e-07
1.439781378e-07
1.310508801e-07
1.172901438e-07
1.02612506e-07
8.704636437e-08
7.062030968e-08
5.337579838e-08
3.539520916e-08
1.67416286e-08
-2.61236298e-09
-2.274846328e-08
-4.366727988e-08
-6.537747299e-08
-8.784046997e-08
-1.109456484e-07
-1.346428898e-07
-1.588829642e-07
-1.836689364e-07
-2.089895165e-07
-2.34853845e-07
-2.612337577e-07
-2.880891176e-07
-3.153829327e-07
-3.430891682e-07
-3.711934181e-07
-3.99684336e-07
-4.28602316e-07
-4.579238544e-07
-4.876361862e-07
-5.176812324e-07
-5.480116334e-07
-5.785967773e-07
-6.094131435e-07
-6.404605467e-07
-6.717336196e-07
-7.032505731e-07
-7.350120653e-07
-7.669787453e-07
-7.990780801e-07
-8.312409681e-07
-8.634152644e-07
-8.955950608e-07
-9.278097958e-07
-9.600818953e-07
-9.92409109e-07
-1.02469048e-06
-1.056853468e-06
-1.088795842e-06
-1.120544607e-06
-1.152104405e-06
-1.183405644e-06
-1.214372922e-06
-1.244975777e-06
-1.275186937e-06
-1.304859007e-06
-1.333764261e-06
-1.362072868e-06
-1.38972678e-06
-1.41671245e-06
-1.442883315e-06
-1.468470268e-06
-1.493198977e-06
-1.517456024e-06
-1.541446231e-06
-1.571208983e-06
-1.609180188e-06
-1.692132576e-06
-1.776364654e-06
-1.861397357e-06
-1.947840824e-06
)


101
(
4.779177266e-10
1.605537083e-08
3.330071421e-08
5.106434915e-08
6.863982276e-08
8.566210576e-08
1.019430787e-07
1.173640126e-07
1.318463405e-07
1.45364333e-07
1.578999912e-07
1.694302503e-07
1.79948531e-07
1.894184531e-07
1.977913165e-07
2.050372389e-07
2.111322342e-07
2.160383239e-07
2.196993281e-07
2.221402334e-07
2.232981083e-07
2.231509104e-07
2.217486216e-07
2.190956345e-07
2.152095235e-07
2.101219092e-07
2.038686053e-07
1.964829568e-07
1.88007057e-07
1.784670692e-07
1.67905469e-07
1.563606104e-07
1.438393318e-07
1.304720669e-07
1.161754005e-07
1.009649225e-07
8.485182093e-08
6.786586444e-08
5.009315336e-08
3.161989797e-08
1.245162823e-08
-7.482569306e-09
-2.819491235e-08
-4.973150573e-08
-7.209015647e-08
-9.516997457e-08
-1.189008138e-07
-1.43207508e-07
-1.680830027e-07
-1.93512129e-07
-2.195115067e-07
-2.460683286e-07
-2.731524544e-07
-3.007228055e-07
-3.287446933e-07
-3.571926542e-07
-3.860439422e-07
-4.153416107e-07
-4.450769444e-07
-4.752572004e-07
-5.05835033e-07
-5.367596103e-07
-5.679855062e-07
-5.994825161e-07
-6.312434967e-07
-6.632555033e-07
-6.955334791e-07
-7.280902913e-07
-7.609154435e-07
-7.939579966e-07
-8.271476285e-07
-8.604062388e-07
-8.93695261e-07
-9.270264911e-07
-9.604288355e-07
-9.939442522e-07
-1.027520101e-06
-1.061083101e-06
-1.094474786e-06
-1.127674706e-06
-1.160710056e-06
-1.193573991e-06
-1.226183784e-06
-1.258442108e-06
-1.290359002e-06
-1.321865909e-06
-1.352644054e-06
-1.382788e-06
-1.412368298e-06
-1.441338636e-06
-1.469469141e-06
-1.497136999e-06
-1.523930879e-06
-1.550305833e-06
-1.576483377e-06
-1.608639619e-06
-1.649258687e-06
-1.732963947e-06
-1.818012104e-06
-1.903889174e-06
-1.991223293e-06
)


101
(
4.779300568e-10
1.606837474e-08
3.335437238e-08
5.119203238e-08
6.887799139e-08
8.604640737e-08
1.025068707e-07
1.181463412e-07
1.328808547e-07
1.466831282e-07
1.595345206e-07
1.714118074e-07
1.823054e-07
1.921820022e-07
2.009948818e-07
2.087107646e-07
2.153027256e-07
2.207341857e-07
2.249464146e-07
2.279585616e-07
2.297097055e-07
2.301724889e-07
2.293846073e-07
2.273415222e-07
2.240565819e-07
2.195592007e-07
2.138844531e-07
2.070651916e-07
1.991404982e-07
1.901292502e-07
1.800645753e-07
1.689816438e-07
1.568944968e-07
1.439447753e-07
1.300582596e-07
1.152449347e-07
9.949940918e-08
8.283305544e-08
6.53218123e-08