/*--------------------------------*- C++ -*----------------------------------*\
| =========                 |                                                 |
| \\      /  F ield         | OpenFOAM: The Open Source CFD Toolbox           |
|  \\    /   O peration     | Version:  2.3.1                                 |
|   \\  /    A nd           | Web:      www.OpenFOAM.org                      |
|    \\/     M anipulation  |                                                 |
\*---------------------------------------------------------------------------*/
FoamFile
{
    version     2.0;
    format      ascii;
    class       dictionary;
    location    "constant";
    object      DPSI43;
}
// * * * * * * * * * * * * * * * * * * * * * * * * * * * * * * * * * * * * * //

DPSI43_table
101
(

101
(
3.980714034e-20
3.885195407e-15
2.857154408e-14
1.072054972e-13
2.80564337e-13
5.948424243e-13
1.108407225e-12
1.953025037e-12
3.238703396e-12
5.182430962e-12
8.063456288e-12
1.232326349e-11
1.843126391e-11
2.761065896e-11
4.066623066e-11
5.918946716e-11
8.552660511e-11
1.232980532e-10
1.706794502e-10
2.411735812e-10
3.251814619e-10
4.284658159e-10
5.639938575e-10
7.179102198e-10
8.87566643e-10
1.070528694e-09
1.259949533e-09
1.447392037e-09
1.62957749e-09
1.79625097e-09
1.94476699e-09
2.070949966e-09
2.173927076e-09
2.26428307e-09
2.324434177e-09
2.365719772e-09
2.400218277e-09
2.407531797e-09
2.328342855e-09
2.263201262e-09
2.192826845e-09
2.124291327e-09
2.034159783e-09
1.931716209e-09
1.826192658e-09
1.701593433e-09
1.573570195e-09
1.429187125e-09
1.281268363e-09
1.119568859e-09
9.566810957e-10
7.857337208e-10
6.088391523e-10
4.287906829e-10
2.471746744e-10
6.298350808e-11
-1.387894734e-10
-3.240273698e-10
-5.241054355e-10
-7.178837105e-10
-9.177734895e-10
-1.112607753e-09
-1.305800377e-09
-1.498792124e-09
-1.688020747e-09
-1.875445841e-09
-2.05841471e-09
-2.237047171e-09
-2.412614089e-09
-2.579427172e-09
-2.740901575e-09
-2.894162469e-09
-3.040269094e-09
-3.165610425e-09
-3.208537933e-09
-3.362459741e-09
-3.601841127e-09
-3.770658637e-09
-3.895127356e-09
-3.999582714e-09
-4.090919652e-09
-4.170023868e-09
-4.221010571e-09
-4.20493824e-09
-4.373513906e-09
-4.512655315e-09
-4.577010758e-09
-4.615905864e-09
-4.626781305e-09
-4.535525797e-09
-4.696773339e-09
-4.746860819e-09
-4.684030532e-09
-4.731430343e-09
-4.685845757e-09
-4.69816848e-09
-4.518617121e-09
-5.303689002e-09
-6.137962838e-09
-7.029346112e-09
-7.962541094e-09
)


101
(
3.980813814e-20
3.81303666e-15
2.820404011e-14
1.06063319e-13
2.778557198e-13
5.893890145e-13
1.098392241e-12
1.934513139e-12
3.20752321e-12
5.129967884e-12
7.97701075e-12
1.218064734e-11
1.820550071e-11
2.722987717e-11
4.007957502e-11
5.829524814e-11
8.41720992e-11
1.212493179e-10
1.681986364e-10
2.372239705e-10
3.209461093e-10
4.238469653e-10
5.58087425e-10
7.129616233e-10
8.849355133e-10
1.071444623e-09
1.266196968e-09
1.460983253e-09
1.651711288e-09
1.828867605e-09
1.98860109e-09
2.126602422e-09
2.241292753e-09
2.34150612e-09
2.413749691e-09
2.465320316e-09
2.50745477e-09
2.52495759e-09
2.465921402e-09
2.402316563e-09
2.332068641e-09
2.261509139e-09
2.173412686e-09
2.071374613e-09
1.962988788e-09
1.837366368e-09
1.704575109e-09
1.556576605e-09
1.401764739e-09
1.233886518e-09
1.061422794e-09
8.80808409e-10
6.929855957e-10
5.00106474e-10
3.041270772e-10
1.049800346e-10
-1.086755836e-10
-3.136413029e-10
-5.287143291e-10
-7.414464586e-10
-9.589507401e-10
-1.173964048e-09
-1.387602115e-09
-1.601230698e-09
-1.812481554e-09
-2.021709582e-09
-2.227055803e-09
-2.428338649e-09
-2.626597818e-09
-2.817160018e-09
-3.002066054e-09
-3.179171037e-09
-3.349399726e-09
-3.501600162e-09
-3.586570824e-09
-3.735896571e-09
-3.962462329e-09
-4.160507581e-09
-4.321379034e-09
-4.453496132e-09
-4.566838771e-09
-4.667739103e-09
-4.744489482e-09
-4.760396092e-09
-4.891409209e-09
-5.042002509e-09
-5.144557135e-09
-5.20555955e-09
-5.240690585e-09
-5.19856603e-09
-5.294038273e-09
-5.378329176e-09
-5.364552855e-09
-5.38858981e-09
-5.397558005e-09
-5.370146774e-09
-5.182016866e-09
-6.035886542e-09
-6.94056477e-09
-7.919686746e-09
-8.942743103e-09
)


101
(
3.980913602e-20
3.666882567e-15
2.743239028e-14
1.035582225e-13
2.716359261e-13
5.762808226e-13
1.073290098e-12
1.886772038e-12
3.124202878e-12
4.986416379e-12
7.735818663e-12
1.177836947e-11
1.755886645e-11
2.614820671e-11
3.838455048e-11
5.567740411e-11
8.015986031e-11
1.151162504e-10
1.601011998e-10
2.247219236e-10
3.054878998e-10
4.048005806e-10
5.327607151e-10
6.842439608e-10
8.54842567e-10
1.041675145e-09
1.239512598e-09
1.440916412e-09
1.640600578e-09
1.830511025e-09
2.00508769e-09
2.159746542e-09
2.291836755e-09
2.406289952e-09
2.497080312e-09
2.565353881e-09
2.619822374e-09
2.654098172e-09
2.632515171e-09
2.57991555e-09
2.513682191e-09
2.442072007e-09
2.359275271e-09
2.262109152e-09
2.153955703e-09
2.031497246e-09
1.89697661e-09
1.748978941e-09
1.589849257e-09
1.418776373e-09
1.238454747e-09
1.049548355e-09
8.520105846e-10
6.468602012e-10
4.359643214e-10
2.204844477e-10
-4.134922488e-12
-2.313678615e-10
-4.629247458e-10
-6.972657714e-10
-9.347346942e-10
-1.173461965e-09
-1.411979881e-09
-1.650607907e-09
-1.888642241e-09
-2.124895974e-09
-2.358634638e-09
-2.588944952e-09
-2.816383329e-09
-3.038592875e-09
-3.255174772e-09
-3.465406683e-09
-3.669520209e-09
-3.862345218e-09
-4.01802242e-09
-4.168455643e-09
-4.360128839e-09
-4.577754493e-09
-4.787265134e-09
-4.967437779e-09
-5.118683496e-09
-5.253222415e-09
-5.372682352e-09
-5.453041211e-09
-5.537403042e-09
-5.671420192e-09
-5.821237681e-09
-5.928762371e-09
-6.00077694e-09
-6.037909527e-09
-6.066764006e-09
-6.153939354e-09
-6.228895933e-09
-6.246052142e-09
-6.303709892e-09
-6.250769474e-09
-6.061263674e-09
-7.001991126e-09
-7.994832078e-09
-9.073657748e-09
-1.01989052e-08
)


101
(
3.981013389e-20
3.522868077e-15
2.667059869e-14
1.010830732e-13
2.654902891e-13
5.633362286e-13
1.048525209e-12
1.839771951e-12
3.042131534e-12
4.845365872e-12
7.499363284e-12
1.138536628e-11
1.6928003e-11
2.510045002e-11
3.673852563e-11
5.313759877e-11
7.627046281e-11
1.091744814e-10
1.520778653e-10
2.126218185e-10
2.899358141e-10
3.85478732e-10
5.074141788e-10
6.543478972e-10
8.224045323e-10
1.008482703e-09
1.208066697e-09
1.414549729e-09
1.62209611e-09
1.823423939e-09
2.012183405e-09
2.183212884e-09
2.332964688e-09
2.463441533e-09
2.572182905e-09
2.658571573e-09
2.727807436e-09
2.778522843e-09
2.787525532e-09
2.757350151e-09
2.702825257e-09
2.635794061e-09
2.558385886e-09
2.468030637e-09
2.364794395e-09
2.247540095e-09
2.116260719e-09
1.970926067e-09
1.812407253e-09
1.641139656e-09
1.458296911e-09
1.265117709e-09
1.062089462e-09
8.497996906e-10
6.294370841e-10
4.023235981e-10
1.671549357e-10
-7.443638435e-11
-3.212640906e-10
-5.726399354e-10
-8.280222069e-10
-1.08651875e-09
-1.346837379e-09
-1.60811631e-09
-1.869759219e-09
-2.130870468e-09
-2.390902448e-09
-2.648799622e-09
-2.904127911e-09
-3.155872585e-09
-3.402658114e-09
-3.644351605e-09
-3.880536015e-09
-4.110156466e-09
-4.319585899e-09
-4.508368606e-09
-4.700744737e-09
-4.916037482e-09
-5.148906229e-09
-5.373743518e-09
-5.569184847e-09
-5.738074467e-09
-5.892725024e-09
-6.026882722e-09
-6.137342542e-09
-6.251864189e-09
-6.401793774e-09
-6.554013955e-09
-6.661704967e-09
-6.738620061e-09
-6.798986692e-09
-6.857301515e-09
-6.956868598e-09
-7.016719796e-09
-7.065905496e-09
-7.052143949e-09
-6.898311625e-09
-7.881186041e-09
-8.910993908e-09
-1.000863698e-08
-1.114583483e-08
)


101
(
3.981113546e-20
3.381001237e-15
2.591867551e-14
9.863784551e-14
2.594187142e-13
5.505559546e-13
1.024102761e-12
1.793530831e-12
2.961369421e-12
4.706926794e-12
7.267886462e-12
1.100208986e-11
1.631394346e-11
2.408786161e-11
3.514592483e-11
5.068319562e-11
7.251725841e-11
1.034473626e-10
1.442030337e-10
2.009418682e-10
2.74505811e-10
3.660754727e-10
4.821795864e-10
6.237874494e-10
7.881938109e-10
9.724062549e-10
1.172437995e-09
1.382476485e-09
1.596586452e-09
1.807957447e-09
2.009943492e-09
2.196812252e-09
2.364235365e-09
2.511935763e-09
2.63878843e-09
2.744050573e-09
2.830189519e-09
2.898145133e-09
2.933590503e-09
2.93008994e-09
2.894838871e-09
2.839090783e-09
2.769929739e-09
2.688111752e-09
2.593062494e-09
2.483923873e-09
2.35980741e-09
2.220742367e-09
2.067052065e-09
1.899449155e-09
1.718601384e-09
1.525636771e-09
1.321342799e-09
1.106344096e-09
8.814756835e-10
6.478279789e-10
4.053602673e-10
1.544961239e-10
-1.034460873e-10
-3.678243019e-10
-6.377312149e-10
-9.123490363e-10
-1.190710518e-09
-1.47169047e-09
-1.754462998e-09
-2.038306126e-09
-2.32255246e-09
-2.60643987e-09
-2.888756027e-09
-3.168759132e-09
-3.445107226e-09
-3.717193618e-09
-3.984402788e-09
-4.247116045e-09
-4.499646679e-09
-4.734993122e-09
-4.957437526e-09
-5.183336562e-09
-5.426536019e-09
-5.681603515e-09
-5.922649757e-09
-6.133763641e-09
-6.322106206e-09
-6.495886888e-09
-6.650715902e-09
-6.787718882e-09
-6.930276777e-09
-7.099865608e-09
-7.251440441e-09
-7.363155697e-09
-7.454822549e-09
-7.534266758e-09
-7.624002394e-09
-7.715853298e-09
-7.782423669e-09
-7.802600439e-09
-7.70891753e-09
-8.696963232e-09
-9.731122046e-09
-1.086329139e-08
-1.20341105e-08
)


101
(
3.981212969e-20
3.241292562e-15
2.51766188e-14
9.622248136e-14
2.534210568e-13
5.379403043e-13
1.000026152e-12
1.74806141e-12
2.881962905e-12
4.571178458e-12
7.041550192e-12
1.062882335e-11
1.571732891e-11
2.311100579e-11
3.360948107e-11
4.831882666e-11
6.890887219e-11
9.79504794e-11
1.365332413e-10
1.896973925e-10
2.593575006e-10
3.46768567e-10
4.57177814e-10
5.929540623e-10
7.52733447e-10
9.339702783e-10
1.133171084e-09
1.345254154e-09
1.564477386e-09
1.784412943e-09
1.998399256e-09
2.200300546e-09
2.385120465e-09
2.550744214e-09
2.696152134e-09
2.820573089e-09
2.925400357e-09
3.011818703e-09
3.071511101e-09
3.095856452e-09
3.085307189e-09
3.047532109e-09
2.99129206e-09
2.920732308e-09
2.836638523e-09
2.738562203e-09
2.625179826e-09
2.496202645e-09
2.351542792e-09
2.191821904e-09
2.017541223e-09
1.8295456e-09
1.628678453e-09
1.415690166e-09
1.191368606e-09
9.56432941e-10
7.1145098e-10
4.564380765e-10
1.92534714e-10
-7.983570747e-11
-3.596178169e-10
-6.458710579e-10
-9.378151511e-10
-1.234319146e-09
-1.534326894e-09
-1.837271149e-09
-2.142490776e-09
-2.449175623e-09
-2.756278715e-09
-3.062690531e-09
-3.36745474e-09
-3.669338723e-09
-3.967433398e-09
-4.261780003e-09
-4.550779348e-09
-4.829521427e-09
-5.094462215e-09
-5.349888174e-09
-5.609743883e-09
-5.885270774e-09
-6.165477513e-09
-6.425510055e-09
-6.655897082e-09
-6.866783047e-09
-7.063065818e-09
-7.241910241e-09
-7.406890665e-09
-7.582619407e-09
-7.767839108e-09
-7.918955595e-09
-8.040404743e-09
-8.150347117e-09
-8.254808288e-09
-8.369363099e-09
-8.462112193e-09
-8.504414872e-09
-8.453775644e-09
-9.463169646e-09
-1.051555817e-08
-1.166500889e-08
-1.284772962e-08
)


101
(
3.981312745e-20
3.103745531e-15
2.444444296e-14
9.383697609e-14
2.474973312e-13
5.254900479e-13
9.762999901e-13
1.703377044e-12
2.803950181e-12
4.438174421e-12
6.820449562e-12
1.026568595e-11
1.513844945e-11
2.216977075e-11
3.21303755e-11
4.604655873e-11
6.544929856e-11
9.26917294e-11
1.291095369e-10
1.788988718e-10
2.446043065e-10
3.277133644e-10
4.325209215e-10
5.621502473e-10
7.164894466e-10
8.936861675e-10
1.090794876e-09
1.303426673e-09
1.526214389e-09
1.753118915e-09
1.97763059e-09
2.193445781e-09
2.395045239e-09
2.57883187e-09
2.743275648e-09
2.887399298e-09
3.011902457e-09
3.117953962e-09
3.200997918e-09
3.253093656e-09
3.270512052e-09
3.25641057e-09
3.218545456e-09
3.163066422e-09
3.092905866e-09
3.008805206e-09
2.909503712e-09
2.794347389e-09
2.662857205e-09
2.515403277e-09
2.352378546e-09
2.174320021e-09
1.982039944e-09
1.776284082e-09
1.557848483e-09
1.327334152e-09
1.085524491e-09
8.322186092e-10
5.683871007e-10
2.941782954e-10
1.054035095e-11
-2.815235036e-10
-5.81286462e-10
-8.876212069e-10
-1.199427298e-09
-1.515940039e-09
-1.836875504e-09
-2.161371844e-09
-2.488742273e-09
-2.817600119e-09
-3.146930467e-09
-3.475757712e-09
-3.802801297e-09
-4.127540203e-09
-4.449382236e-09
-4.766127055e-09
-5.073425719e-09
-5.369353901e-09
-5.659607952e-09
-5.957518956e-09
-6.268740515e-09
-6.576397402e-09
-6.858665216e-09
-7.114528699e-09
-7.353595968e-09
-7.577959818e-09
-7.78521419e-09
-7.986998932e-09
-8.199093362e-09
-8.395417474e-09
-8.555745346e-09
-8.697931177e-09
-8.830992997e-09
-8.972002159e-09
-9.092786512e-09
-9.166640159e-09
-9.167635297e-09
-1.020175966e-08
-1.12648271e-08
-1.234268469e-08
-1.343425343e-08
)


101
(
3.981412529e-20
2.968369471e-15
2.372215993e-14
9.148129177e-14
2.416474356e-13
5.132057043e-13
9.529287694e-13
1.659491636e-12
2.727364168e-12
4.307955379e-12
6.604646934e-12
9.91273144e-12
1.45774553e-11
2.12638145e-11
3.070907369e-11
4.386727012e-11
6.214016334e-11
8.767483068e-11
1.219619198e-10
1.685560848e-10
2.303291894e-10
3.090437527e-10
4.083195147e-10
5.316208704e-10
6.798769603e-10
8.520568312e-10
1.04584922e-09
1.25755519e-09
1.482301779e-09
1.714480776e-09
1.947857531e-09
2.176147131e-09
2.393522579e-09
2.595230581e-09
2.778963247e-09
2.943235343e-09
3.088155758e-09
3.214748746e-09
3.320836522e-09
3.400177952e-09
3.447191802e-09
3.461123253e-09
3.44700477e-09
3.411179017e-09
3.358428851e-09
3.29129156e-09
3.209271751e-09
3.111558593e-09
2.997324495e-09
2.866548973e-09
2.719368253e-09
2.556350297e-09
2.378122097e-09
2.18508986e-09
1.978258778e-09
1.758347834e-09
1.525938963e-09
1.280830447e-09
1.023988326e-09
7.55247562e-10
4.752649654e-10
1.848672234e-10
-1.15465988e-10
-4.242857019e-10
-7.405994628e-10
-1.06322064e-09
-1.392019623e-09
-1.72673118e-09
-2.066918733e-09
-2.411843466e-09
-2.75948082e-09
-3.109273136e-09
-3.459309214e-09
-3.809445972e-09
-4.159458363e-09
-4.508109647e-09
-4.852248824e-09
-5.188667432e-09
-5.516965188e-09
-5.845078655e-09
-6.184269324e-09
-6.532931002e-09
-6.869444427e-09
-7.179897617e-09
-7.468569063e-09
-7.743436223e-09
-8.002087819e-09
-8.249617717e-09
-8.49713979e-09
-8.743515188e-09
-8.955215213e-09
-9.142956108e-09
-9.315652132e-09
-9.492768875e-09
-9.651710655e-09
-9.773478968e-09
-9.828267692e-09
-1.082657123e-08
-1.182504159e-08
-1.270441496e-08
-1.354493771e-08
)


101
(
3.981513053e-20
2.835178049e-15
2.300978434e-14
8.915543143e-14
2.358712496e-13
5.010870779e-13
9.299138196e-13
1.616411693e-12
2.652227642e-12
4.180542441e-12
6.394158936e-12
9.569925981e-12
1.4034306e-11
2.039249286e-11
2.934523546e-11
4.178058022e-11
5.898091023e-11
8.289978053e-11
1.151107203e-10
1.586754759e-10
2.165911254e-10
2.908726242e-10
3.846792079e-10
5.015675888e-10
6.432629429e-10
8.095735475e-10
9.988958133e-10
1.208240296e-09
1.433312274e-09
1.668991438e-09
1.909408264e-09
2.148454022e-09
2.380212275e-09
2.599087601e-09
2.8019583e-09
2.986602375e-09
3.152478781e-09
3.300316973e-09
3.429392283e-09
3.535355328e-09
3.612418809e-09
3.657152491e-09
3.671382997e-09
3.660067777e-09
3.628770007e-09
3.581808218e-09
3.520131045e-09
3.443357609e-09
3.350264034e-09
3.24041005e-09
3.113717802e-09
2.970932869e-09
2.812328107e-09
2.638029728e-09
2.448963733e-09
2.245815267e-09
2.029528995e-09
1.799395114e-09
1.556948514e-09
1.301821432e-09
1.034031302e-09
7.543619324e-10
4.627481339e-10
1.606057242e-10
-1.510604478e-10
-4.708719216e-10
-7.980104213e-10
-1.133166025e-09
-1.475936862e-09
-1.826265127e-09
-2.182268641e-09
-2.543014841e-09
-2.907135022e-09
-3.27371176e-09
-3.642856926e-09
-4.013978505e-09
-4.38576068e-09
-4.754695465e-09
-5.117687006e-09
-5.478545725e-09
-5.846137662e-09
-6.226960768e-09
-6.610890907e-09
-6.977260762e-09
-7.321777764e-09
-7.651983428e-09
-7.966810247e-09
-8.271813175e-09
-8.57042684e-09
-8.872104343e-09
-9.148693238e-09
-9.397860736e-09
-9.628200371e-09
-9.856160907e-09
-1.007326299e-08
-1.025410001e-08
-1.038069332e-08
-1.12380615e-08
-1.203675114e-08
-1.246985595e-08
-1.270763643e-08
)


101
(
3.981612836e-20
2.704175926e-15
2.230732735e-14
8.685938592e-14
2.301686417e-13
4.891335179e-13
9.07253466e-13
1.574134271e-12
2.578555664e-12
4.055948739e-12
6.188972441e-12
9.237151592e-12
1.350878437e-11
1.955489683e-11
2.803786566e-11
3.978500711e-11
5.596907117e-11
7.836321904e-11
1.085682597e-10
1.492598415e-10
2.034292804e-10
2.732904152e-10
3.616976094e-10
4.721598602e-10
6.069666204e-10
7.667001306e-10
9.504981479e-10
1.156107631e-09
1.379878982e-09
1.61723783e-09
1.862749333e-09
2.110596117e-09
2.354961033e-09
2.589738396e-09
2.81109954e-09
3.016004469e-09
3.203152854e-09
3.372765355e-09
3.524818293e-09
3.656703876e-09
3.76345351e-09
3.840294527e-09
3.886307313e-09
3.904116747e-09
3.898749854e-09
3.875628382e-09
3.837335145e-09
3.784537311e-09
3.715980703e-09
3.631046073e-09
3.529405532e-09
3.411724443e-09
3.278148297e-09
3.128774705e-09
2.96350467e-09
2.783591949e-09
2.590495478e-09
2.382937125e-09
2.16262458e-09
1.929436891e-09
1.682832815e-09
1.423297362e-09
1.151170482e-09
8.665652077e-10
5.70227522e-10
2.634025179e-10
-5.120516975e-11
-3.74844685e-10
-7.070418364e-10
-1.048902531e-09
-1.399728857e-09
-1.758169343e-09
-2.122802012e-09
-2.492268826e-09
-2.866497293e-09
-3.246627452e-09
-3.631842614e-09
-4.018750139e-09
-4.404373801e-09
-4.789402373e-09
-5.179929976e-09
-5.58247195e-09
-5.999294868e-09
-6.41118986e-09
-6.807948878e-09
-7.193129771e-09
-7.56390567e-09
-7.927653654e-09
-8.286409282e-09
-8.646716136e-09
-8.999028652e-09
-9.322379773e-09
-9.625660607e-09
-9.921303616e-09
-1.021477972e-08
-1.047801564e-08
-1.071511509e-08
-1.123482478e-08
-1.160755991e-08
-1.132185855e-08
-1.08692602e-08
)


101
(
3.981682645e-20
2.5753742e-15
2.161480586e-14
8.459314432e-14
2.245394635e-13
4.7734431e-13
8.849456426e-13
1.532654217e-12
2.506357614e-12
3.934182022e-12
5.989057935e-12
8.91425902e-12
1.300058706e-11
1.875003116e-11
2.678564884e-11
3.787845337e-11
5.310098338e-11
7.405953666e-11
1.02339866e-10
1.403091878e-10
1.908685952e-10
2.56366163e-10
3.394601e-10
4.435369751e-10
5.71255083e-10
7.23855858e-10
9.012012555e-10
1.101791543e-09
1.322677979e-09
1.559890457e-09
1.808488189e-09
2.063028769e-09
2.317934975e-09
2.566882747e-09
2.805574164e-09
3.030175939e-09
3.238540487e-09
3.430172241e-09
3.60515672e-09
3.762252294e-09
3.897839952e-09
4.007013078e-09
4.086881027e-09
4.137604317e-09
4.162604106e-09
4.167312205e-09
4.15557913e-09
4.129482481e-09
4.088557818e-09
4.032225948e-09
3.959693962e-09
3.871358366e-09
3.767594817e-09
3.648384155e-09
3.513059195e-09
3.363611657e-09
3.200262118e-09
3.022942291e-09
2.832241883e-09
2.629259731e-09
2.413183087e-09
2.183565726e-09
1.941243244e-09
1.685515573e-09
1.417133046e-09
1.136318821e-09
8.457928686e-10
5.469420982e-10
2.393990658e-10
-7.874874038e-11
-4.078215186e-10
-7.474032973e-10
-1.09514479e-09
-1.450042612e-09
-1.811620326e-09
-2.182111591e-09
-2.560622058e-09
-2.94472729e-09
-3.33456198e-09
-3.725555954e-09
-4.121804704e-09
-4.530883711e-09
-4.958478791e-09
-5.394437254e-09
-5.826226133e-09
-6.253645318e-09
-6.670954236e-09
-7.080953628e-09
-7.491938713e-09
-7.909125476e-09
-8.332441957e-09
-8.731431877e-09
-9.114505599e-09
-9.488047607e-09
-9.866916851e-09
-1.022773635e-08
-1.058948797e-08
-1.053604556e-08
-1.022059624e-08
-8.946671966e-09
-7.451439209e-09
)


101
(
3.981682234e-20
2.448790042e-15
2.093226003e-14
8.235676529e-14
2.18983636e-13
4.657187449e-13
8.629882879e-13
1.491966884e-12
2.435638195e-12
3.815235037e-12
5.794363974e-12
8.601078953e-12
1.250937008e-11
1.797684781e-11
2.558706781e-11
3.605847642e-11
5.037236202e-11
6.998160578e-11
9.642626048e-11
1.318202122e-10
1.789229588e-10
2.401525993e-10
3.180372365e-10
4.158106506e-10
5.363416832e-10
6.813984468e-10
8.515086967e-10
1.045915973e-09
1.262409785e-09
1.497679376e-09
1.747336733e-09
2.006380375e-09
2.269578222e-09
2.530597878e-09
2.784940404e-09
3.028137302e-09
3.257190039e-09
3.470740811e-09
3.668550148e-09
3.850233825e-09
4.013551804e-09
4.154347367e-09
4.268734761e-09
4.354816218e-09
4.413848376e-09
4.450232974e-09
4.468445358e-09
4.471935016e-09
4.461477789e-09
4.436910847e-09
4.397085743e-09
4.342010186e-09
4.272200925e-09
4.18777776e-09
4.088466915e-09
3.975256917e-09
3.848230788e-09
3.707639579e-09
3.554041456e-09
3.388780818e-09
3.211780084e-09
3.021877626e-09
2.819586185e-09
2.604144687e-09
2.375964102e-09
2.135872105e-09
1.883273573e-09
1.622217101e-09
1.353325352e-09
1.074486565e-09
7.852810215e-10
4.843902981e-10
1.719846541e-10
-1.491822865e-10
-4.775938233e-10
-8.143571831e-10
-1.16184182e-09
-1.519368096e-09
-1.885663369e-09
-2.257527637e-09
-2.635684605e-09
-3.026875896e-09
-3.437384829e-09
-3.867595687e-09
-4.302876311e-09
-4.741927261e-09
-5.183270416e-09
-5.616841345e-09
-6.054944635e-09
-6.510592582e-09
-6.982139531e-09
-7.439465701e-09
-7.886995173e-09
-8.333339326e-09
-8.789858417e-09
-9.24226077e-09
-9.716738474e-09
-8.830395578e-09
-7.577017237e-09
-5.212820711e-09
-2.539329291e-09
)


101
(
3.981710326e-20
2.324431734e-15
2.025971207e-14
8.015021833e-14
2.135008352e-13
4.542554718e-13
8.413771913e-13
1.452062679e-12
2.366398887e-12
3.699094714e-12
5.60481457e-12
8.29740133e-12
1.203472856e-11
1.723419625e-11
2.444031417e-11
3.432221679e-11
4.777829553e-11
6.612115425e-11
9.08240274e-11
1.237865827e-10
1.675965771e-10
2.246837759e-10
2.974830959e-10
3.890705319e-10
5.024020073e-10
6.396373141e-10
8.018870324e-10
9.890952979e-10
1.199800531e-09
1.431394943e-09
1.680099584e-09
1.941418252e-09
2.210540646e-09
2.481261291e-09
2.749108822e-09
3.009223555e-09
3.257885116e-09
3.492839705e-09
3.713187094e-09
3.918869631e-09
4.108727884e-09
4.279777912e-09
4.428101278e-09
4.550471769e-09
4.645987974e-09
4.717318755e-09
4.768758582e-09
4.804654541e-09
4.827155771e-09
4.837010894e-09
4.832846178e-09
4.814416972e-09
4.782342371e-09
4.736785446e-09
4.677865894e-09
4.605235146e-09
4.520811906e-09
4.423182082e-09
4.314108471e-09
4.193508982e-09
4.06317183e-09
3.92123751e-09
3.768269816e-09
3.603872914e-09
3.427966193e-09
3.240911144e-09
3.041194831e-09
2.832047882e-09
2.614841273e-09
2.39077907e-09
2.158143711e-09
1.915562836e-09
1.659499213e-09
1.393014627e-09
1.118951601e-09
8.383197924e-10
5.479113228e-10
2.458508502e-10
-6.820913685e-11
-3.905079196e-10
-7.215810044e-10
-1.063023718e-09
-1.425443202e-09
-1.814164974e-09
-2.213438147e-09
-2.622108722e-09
-3.049029804e-09
-3.473649671e-09
-3.903384102e-09
-4.354121553e-09
-4.835927508e-09
-5.316059908e-09
-5.79304908e-09
-6.276744335e-09
-6.782747121e-09
-7.292217794e-09
-7.828224285e-09
-5.930738188e-09
-3.611588964e-09
-3.392703097e-10
3.200819362e-09
)


101
(
3.981811592e-20
2.20231469e-15
1.959719803e-14
7.797353443e-14
2.080908882e-13
4.429535226e-13
8.201089502e-13
1.412931947e-12
2.298636247e-12
3.585746018e-12
5.420333075e-12
8.003011607e-12
1.157623322e-11
1.652093622e-11
2.334351816e-11
3.266664976e-11
4.53134548e-11
6.24691994e-11
8.55259589e-11
1.161988042e-10
1.568871834e-10
2.099821481e-10
2.778420866e-10
3.633921965e-10
4.695890261e-10
5.988548588e-10
7.527785291e-10
9.319335167e-10
1.135588887e-09
1.361870437e-09
1.60765908e-09
1.869013469e-09
2.141600493e-09
2.419456402e-09
2.698296627e-09
2.97311724e-09
3.239706647e-09
3.4950272e-09
3.737344666e-09
3.966323718e-09
4.181495315e-09
4.381107147e-09
4.561886454e-09
4.720130178e-09
4.853259109e-09
4.961910131e-09
5.049338165e-09
5.120049124e-09
5.177493706e-09
5.223522462e-09
5.257181558e-09
5.278112011e-09
5.286866561e-09
5.283361737e-09
5.268110324e-09
5.24070246e-09
5.203230985e-09
5.154434561e-09
5.095225745e-09
5.025800621e-09
4.948653393e-09
4.861969275e-09
4.765545963e-09
4.660914488e-09
4.548104298e-09
4.42430019e-09
4.290595478e-09
4.146404842e-09
3.995360753e-09
3.839831763e-09
3.677952136e-09
3.50984407e-09
3.330715455e-09
3.140625718e-09
2.941884426e-09
2.736979416e-09
2.528084208e-09
2.308561664e-09
2.074928604e-09
1.832986397e-09
1.579527574e-09
1.318047793e-09
1.039008797e-09
7.312572014e-10
4.026022889e-10
6.54984062e-11
-2.935937552e-10
-6.674696902e-10
-1.045377377e-09
-1.439249269e-09
-1.882600859e-09
-2.329903599e-09
-2.798635869e-09
-3.26400829e-09
-3.765399962e-09
-4.272064543e-09
-4.813239035e-09
-1.96624065e-09
1.289252964e-09
5.096341177e-09
9.355974908e-09
)


101
(
3.98191284e-20
2.082455935e-15
1.894474228e-14
7.582669736e-14
2.027534499e-13
4.318114673e-13
7.991800054e-13
1.374564034e-12
2.23233656e-12
3.475159049e-12
5.240851234e-12
7.717674285e-12
1.113342931e-11
1.58359658e-11
2.22948567e-11
3.108874055e-11
4.297230535e-11
5.90156867e-11
8.05217001e-11
1.090420552e-10
1.467839094e-10
1.960580832e-10
2.591475646e-10
3.388356324e-10
4.380243335e-10
5.592873103e-10
7.045755361e-10
8.749975832e-10
1.070504246e-09
1.289964036e-09
1.530965091e-09
1.790162321e-09
2.063721658e-09
2.3460249e-09
2.633097502e-09
2.919986854e-09
3.202247769e-09
3.47626552e-09
3.739469964e-09
3.990804442e-09
4.230052126e-09
4.456371782e-09
4.66747377e-09
4.860008392e-09
5.03054593e-09
5.177747477e-09
5.303145381e-09
5.410741487e-09
5.504585686e-09
5.587653454e-09
5.660536936e-09
5.722784456e-09
5.774310714e-09
5.815257097e-09
5.84637952e-09
5.867542704e-09
5.879969675e-09
5.883885677e-09
5.878718209e-09
5.865408016e-09
5.845587443e-09
5.819895523e-09
5.786626129e-09
5.748616708e-09
5.705371386e-09
5.653914722e-09
5.595774805e-09
5.528646546e-09
5.457293912e-09
5.381239083e-09
5.301928399e-09
5.220469709e-09
5.13295601e-09
5.038273556e-09
4.935067492e-09
4.824195785e-09
4.71291269e-09
4.594617471e-09
4.469461485e-09
4.331797e-09
4.183084907e-09
4.028154824e-09
3.859971581e-09
3.668229312e-09
3.448675366e-09
3.215124443e-09
2.966004549e-09
2.689913018e-09
2.402774103e-09
2.107118633e-09
1.7510623e-09
1.391654709e-09
9.873132032e-10
5.872302507e-10
1.594923944e-10
-2.891268309e-10
-7.844381913e-10
2.765612569e-09
6.603941304e-09
1.036627116e-08
1.414611355e-08
)


101
(
3.982009646e-20
1.964867427e-15
1.830236006e-14
7.370964257e-14
1.97488079e-13
4.208276053e-13
7.785860337e-13
1.336946355e-12
2.167481518e-12
3.367296333e-12
5.066298625e-12
7.44113845e-12
1.070583024e-11
1.517817684e-11
2.129244731e-11
2.958542708e-11
4.074929152e-11
5.575028192e-11
7.579855583e-11
1.022985096e-10
1.372695656e-10
1.829094423e-10
2.414190088e-10
3.154435252e-10
4.077983818e-10
5.21121654e-10
6.576116476e-10
8.188065496e-10
1.005258725e-09
1.216554013e-09
1.451015081e-09
1.705944616e-09
1.978040981e-09
2.262072438e-09
2.554469871e-09
2.850487848e-09
3.145671157e-09
3.436072884e-09
3.718417904e-09
3.990801962e-09
4.252701971e-09
4.503779804e-09
4.742739093e-09
4.967076555e-09
5.173359649e-09
5.358877979e-09
5.523301396e-09
5.669384132e-09
5.80075202e-09
5.921467686e-09
6.033997675e-09
6.138274857e-09
6.233515124e-09
6.320408862e-09
6.39916861e-09
6.469870839e-09
6.534214325e-09
6.592672614e-09
6.644562314e-09
6.690235097e-09
6.731238477e-09
6.769645919e-09
6.804651694e-09
6.837760599e-09
6.867274017e-09
6.895193127e-09
6.918579049e-09
6.937017185e-09
6.952139756e-09
6.964331778e-09
6.977555348e-09
6.990840988e-09
7.003807193e-09
7.015007738e-09
7.021139054e-09
7.019808129e-09
7.014043888e-09
7.011989647e-09
7.006519103e-09
6.990414058e-09
6.967843711e-09
6.937442759e-09
6.893330564e-09
6.837112235e-09
6.75311683e-09
6.649420319e-09
6.529985407e-09
6.386800451e-09
6.217536309e-09
6.042524626e-09
5.814845445e-09
5.570279944e-09
5.289769531e-09
4.989467239e-09
4.6827809e-09
4.341175688e-09
3.970811979e-09
7.783167828e-09
1.167043887e-08
1.478919683e-08
1.754605153e-08
)


101
(
3.982109417e-20
1.849568495e-15
1.767029528e-14
7.162252282e-14
1.922949438e-13
4.100016544e-13
7.583248978e-13
1.300069784e-12
2.104052209e-12
3.262119638e-12
4.896606883e-12
7.173192377e-12
1.02929727e-11
1.454648886e-11
2.033437911e-11
2.815369783e-11
3.863908156e-11
5.266339262e-11
7.134399611e-11
9.595095702e-11
1.283253379e-10
1.705283871e-10
2.246648326e-10
2.93244876e-10
3.789753588e-10
4.844971497e-10
6.121565533e-10
7.638116166e-10
9.405147728e-10
1.142505721e-09
1.368834966e-09
1.617494941e-09
1.885777717e-09
2.168870706e-09
2.463638163e-09
2.765670316e-09
3.070674118e-09
3.37458404e-09
3.673628233e-09
3.965137164e-09
4.247936022e-09
4.521812553e-09
4.786017613e-09
5.03906236e-09
5.27819379e-09
5.500249019e-09
5.703391358e-09
5.888479861e-09
6.058234066e-09
6.217006657e-09
6.368584396e-09
6.514259506e-09
6.653267633e-09
6.786231721e-09
6.913026707e-09
7.033484853e-09
7.150019246e-09
7.262994888e-09
7.372754062e-09
7.478726253e-09
7.582771561e-09
7.686274813e-09
7.791212408e-09
7.896593711e-09
8.001154038e-09
8.109859053e-09
8.217060643e-09
8.323510094e-09
8.428506603e-09
8.535120163e-09
8.645169386e-09
8.756266743e-09
8.872469001e-09
8.990463783e-09
9.107785021e-09
9.223141387e-09
9.333611377e-09
9.447383477e-09
9.560282521e-09
9.671448307e-09
9.779533789e-09
9.874096338e-09
9.961342844e-09
1.003884002e-08
1.009048669e-08
1.012251061e-08
1.013506711e-08
1.012899989e-08
1.008906268e-08
1.003826201e-08
9.954933468e-09
9.829467517e-09
9.685957293e-09
9.508820683e-09
9.326791094e-09
9.116998102e-09
8.899220488e-09
1.241198596e-08
1.574591814e-08
1.780359129e-08
1.952160308e-08
)


101
(
3.982212155e-20
1.736576708e-15
1.704841811e-14
6.956536639e-14
1.871738676e-13
3.993325588e-13
7.383928911e-13
1.263922751e-12
2.042017278e-12
3.159561439e-12
4.731690254e-12
6.913629843e-12
9.894400925e-12
1.393979135e-11
1.941857857e-11
2.679017014e-11
3.66360784e-11
4.97452349e-11
6.714492668e-11
8.998285807e-11
1.199307761e-10
1.588999469e-10
2.088819484e-10
2.722542818e-10
3.515989644e-10
4.495151698e-10
5.684223694e-10
7.103930722e-10
8.768658573e-10
1.068637414e-09
1.285448523e-09
1.526007379e-09
1.788250265e-09
2.06783646e-09
2.362057552e-09
2.666895214e-09
2.978353797e-09
3.292451543e-09
3.605164685e-09
3.913229987e-09
4.214775445e-09
4.509254849e-09
4.796011243e-09
5.074456962e-09
5.342856407e-09
5.598299896e-09
5.838105272e-09
6.061363572e-09
6.269680861e-09
6.466523166e-09
6.656144177e-09
6.841439465e-09
7.022771696e-09
7.200457544e-09
7.374556773e-09
7.544884569e-09
7.71275725e-09
7.878882109e-09
8.045581152e-09
8.21180525e-09
8.377439965e-09
8.545737653e-09
8.718534598e-09
8.894346281e-09
9.073868767e-09
9.259188603e-09
9.448158604e-09
9.640971551e-09
9.835500671e-09
1.003508673e-08
1.023769055e-08
1.044562584e-08
1.066112294e-08
1.088022485e-08
1.11020144e-08
1.13270448e-08