/*--------------------------------*- C++ -*----------------------------------*\
| =========                 |                                                 |
| \\      /  F ield         | OpenFOAM: The Open Source CFD Toolbox           |
|  \\    /   O peration     | Version:  2.3.1                                 |
|   \\  /    A nd           | Web:      www.OpenFOAM.org                      |
|    \\/     M anipulation  |                                                 |
\*---------------------------------------------------------------------------*/
FoamFile
{
    version     2.0;
    format      ascii;
    class       dictionary;
    location    "constant";
    object      DPSI36;
}
// * * * * * * * * * * * * * * * * * * * * * * * * * * * * * * * * * * * * * //

DPSI36_table
101
(

101
(
1.517451122e-12
5.287840313e-11
1.092631507e-10
1.639828942e-10
2.164401673e-10
2.668716729e-10
3.142697083e-10
3.577776432e-10
3.975431534e-10
4.327489977e-10
4.622981119e-10
4.867713692e-10
5.056941847e-10
5.186486834e-10
5.257509173e-10
5.256735907e-10
5.154166048e-10
4.904775913e-10
4.524129642e-10
3.816755175e-10
2.933143359e-10
1.80899742e-10
3.344069959e-11
-1.230677574e-10
-2.790920346e-10
-4.279168642e-10
-5.602890465e-10
-6.691896409e-10
-7.543659067e-10
-8.138916709e-10
-8.508145709e-10
-8.683061873e-10
-8.723466444e-10
-8.552981877e-10
-8.284643299e-10
-7.899838488e-10
-7.065491987e-10
-6.403321377e-10
-7.393695441e-10
-7.510841024e-10
-7.394897139e-10
-7.260423034e-10
-7.113756639e-10
-6.999875591e-10
-6.930880048e-10
-6.879430576e-10
-6.856595926e-10
-6.852850762e-10
-6.875614872e-10
-6.918773811e-10
-6.989303803e-10
-7.084790396e-10
-7.204693367e-10
-7.346942778e-10
-7.509447604e-10
-7.700482292e-10
-7.931379926e-10
-8.180440127e-10
-8.466817856e-10
-8.776264536e-10
-9.11820168e-10
-9.467492438e-10
-9.847004636e-10
-1.024450373e-09
-1.064778656e-09
-1.106698598e-09
-1.15017469e-09
-1.194553149e-09
-1.238249586e-09
-1.280884479e-09
-1.322371042e-09
-1.359576742e-09
-1.390394154e-09
-1.406884237e-09
-1.338810086e-09
-1.402000358e-09
-1.562856622e-09
-1.6536489e-09
-1.702699326e-09
-1.735025718e-09
-1.757782945e-09
-1.7683101e-09
-1.753624265e-09
-1.666351927e-09
-1.785510451e-09
-1.879620067e-09
-1.89536256e-09
-1.884630885e-09
-1.84479206e-09
-1.693966939e-09
-1.813336177e-09
-1.819855986e-09
-1.706660783e-09
-1.706111253e-09
-1.615642535e-09
-1.648828624e-09
-1.574319888e-09
-1.942512096e-09
-2.341752091e-09
-2.791417955e-09
-3.267753501e-09
)


101
(
1.517489158e-12
5.291830763e-11
1.094270391e-10
1.643805025e-10
2.171685074e-10
2.68033386e-10
3.15993665e-10
3.602034281e-10
4.007680648e-10
4.368902796e-10
4.674611079e-10
4.929690059e-10
5.129632834e-10
5.270180489e-10
5.351927702e-10
5.362527036e-10
5.273207833e-10
5.039892413e-10
4.672056239e-10
3.992481999e-10
3.117404817e-10
2.000294555e-10
5.373268393e-11
-1.054841809e-10
-2.665740438e-10
-4.221104117e-10
-5.62919093e-10
-6.815144041e-10
-7.764652392e-10
-8.458126968e-10
-8.918169925e-10
-9.174907152e-10
-9.282719298e-10
-9.187838573e-10
-8.969246863e-10
-8.62801257e-10
-7.90293794e-10
-7.244107589e-10
-7.939988141e-10
-8.196067079e-10
-8.19478028e-10
-8.114185465e-10
-8.001371386e-10
-7.906093168e-10
-7.84991941e-10
-7.818809548e-10
-7.818106965e-10
-7.840043725e-10
-7.888870769e-10
-7.960598529e-10
-8.060156447e-10
-8.186943135e-10
-8.341921133e-10
-8.525939668e-10
-8.734159894e-10
-8.969959848e-10
-9.242934445e-10
-9.540641286e-10
-9.875595943e-10
-1.023865311e-09
-1.063683575e-09
-1.105080565e-09
-1.149397985e-09
-1.196332043e-09
-1.244936748e-09
-1.295053139e-09
-1.346739056e-09
-1.399733915e-09
-1.453077861e-09
-1.50552356e-09
-1.557378024e-09
-1.606031532e-09
-1.649962406e-09
-1.681290728e-09
-1.644857452e-09
-1.687659382e-09
-1.820644718e-09
-1.929939899e-09
-2.006094726e-09
-2.05682669e-09
-2.092372348e-09
-2.116929258e-09
-2.120273643e-09
-2.059154872e-09
-2.127836728e-09
-2.223956419e-09
-2.272666072e-09
-2.278722937e-09
-2.25823327e-09
-2.154600141e-09
-2.198154732e-09
-2.232154452e-09
-2.165125967e-09
-2.135392868e-09
-2.093304841e-09
-2.079769083e-09
-1.991033126e-09
-2.43510881e-09
-2.914943529e-09
-3.46625097e-09
-4.048944902e-09
)


101
(
1.517527197e-12
5.295927581e-11
1.095978894e-10
1.648185313e-10
2.179819562e-10
2.693371699e-10
3.179585288e-10
3.630241373e-10
4.045674547e-10
4.41839336e-10
4.737322109e-10
5.005662249e-10
5.219541937e-10
5.374699202e-10
5.471020414e-10
5.498208842e-10
5.430641718e-10
5.227407059e-10
4.88775227e-10
4.270339738e-10
3.431907089e-10
2.353256516e-10
9.476125721e-11
-6.477472481e-11
-2.307594614e-10
-3.945366396e-10
-5.4716535e-10
-6.806247319e-10
-7.91448161e-10
-8.774564647e-10
-9.395019026e-10
-9.801277989e-10
-1.003726382e-09
-1.008676978e-09
-9.979113297e-10
-9.726437463e-10
-9.215350494e-10
-8.612579814e-10
-8.792109088e-10
-9.155148243e-10
-9.347163805e-10
-9.394533481e-10
-9.363513448e-10
-9.311016844e-10
-9.278249232e-10
-9.277330506e-10
-9.309651244e-10
-9.37175137e-10
-9.460705893e-10
-9.576106597e-10
-9.718442255e-10
-9.890165218e-10
-1.009311446e-09
-1.03308748e-09
-1.059985559e-09
-1.089882334e-09
-1.122952909e-09
-1.159218736e-09
-1.199103513e-09
-1.242377854e-09
-1.289394464e-09
-1.339356669e-09
-1.392298163e-09
-1.448551967e-09
-1.507715801e-09
-1.568693272e-09
-1.631639897e-09
-1.696275731e-09
-1.762811522e-09
-1.829601964e-09
-1.89664255e-09
-1.96295977e-09
-2.02769919e-09
-2.085690654e-09
-2.108835717e-09
-2.133055958e-09
-2.209420523e-09
-2.321839944e-09
-2.433782391e-09
-2.521267533e-09
-2.583616002e-09
-2.63264253e-09
-2.67001743e-09
-2.668731002e-09
-2.675378197e-09
-2.740337179e-09
-2.828392884e-09
-2.87591434e-09
-2.887609924e-09
-2.86273114e-09
-2.82979063e-09
-2.857956321e-09
-2.876967036e-09
-2.835046833e-09
-2.832859942e-09
-2.779444967e-09
-2.669969946e-09
-3.222234914e-09
-3.814718684e-09
-4.490044411e-09
-5.202394899e-09
)


101
(
1.517565236e-12
5.300017976e-11
1.097683159e-10
1.652540342e-10
2.18788016e-10
2.706234232e-10
3.19887301e-10
3.657818817e-10
4.082744478e-10
4.466578068e-10
4.798325489e-10
5.079675114e-10
5.307219383e-10
5.476796399e-10
5.587757899e-10
5.631545094e-10
5.585610767e-10
5.412405331e-10
5.103561511e-10
4.545265555e-10
3.753525869e-10
2.719738328e-10
1.374353992e-10
-2.013742555e-11
-1.888623052e-10
-3.591471295e-10
-5.219361298e-10
-6.688479137e-10
-7.948493964e-10
-8.970334197e-10
-9.750868987e-10
-1.030870274e-09
-1.067941385e-09
-1.08685249e-09
-1.08886586e-09
-1.075077405e-09
-1.038223917e-09
-9.872016622e-10
-9.775449487e-10
-1.002844603e-09
-1.031400129e-09
-1.049588579e-09
-1.057151843e-09
-1.058415159e-09
-1.058501883e-09
-1.060782259e-09
-1.066383068e-09
-1.075540986e-09
-1.08764812e-09
-1.102700604e-09
-1.120466301e-09
-1.141216627e-09
-1.16507855e-09
-1.192381915e-09
-1.223172309e-09
-1.257360912e-09
-1.295206101e-09
-1.336357184e-09
-1.381275197e-09
-1.429718631e-09
-1.482084332e-09
-1.538214108e-09
-1.597926899e-09
-1.661157752e-09
-1.727670182e-09
-1.796721177e-09
-1.868535527e-09
-1.942759525e-09
-2.019301588e-09
-2.097519635e-09
-2.17630001e-09
-2.25605311e-09
-2.336048082e-09
-2.415032373e-09
-2.477996427e-09
-2.524669792e-09
-2.5819273e-09
-2.671769638e-09
-2.789545903e-09
-2.90764041e-09
-3.001963773e-09
-3.074045271e-09
-3.13634967e-09
-3.181553496e-09
-3.205551596e-09
-3.238053236e-09
-3.313893221e-09
-3.398973798e-09
-3.441484219e-09
-3.452526539e-09
-3.447426063e-09
-3.439596962e-09
-3.475745114e-09
-3.472678243e-09
-3.454066061e-09
-3.42886859e-09
-3.34523809e-09
-3.95147478e-09
-4.593667142e-09
-5.293127634e-09
-6.022813035e-09
)


101
(
1.517603416e-12
5.304102446e-11
1.099383616e-10
1.656871852e-10
2.195872334e-10
2.718936172e-10
3.217833778e-10
3.684835352e-10
4.119013553e-10
4.513670981e-10
4.857960433e-10
5.152226192e-10
5.39338255e-10
5.577439927e-10
5.703359428e-10
5.764048867e-10
5.739892465e-10
5.596806918e-10
5.320982439e-10
4.819765318e-10
4.082011991e-10
3.100041344e-10
1.818659619e-10
2.805951933e-11
-1.412404172e-10
-3.161318286e-10
-4.873421685e-10
-6.462027314e-10
-7.864832488e-10
-9.043376686e-10
-9.983770642e-10
-1.069520097e-09
-1.120627521e-09
-1.153348531e-09
-1.16871014e-09
-1.168360074e-09
-1.144386541e-09
-1.103953459e-09
-1.08187704e-09
-1.091966991e-09
-1.119431365e-09
-1.146581798e-09
-1.165366135e-09
-1.175611918e-09
-1.181120406e-09
-1.186352679e-09
-1.194055426e-09
-1.205484009e-09
-1.220385749e-09
-1.238468242e-09
-1.259398383e-09
-1.283260719e-09
-1.310212649e-09
-1.340598679e-09
-1.374529021e-09
-1.411805325e-09
-1.453142979e-09
-1.498057313e-09
-1.547001421e-09
-1.599584409e-09
-1.655987331e-09
-1.716627772e-09
-1.781164121e-09
-1.849715314e-09
-1.922131219e-09
-1.997774097e-09
-2.07660212e-09
-2.158677607e-09
-2.243252855e-09
-2.330660228e-09
-2.419237357e-09
-2.509177352e-09
-2.600065283e-09
-2.692657127e-09
-2.780658306e-09
-2.856437944e-09
-2.924744319e-09
-3.003803642e-09
-3.109867197e-09
-3.238550008e-09
-3.362061419e-09
-3.462141027e-09
-3.54466277e-09
-3.617957534e-09
-3.676528691e-09
-3.720912026e-09
-3.776202488e-09
-3.867027773e-09
-3.946529752e-09
-3.987735083e-09
-4.009551616e-09
-4.018014909e-09
-4.036530508e-09
-4.059757203e-09
-4.052415417e-09
-4.0522123e-09
-4.024236516e-09
-4.636512055e-09
-5.28628212e-09
-6.035721446e-09
-6.818577398e-09
)


101
(
1.517641316e-12
5.308179493e-11
1.10108028e-10
1.661180926e-10
2.203800483e-10
2.731490309e-10
3.236497535e-10
3.71135065e-10
4.154586487e-10
4.559850175e-10
4.916503766e-10
5.223713671e-10
5.478596885e-10
5.677384997e-10
5.818767062e-10
5.896885203e-10
5.894856218e-10
5.782089655e-10
5.541142997e-10
5.095684848e-10
4.417153522e-10
3.493814724e-10
2.280946622e-10
7.952298702e-11
-8.827177432e-11
-2.657342211e-10
-4.434940604e-10
-6.126480817e-10
-7.660564978e-10
-8.989014823e-10
-1.008750396e-09
-1.095470989e-09
-1.161165348e-09
-1.207827106e-09
-1.236648045e-09
-1.248804944e-09
-1.239745752e-09
-1.211389166e-09
-1.186253567e-09
-1.184287672e-09
-1.204795485e-09
-1.234822789e-09
-1.262678381e-09
-1.282982828e-09
-1.296203615e-09
-1.306141668e-09
-1.316667839e-09
-1.330478904e-09
-1.348158346e-09
-1.369353602e-09
-1.393672357e-09
-1.420913091e-09
-1.45120326e-09
-1.484872926e-09
-1.522272338e-09
-1.56311727e-09
-1.607698008e-09
-1.656148284e-09
-1.708751207e-09
-1.765411008e-09
-1.826052349e-09
-1.891001651e-09
-1.960025648e-09
-2.033070644e-09
-2.110419825e-09
-2.19182444e-09
-2.276769914e-09
-2.365222796e-09
-2.456669049e-09
-2.55136507e-09
-2.648758639e-09
-2.74788347e-09
-2.848098378e-09
-2.950067303e-09
-3.052427504e-09
-3.150152257e-09
-3.23978912e-09
-3.325310787e-09
-3.422528122e-09
-3.545675013e-09
-3.684526788e-09
-3.813004827e-09
-3.918457606e-09
-4.011014825e-09
-4.095287922e-09
-4.167204797e-09
-4.229931858e-09
-4.31045916e-09
-4.4102243e-09
-4.48193251e-09
-4.526177238e-09
-4.558768008e-09
-4.585269919e-09
-4.623213998e-09
-4.635142083e-09
-4.646453016e-09
-4.652676853e-09
-5.295867146e-09
-5.978870854e-09
-6.782070643e-09
-7.619369927e-09
)


101
(
1.517679351e-12
5.312250419e-11
1.102773767e-10
1.665469506e-10
2.21166989e-10
2.743910136e-10
3.254894194e-10
3.73742073e-10
4.189554782e-10
4.605264422e-10
4.974181212e-10
5.294452234e-10
5.563306076e-10
5.777221958e-10
5.9347182e-10
6.030975789e-10
6.051619816e-10
5.96950117e-10
5.765012016e-10
5.374547314e-10
4.759002304e-10
3.900562951e-10
2.761285495e-10
1.340279594e-10
-3.032187634e-11
-2.082400564e-10
-3.905189519e-10
-5.681309953e-10
-7.332574016e-10
-8.801692098e-10
-1.005384352e-09
-1.107780879e-09
-1.188527838e-09
-1.249491542e-09
-1.292219538e-09
-1.317752518e-09
-1.323398009e-09
-1.308691088e-09
-1.287275213e-09
-1.278407946e-09
-1.290532299e-09
-1.31850534e-09
-1.351831741e-09
-1.38170028e-09
-1.404542739e-09
-1.421837516e-09
-1.437248008e-09
-1.454574701e-09
-1.475717854e-09
-1.500918507e-09
-1.529833015e-09
-1.561930062e-09
-1.597272163e-09
-1.63607186e-09
-1.678712258e-09
-1.725122908e-09
-1.775392057e-09
-1.829435833e-09
-1.887566147e-09
-1.949950023e-09
-2.016682674e-09
-2.087758874e-09
-2.163183794e-09
-2.242635296e-09
-2.326244775e-09
-2.414209787e-09
-2.505951352e-09
-2.601679777e-09
-2.700705435e-09
-2.802654823e-09
-2.908221715e-09
-3.016052623e-09
-3.125340552e-09
-3.235786638e-09
-3.347709053e-09
-3.45906399e-09
-3.566644853e-09
-3.667464894e-09
-3.767592887e-09
-3.882230653e-09
-4.019792342e-09
-4.165172031e-09
-4.294623147e-09
-4.404568797e-09
-4.505838183e-09
-4.599043672e-09
-4.68070144e-09
-4.762714952e-09
-4.865389726e-09
-4.962727844e-09
-5.030164322e-09
-5.080531073e-09
-5.122262e-09
-5.173474604e-09
-5.201961214e-09
-5.231313959e-09
-5.276715773e-09
-5.980289207e-09
-6.722349056e-09
-7.547150102e-09
-8.39971842e-09
)


101
(
1.517717389e-12
5.316314593e-11
1.104464265e-10
1.669738859e-10
2.219484686e-10
2.756207083e-10
3.273050261e-10
3.763095735e-10
4.223996858e-10
4.650037745e-10
5.031176713e-10
5.364692439e-10
5.647855589e-10
5.877404994e-10
6.051773201e-10
6.167017703e-10
6.21104011e-10
6.160014264e-10
5.9933366e-10
5.657469574e-10
5.107596003e-10
4.319558886e-10
3.259148919e-10
1.913516989e-10
3.221835272e-11
-1.440333532e-10
-3.286673048e-10
-5.127109002e-10
-6.87885164e-10
-8.476697813e-10
-9.875825956e-10
-1.105479722e-09
-1.201567859e-09
-1.277218404e-09
-1.33423917e-09
-1.373793044e-09
-1.394377529e-09
-1.39454247e-09
-1.381828417e-09
-1.371913433e-09
-1.377565163e-09
-1.401160568e-09
-1.436556298e-09
-1.47449481e-09
-1.50821605e-09
-1.535987811e-09
-1.559868305e-09
-1.583812458e-09
-1.611032902e-09
-1.642787108e-09
-1.678944905e-09
-1.719102696e-09
-1.763140099e-09
-1.810812447e-09
-1.862668426e-09
-1.918940264e-09
-1.97934712e-09
-2.043552222e-09
-2.111989114e-09
-2.184571992e-09
-2.261466748e-09
-2.342794423e-09
-2.428214153e-09
-2.518036982e-09
-2.611801743e-09
-2.709867007e-09
-2.811746962e-09
-2.917298257e-09
-3.026054218e-09
-3.137018636e-09
-3.251403549e-09
-3.368038424e-09
-3.487156671e-09
-3.607095147e-09
-3.727553352e-09
-3.848342985e-09
-3.968023387e-09
-4.083404452e-09
-4.193653072e-09
-4.306019791e-09
-4.435081874e-09
-4.581888686e-09
-4.728216998e-09
-4.854609719e-09
-4.967877465e-09
-5.073433315e-09
-5.170626699e-09
-5.260265365e-09
-5.35953138e-09
-5.469726308e-09
-5.556202915e-09
-5.621444549e-09
-5.676048846e-09
-5.736265652e-09
-5.779037703e-09
-5.831841354e-09
-5.900545381e-09
-6.652016452e-09
-7.44221158e-09
-8.307753357e-09
-9.207678399e-09
)


101
(
1.517755709e-12
5.32037284e-11
1.106152255e-10
1.673990565e-10
2.227249293e-10
2.768391874e-10
3.290988803e-10
3.78841835e-10
4.257979766e-10
4.694272967e-10
5.087638364e-10
5.434631428e-10
5.732512554e-10
5.978283849e-10
6.170362638e-10
6.305547003e-10
6.373783459e-10
6.354401549e-10
6.226714946e-10
5.94530585e-10
5.462985102e-10
4.74998374e-10
3.77357526e-10
2.512635998e-10
9.893939828e-11
-7.358226012e-11
-2.583273248e-10
-4.466002853e-10
-6.298900014e-10
-8.010524725e-10
-9.546966349e-10
-1.087661194e-09
-1.199162305e-09
-1.289820556e-09
-1.361498285e-09
-1.415568016e-09
-1.451484755e-09
-1.467631212e-09
-1.467534166e-09
-1.462515993e-09
-1.466023061e-09
-1.485860842e-09
-1.521524849e-09
-1.566106251e-09
-1.611558712e-09
-1.653091728e-09
-1.690171205e-09
-1.72579451e-09
-1.76365606e-09
-1.806145338e-09
-1.853873865e-09
-1.906835198e-09
-1.96448245e-09
-2.026276536e-09
-2.092647041e-09
-2.163638067e-09
-2.239400088e-09
-2.318806133e-09
-2.402787991e-09
-2.490975967e-09
-2.583066917e-09
-2.679489008e-09
-2.779448475e-09
-2.883555791e-09
-2.991376241e-09
-3.102912093e-09
-3.218152802e-09
-3.33597968e-09
-3.4566136e-09
-3.579081731e-09
-3.704115756e-09
-3.831201915e-09
-3.960017102e-09
-4.08980008e-09
-4.219466258e-09
-4.349091102e-09
-4.477327976e-09
-4.603345303e-09
-4.725048981e-09
-4.842147582e-09
-4.964940634e-09
-5.104753706e-09
-5.255559831e-09
-5.395904312e-09
-5.518399078e-09
-5.630657015e-09
-5.73733067e-09
-5.833983602e-09
-5.930770739e-09
-6.040910529e-09
-6.13815687e-09
-6.214244559e-09
-6.279526487e-09
-6.343177584e-09
-6.397980521e-09
-6.461120979e-09
-6.545392126e-09
-7.33982669e-09
-8.165761066e-09
-9.024250228e-09
-9.90912858e-09
)


101
(
1.517793746e-12
5.324422847e-11
1.107837538e-10
1.678225057e-10
2.234966506e-10
2.780472773e-10
3.308727915e-10
3.813421791e-10
4.291558686e-10
4.738053686e-10
5.143682309e-10
5.504417332e-10
5.817474109e-10
6.080115616e-10
6.290802772e-10
6.446961098e-10
6.540354741e-10
6.553266605e-10
6.465612081e-10
6.238692356e-10
5.825218197e-10
5.191032322e-10
4.303407714e-10
3.13534858e-10
1.694444776e-10
2.622016887e-12
-1.799600303e-10
-3.701225803e-10
-5.593632358e-10
-7.401128373e-10
-9.062116791e-10
-1.053536495e-09
-1.180298376e-09
-1.286197102e-09
-1.372939898e-09
-1.442054679e-09
-1.493845311e-09
-1.527077239e-09
-1.542863558e-09
-1.54848226e-09
-1.555747131e-09
-1.5752147e-09
-1.611668993e-09
-1.662323681e-09
-1.720087275e-09
-1.778234403e-09
-1.833237256e-09
-1.886013291e-09
-1.939607827e-09
-1.997396888e-09
-2.061076449e-09
-2.131117704e-09
-2.206733516e-09
-2.287265077e-09
-2.371927125e-09
-2.461393885e-09
-2.556401388e-09
-2.654961943e-09
-2.757926862e-09
-2.864999897e-09
-2.975382196e-09
-3.089363952e-09
-3.206998325e-09
-3.327725933e-09
-3.451226061e-09
-3.577227167e-09
-3.706985759e-09
-3.838687745e-09
-3.97284381e-09
-4.108460382e-09
-4.2452201e-09
-4.383357296e-09
-4.522065201e-09
-4.66140859e-09
-4.80066291e-09
-4.938566029e-09
-5.074307232e-09
-5.208558143e-09
-5.33960081e-09
-5.465059611e-09
-5.587719736e-09
-5.720327011e-09
-5.86640767e-09
-6.014303415e-09
-6.145082658e-09
-6.262084287e-09
-6.372568075e-09
-6.474521988e-09
-6.570320507e-09
-6.67619064e-09
-6.778124394e-09
-6.861609836e-09
-6.93206653e-09
-6.996457722e-09
-7.058781906e-09
-7.126516286e-09
-7.228826392e-09
-8.038916835e-09
-8.865123116e-09
-9.642233514e-09
-1.042922095e-08
)


101
(
1.517831196e-12
5.328463265e-11
1.109520115e-10
1.682443089e-10
2.242639255e-10
2.792457775e-10
3.326284608e-10
3.838136202e-10
4.324781451e-10
4.781450349e-10
5.199401549e-10
5.574162075e-10
5.902882206e-10
6.183079178e-10
6.413309036e-10
6.591532045e-10
6.711107569e-10
6.757047303e-10
6.71037186e-10
6.53806804e-10
6.194297173e-10
5.641938492e-10
4.84744927e-10
3.779450979e-10
2.433595559e-10
8.40826655e-11
-9.409074414e-11
-2.837230385e-10
-4.765635335e-10
-6.648430635e-10
-8.418186402e-10
-1.002524882e-09
-1.144201113e-09
-1.265497475e-09
-1.367809468e-09
-1.452654382e-09
-1.521034797e-09
-1.572442224e-09
-1.606834825e-09
-1.628265565e-09
-1.645789078e-09
-1.670279147e-09
-1.710133063e-09
-1.767213106e-09
-1.83726419e-09
-1.913332825e-09
-1.989311053e-09
-2.063303589e-09
-2.136877137e-09
-2.213562214e-09
-2.295827899e-09
-2.384843029e-09
-2.480283694e-09
-2.581118519e-09
-2.685793803e-09
-2.795917858e-09
-2.910733328e-09
-3.029743863e-09
-3.152121604e-09
-3.278576045e-09
-3.408070753e-09
-3.539886745e-09
-3.674906983e-09
-3.812102586e-09
-3.951539963e-09
-4.092383309e-09
-4.235588305e-09
-4.381120061e-09
-4.528457729e-09
-4.676446527e-09
-4.824606962e-09
-4.973047819e-09
-5.121962129e-09
-5.27058327e-09
-5.418449824e-09
-5.56398578e-09
-5.70710826e-09
-5.848295138e-09
-5.98530222e-09
-6.118473822e-09
-6.246370192e-09
-6.375051046e-09
-6.51415428e-09
-6.66165867e-09
-6.79892822e-09
-6.91983792e-09
-7.03117042e-09
-7.136839445e-09
-7.233026958e-09
-7.333069798e-09
-7.435143343e-09
-7.522300996e-09
-7.594654604e-09
-7.659534883e-09
-7.725876559e-09
-7.798174055e-09
-7.905095712e-09
-8.678363203e-09
-9.450012078e-09
-1.008932674e-08
-1.072690895e-08
)


101
(
1.517869143e-12
5.332497661e-11
1.111200992e-10
1.686647033e-10
2.250272472e-10
2.804356763e-10
3.343677368e-10
3.862592476e-10
4.35769252e-10
4.824523523e-10
5.254871347e-10
5.64395077e-10
5.988836876e-10
6.287293227e-10
6.538016354e-10
6.739427585e-10
6.886269293e-10
6.966043499e-10
6.961224677e-10
6.843743737e-10
6.570171267e-10
6.1018692e-10
5.40427287e-10
4.442465341e-10
3.202625311e-10
1.702055878e-10
-1.397024382e-12
-1.880460322e-10
-3.819832879e-10
-5.754929956e-10
-7.614704279e-10
-9.342739651e-10
-1.090277221e-09
-1.227033798e-09
-1.345473864e-09
-1.446895138e-09
-1.532755115e-09
-1.603358017e-09
-1.658405511e-09
-1.699753171e-09
-1.733432517e-09
-1.76885605e-09
-1.815888757e-09
-1.880278487e-09
-1.961596399e-09
-2.054534457e-09
-2.151842236e-09
-2.248842334e-09
-2.344709498e-09
-2.442090852e-09
-2.543709182e-09
-2.651505594e-09
-2.765956065e-09
-2.886173844e-09
-3.010889679e-09
-3.140321837e-09
-3.273685709e-09
-3.411097126e-09
-3.55150534e-09
-3.69542678e-09
-3.842405462e-09
-3.991032542e-09
-4.14171794e-09
-4.293872837e-09
-4.4477107e-09
-4.603045357e-09
-4.758406678e-09
-4.915556026e-09
-5.073956215e-09
-5.232587942e-09
-5.391079851e-09
-5.54900253e-09
-5.705959602e-09
-5.862093296e-09
-6.017148686e-09
-6.170166414e-09
-6.319728021e-09
-6.465859497e-09
-6.607733684e-09
-6.745751577e-09
-6.878515113e-09
-7.00678448e-09
-7.139606185e-09
-7.281231468e-09
-7.420691131e-09
-7.545430597e-09
-7.656235229e-09
-7.761989687e-09
-7.858472735e-09
-7.951272557e-09
-8.049215604e-09
-8.137188057e-09
-8.209451496e-09
-8.272859351e-09
-8.33857105e-09
-8.415404841e-09
-8.525993032e-09
-9.197215161e-09
-9.850887068e-09
-1.031244805e-08
-1.077221116e-08
)


101
(
1.517907118e-12
5.336523504e-11
1.11287989e-10
1.690837337e-10
2.257868426e-10
2.816175988e-10
3.360919414e-10
3.886813777e-10
4.390327167e-10
4.867320335e-10
5.310142185e-10
5.713834522e-10
6.07538958e-10
6.392807436e-10
6.664970224e-10
6.890703042e-10
7.065952871e-10
7.180461174e-10
7.218351813e-10
7.155957152e-10
6.952731598e-10
6.569881625e-10
5.972031625e-10
5.121475599e-10
3.99691592e-10
2.603371385e-10
9.73334556e-11
-8.39072806e-11
-2.763452593e-10
-4.72589658e-10
-6.654239011e-10
-8.487270761e-10
-1.018155617e-09
-1.170216131e-09
-1.305241359e-09
-1.424068401e-09
-1.528275268e-09
-1.618817309e-09
-1.695639783e-09
-1.759430795e-09
-1.813563858e-09
-1.86499929e-09
-1.923126109e-09
-1.995986543e-09
-2.086872908e-09
-2.193572834e-09
-2.30967311e-09
-2.428626961e-09
-2.546840663e-09
-2.665090663e-09
-2.785352088e-09
-2.91033859e-09
-3.041623101e-09
-3.178776111e-09
-3.320840935e-09
-3.466277036e-09
-3.616121247e-09
-3.76909357e-09
-3.925408206e-09
-4.083915788e-09
-4.245404241e-09
-4.408130929e-09
-4.572168128e-09
-4.737187694e-09
-4.903177188e-09
-5.070269174e-09
-5.236764573e-09
-5.40337379e-09
-5.57009028e-09
-5.737043478e-09
-5.903400711e-09
-6.068738856e-09
-6.231888746e-09
-6.39337799e-09
-6.553374676e-09
-6.711480892e-09
-6.865609833e-09
-7.015023508e-09
-7.159621763e-09
-7.299592829e-09
-7.434160712e-09
-7.562668914e-09
-7.689577785e-09
-7.822049079e-09
-7.957824007e-09
-8.083360194e-09
-8.192163582e-09
-8.293345169e-09
-8.386589766e-09
-8.472787876e-09
-8.561255462e-09
-8.645272034e-09
-8.715351292e-09
-8.773920218e-09
-8.83400996e-09
-8.908561701e-09
-9.017160921e-09
-9.540593827e-09
-1.003183682e-08
-1.029463693e-08
-1.054701917e-08
)


101
(
1.517945723e-12
5.340542092e-11
1.114557406e-10
1.695015709e-10
2.265430961e-10
2.827923334e-10
3.378025371e-10
3.910823474e-10
4.422718445e-10
4.909884365e-10
5.365253619e-10
5.783845348e-10
6.162562548e-10
6.499625221e-10
6.794151648e-10
7.045328237e-10
7.250172461e-10
7.40041742e-10
7.481884686e-10
7.474923303e-10
7.3419137e-10
7.045127152e-10
6.548882368e-10
5.813572342e-10
4.812115424e-10
3.538637184e-10
2.013118594e-10
2.778437562e-11
-1.605817904e-10
-3.569575536e-10
-5.542666865e-10
-7.461479148e-10
-9.277237166e-10
-1.094529615e-09
-1.246208914e-09
-1.382911492e-09
-1.50597485e-09
-1.616693325e-09
-1.715419551e-09
-1.802384652e-09
-1.879104325e-09
-1.949959988e-09
-2.022501368e-09
-2.105228672e-09
-2.204160288e-09
-2.320681405e-09
-2.450873186e-09
-2.587956107e-09
-2.726236212e-09
-2.863812647e-09
-3.001250395e-09
-3.141344601e-09
-3.286639946e-09
-3.437379022e-09
-3.593053878e-09
-3.751937256e-09
-3.914790494e-09
-4.080628976e-09
-4.249264204e-09
-4.419606832e-09
-4.592413964e-09
-4.766176015e-09
-4.940408503e-09
-5.115496028e-09
-5.291377559e-09
-5.466955188e-09
-5.642155158e-09
-5.816089272e-09
-5.989041692e-09
-6.161678282e-09
-6.332947462e-09
-6.502674206e-09
-6.669844539e-09
-6.834269264e-09
-6.996285781e-09
-7.155905319e-09
-7.311824809e-09
-7.462281347e-09
-7.606275528e-09
-7.744959274e-09
-7.877836382e-09
-8.003921363e-09
-8.124523968e-09
-8.246006561e-09
-8.371376709e-09
-8.491534559e-09
-8.595658811e-09
-8.688933522e-09
-8.773515691e-09
-8.850321387e-09
-8.925767083e-09
-8.998862738e-09
-9.061125706e-09
-9.111135959e-09
-9.159478026e-09
-9.224859921e-09
-9.325497034e-09
-9.670760102e-09
-9.976050591e-09
-1.005918599e-08
-1.008747094e-08
)


101
(
1.517984321e-12
5.344550656e-11
1.116233316e-10
1.699182564e-10
2.272962186e-10
2.839604192e-10
3.395006365e-10
3.934639852e-10
4.454890697e-10
4.952247818e-10
5.420234961e-10
5.853989115e-10
6.250345212e-10
6.607713774e-10
6.925500034e-10
7.203221769e-10
7.438831948e-10
7.625848013e-10
7.751706359e-10
7.800379845e-10
7.737272625e-10
7.526648126e-10
7.133262784e-10
6.516150168e-10
5.644060962e-10
4.501865455e-10
3.097411903e-10
1.460538487e-10
-3.57749149e-11
-2.296497016e-10
-4.288454404e-10
-6.270233782e-10
-8.190008445e-10
-9.994070985e-10
-1.167155877e-09
-1.321530216e-09
-1.463319914e-09
-1.59379067e-09
-1.713593439e-09
-1.822891103e-09
-1.92225113e-09
-2.0138819e-09
-2.102928025e-09
-2.196914092e-09
-2.303171385e-09
-2.426045327e-09
-2.564891405e-09
-2.714676064e-09
-2.868725563e-09
-3.022558954e-09
-3.175286178e-09
-3.328583039e-09
-3.484921394e-09
-3.645887905e-09
-3.811736569e-09
-3.980993915e-09
-4.153242291e-09
-4.328567791e-09
-4.506027377e-09
-4.685134416e-09
-4.865780297e-09
-5.047549896e-09
-5.229305986e-09
-5.411479578e-09
-5.593759624e-09
-5.775277006e-09
-5.956240859e-09
-6.135262574e-09
-6.31266238e-09
-6.488086952e-09
-6.661444027e-09
-6.832396387e-09
-7.000498636e-09
-7.165110653e-09
-7.326225933e-09
-7.48414489e-09
-7.638047971e-09
-7.786057484e-09
-7.926802943e-09
-8.060493481e-09
-8.187682234e-09
-8.307455551e-09
-8.419842342e-09
-8.528427037e-09
-8.638679381e-09
-8.747036426e-09
-8.841401521e-09
-8.923223456e-09
-8.994386536e-09
-9.056440123e-09
-9.115652318e-09
-9.171593057e-09
-9.218712468e-09
-9.254934619e-09
-9.285390283e-09
-9.334808759e-09
-9.418747009e-09
-9.582605187e-09
-9.708351558e-09
-9.667594406e-09
-9.623169572e-09
)


101
(
1.518021225e-12
5.348542426e-11
1.117906531e-10
1.703337044e-10
2.280462352e-10
2.85122139e-10
3.411869782e-10
3.958275697e-10
4.486861259e-10
4.994433899e-10
5.475106865e-10
5.924247839e-10
6.338694675e-10
6.717009401e-10
7.058921659e-10
7.36426664e-10
7.631755238e-10
7.856502649e-10
8.0274586e-10
8.131578958e-10
8.137945932e-10
8.013233864e-10
7.723582551e-10
7.22669387e-10
6.488627695e-10
5.486946078e-10
4.217861848e-10
2.698674944e-10
9.693527029e-11
-9.179471241e-11
-2.901462843e-10
-4.920011633e-10
-6.920733999e-10
-8.842102062e-10
-1.066603697e-09
-1.237575086e-09
-1.397152488e-09
-1.54623998e-09
-1.685513814e-09
-1.815231545e-09
-1.935575924e-09
-2.047374602e-09
-2.153555482e-09
-2.259792078e-09
-2.373277957e-09
-2.500162887e-09
-2.642995891e-09
-2.799669741e-09
-2.964064643e-09
-3.13028844e-09
-3.295657705e-09
-3.460010807e-09
-3.624972993e-09
-3.793236789e-09
-3.965690964e-09
-4.141526354e-09
-4.320062776e-09
-4.501302929e-09
-4.684595595e-09
-4.869267898e-09
-5.054905451e-09
-5.241496641e-09
-5.428176783e-09
-5.614477404e-09
-5.799986646e-09
-5.984728104e-09
-6.168270209e-09
-6.349942808e-09
-6.528897884e-09
-6.704889234e-09
-6.877949848e-09
-7.0474775e-09
-7.213403166e-09
-7.375085393e-09
-7.532264493e-09
-7.685305069e-09
-7.833745665e-09
-7.976220431e-09
-8.110634925e-09
-8.236347096e-09
-8.354195662e-09
-8.464043361e-09
-8.565558791e-09
-8.659408392e-09
-8.751732057e-09
-8.843186216e-09
-8.922835597e-09
-8.989026482e-09
-9.043863408e-09
-9.087127558e-09
-9.125806463e-09
-9.161044275e-09
-9.186476159e-09
-9.20357996e-09
-9.211881333e-09
-9.238371791e-09
-9.294488443e-09
-9.308149612e-09
-9.292639619e-09
-9.195198613e-09
-9.118293406e-09
)


101
(
1.51805926e-12
5.352526701e-11
1.11957715e-10
1.707483358e-10
2.287938378e-10
2.862785791e-10
3.42863212e-10
3.981753325e-10
4.518655225e-10
5.03647312e-10
5.529899608e-10
5.994611773e-10
6.427565784e-10
6.827436609e-10
7.194294481e-10
7.528300562e-10
7.82873073e-10
8.092111532e-10
8.308859933e-10
8.468000772e-10
8.543366728e-10
8.503954223e-10
8.318186818e-10
7.942552724e-10
7.341370847e-10
6.487006882e-10
5.365238946e-10
3.98118537e-10
2.363520473e-10
5.543656167e-11
-1.392166467e-10
-3.4183412e-10
-5.471231757e-10
-7.483671095e-10
-9.430863464e-10
-1.128647314e-09
-1.304209936e-09
-1.470067464e-09
-1.626608344e-09
-1.774109938e-09
-1.912697737e-09
-2.042665091e-09
-2.165159992e-09
-2.283834168e-09
-2.404702284e-09
-2.534462769e-09
-2.678039926e-09
-2.836281226e-09
-3.00537716e-09
-3.179376126e-09
-3.353825568e-09
-3.526724682e-09
-3.69843518e-09
-3.87153683e-09
-4.047623141e-09
-4.2267834e-09
-4.408492349e-09
-4.592461668e-09
-4.778405625e-09
-4.96565481e-09
-5.153774192e-09
-5.342317101e-09
-5.530913113e-09
-5.718439885e-09
-5.904624721e-09
-6.089526165e-09
-6.272864047e-09
-6.454080938e-09
-6.632108033e-09
-6.80642798e-09
-6.976915325e-09
-7.142884597e-09
-7.304189573e-09
-7.460302026e-09
-7.610985661e-09
-7.756432876e-09
-7.896492921e-09
-8.03086842e-09
-8.156738699e-09
-8.272488259e-09
-8.37832522e-09
-8.475874434e-09
-8.564177128e-09
-8.642515376e-09
-8.715776117e-09
-8.787653931e-09
-8.850240866e-09
-8.897881796e-09
-8.934807477e-09
-8.958270204e-09
-8.973073154e-09
-8.986709017e-09
-8.988027537e-09
-8.981863891e-09
-8.967471645e-09
-8.966771978e-09
-8.989275771e-09
-8.909895823e-09
-8.814413268e-09
-8.72443626e-09
-8.608131677e-09
)


101
(
1.518098426e-12
5.356502788e-11
1.121247421e-10
1.711622514e-10
2.295392883e-10
2.874302647e-10
3.445302695e-10
4.005086057e-10
4.5502822e-10
5.078370187e-10
5.584629642e-10
6.065062612e-10
6.516898973e-10
6.938874593e-10
7.331385665e-10
7.694946082e-10
8.029269471e-10
8.332133642e-10
8.59545227e-10
8.809772551e-10
8.953683261e-10
8.998660032e-10
8.915581339e-10
8.66117275e-10
8.198041004e-10
7.495354776e-10
6.530421366e-10
5.296873624e-10
3.812154439e-10
2.107603223e-10