/*--------------------------------*- C++ -*----------------------------------*\
| =========                 |                                                 |
| \\      /  F ield         | OpenFOAM: The Open Source CFD Toolbox           |
|  \\    /   O peration     | Version:  2.3.1                                 |
|   \\  /    A nd           | Web:      www.OpenFOAM.org                      |
|    \\/     M anipulation  |                                                 |
\*---------------------------------------------------------------------------*/
FoamFile
{
    version     2.0;
    format      ascii;
    class       dictionary;
    location    "constant";
    object      DPSI53;
}
// * * * * * * * * * * * * * * * * * * * * * * * * * * * * * * * * * * * * * //

DPSI53_table
101
(

101
(
5.920455074e-33
1.077696301e-21
2.596312471e-20
2.252503276e-19
1.247444942e-18
5.039535477e-18
1.606556436e-17
4.538291275e-17
1.11901787e-16
2.484617362e-16
4.970771468e-16
9.049441706e-16
1.492632649e-15
2.285677227e-15
3.197268955e-15
4.133265664e-15
4.9701313e-15
5.529921089e-15
5.799690498e-15
5.566421346e-15
5.062169415e-15
4.353146282e-15
3.348804593e-15
2.312276229e-15
1.331233714e-15
4.590943615e-16
-2.668383741e-16
-8.46871858e-16
-1.296399819e-15
-1.623016484e-15
-1.850975394e-15
-2.00031639e-15
-2.080089185e-15
-2.040943265e-15
-1.941901904e-15
-1.688808699e-15
4.67287079e-16
3.210340907e-15
1.481216817e-15
1.000292966e-15
7.655761233e-16
5.649362368e-16
4.08355711e-16
2.705386652e-16
1.435655436e-16
4.568359354e-17
-4.021090656e-17
-1.003807261e-16
-1.503309116e-16
-1.834583329e-16
-2.088445581e-16
-2.244852572e-16
-2.341541898e-16
-2.34547035e-16
-2.277774006e-16
-2.206029586e-16
-2.078482906e-16
-1.974681171e-16
-1.831522531e-16
-1.692806387e-16
-1.537328056e-16
-1.388830383e-16
-1.250427626e-16
-1.114195295e-16
-9.685409877e-17
-8.40969585e-17
-7.228600112e-17
-6.139881944e-17
-5.143288869e-17
-4.276314961e-17
-3.513668525e-17
-2.855048996e-17
-2.282115176e-17
-1.789409668e-17
-1.139057517e-17
-7.517904325e-18
-6.325610893e-18
-5.019323387e-18
-3.856345646e-18
-2.893452227e-18
-2.116267263e-18
-1.486619553e-18
-1.022544014e-18
-5.842346473e-19
-3.469928863e-19
-2.475632045e-19
-1.665658355e-19
-1.05126782e-19
-6.344919934e-20
-3.094408231e-20
-1.845990268e-20
-1.099618136e-20
-5.841473574e-21
-2.747325362e-21
-1.304371971e-21
-5.369124276e-22
-8.972360504e-23
-1.698794657e-22
-3.353380811e-22
-9.182066958e-22
-2.495851648e-21
)


101
(
5.920603475e-33
9.684161256e-22
2.4401419e-20
2.143140053e-19
1.192188316e-18
4.81520092e-18
1.530533108e-17
4.309125784e-17
1.058076751e-16
2.336677645e-16
4.643131199e-16
8.380615773e-16
1.367060108e-15
2.063458738e-15
2.833473166e-15
3.570712375e-15
4.145056776e-15
4.383089531e-15
4.267124752e-15
3.61856268e-15
2.654820213e-15
1.478758558e-15
4.873295376e-17
-1.383050226e-15
-2.701209913e-15
-3.840296349e-15
-4.756900985e-15
-5.448454164e-15
-5.936786752e-15
-6.236863287e-15
-6.383419284e-15
-6.408913188e-15
-6.328617109e-15
-6.137644274e-15
-5.84738481e-15
-5.4532199e-15
-3.76148399e-15
-1.376711646e-15
-2.164595176e-15
-2.443277951e-15
-2.4667566e-15
-2.404932218e-15
-2.31143094e-15
-2.209514931e-15
-2.104555898e-15
-1.991048285e-15
-1.879566521e-15
-1.759605298e-15
-1.641628895e-15
-1.521497413e-15
-1.404810997e-15
-1.290683149e-15
-1.182339906e-15
-1.078284845e-15
-9.766029024e-16
-8.810396895e-16
-7.886067202e-16
-7.051559416e-16
-6.266655828e-16
-5.548054889e-16
-4.884053198e-16
-4.279325236e-16
-3.731808326e-16
-3.238150106e-16
-2.786354679e-16
-2.385607019e-16
-2.027548854e-16
-1.70986249e-16
-1.431041439e-16
-1.187423395e-16
-9.771555852e-17
-7.959889917e-17
-6.430412934e-17
-5.132496342e-17
-3.896376443e-17
-2.957858436e-17
-2.320248094e-17
-1.794752947e-17
-1.368411197e-17
-1.025930138e-17
-7.559789321e-18
-5.449925498e-18
-3.856237212e-18
-2.604274212e-18
-1.736283666e-18
-1.162964782e-18
-7.729578069e-19
-5.026476765e-19
-3.150454596e-19
-1.891834037e-19
-1.126385995e-19
-6.499750403e-20
-3.780107655e-20
-2.060998928e-20
-1.121298197e-20
-5.612857351e-21
-1.614994646e-21
-3.758719915e-21
-8.326921814e-21
-2.174605503e-20
-4.859051534e-20
)


101
(
5.920751888e-33
7.600618545e-22
2.13750134e-20
1.929256611e-19
1.08335409e-18
4.371426719e-18
1.380065021e-17
3.855880242e-17
9.379471015e-17
2.046622011e-16
4.005158655e-16
7.088473851e-16
1.126585715e-15
1.641508679e-15
2.147982292e-15
2.518222993e-15
2.60942965e-15
2.255742528e-15
1.428409165e-15
7.455206981e-18
-1.818605222e-15
-3.889376115e-15
-6.154743649e-15
-8.377153901e-15
-1.039170548e-14
-1.210818249e-14
-1.346621862e-14
-1.445095318e-14
-1.509266848e-14
-1.541734194e-14
-1.547454468e-14
-1.532445948e-14
-1.499160339e-14
-1.455129117e-14
-1.394867146e-14
-1.313233088e-14
-1.209095698e-14
-1.033109895e-14
-9.701082046e-15
-9.47622395e-15
-9.097997718e-15
-8.585466212e-15
-8.034794997e-15
-7.478235693e-15
-6.93287507e-15
-6.414475486e-15
-5.921563558e-15
-5.453491709e-15
-5.006291704e-15
-4.583445977e-15
-4.181750276e-15
-3.80417922e-15
-3.45251079e-15
-3.126782514e-15
-2.822673211e-15
-2.540814742e-15
-2.276340983e-15
-2.032808887e-15
-1.810134503e-15
-1.605628216e-15
-1.4200673e-15
-1.251426488e-15
-1.09823027e-15
-9.601226954e-16
-8.357876265e-16
-7.237814195e-16
-6.236229665e-16
-5.338031177e-16
-4.548912341e-16
-3.851300054e-16
-3.238243884e-16
-2.700330392e-16
-2.237093632e-16
-1.837842571e-16
-1.492244613e-16
-1.198252612e-16
-9.539337994e-17
-7.524464319e-17
-5.878281155e-17
-4.543784842e-17
-3.470734352e-17
-2.609083222e-17
-1.930809965e-17
-1.40169422e-17
-9.969143148e-18
-6.943589261e-18
-4.750015398e-18
-3.232453825e-18
-2.151937769e-18
-1.384877939e-18
-8.681491149e-19
-5.336510688e-19
-3.292573251e-19
-1.953808029e-19
-1.145957049e-19
-6.243355088e-20
-2.022073324e-20
-5.759644301e-20
-1.376271438e-19
-3.743561637e-19
-9.762626724e-19
)


101
(
5.920900299e-33
5.730587879e-22
1.861058471e-20
1.7344026e-19
9.850268005e-19
3.974630879e-18
1.247306392e-17
3.461870354e-17
8.354020989e-17
1.803960059e-16
3.482382654e-16
6.050964719e-16
9.371663892e-16
1.314448236e-15
1.622750813e-15
1.717207468e-15
1.440982611e-15
6.264653756e-16
-7.737997371e-16
-2.846303084e-15
-5.429975821e-15
-8.335732629e-15
-1.144359226e-14
-1.450756826e-14
-1.73237687e-14
-1.976571428e-14
-2.174592606e-14
-2.322930967e-14
-2.42407341e-14
-2.480795514e-14
-2.497704383e-14
-2.484186783e-14
-2.442749476e-14
-2.38828829e-14
-2.315161122e-14
-2.222365746e-14
-2.099069992e-14
-1.942632928e-14
-1.823260098e-14
-1.743710172e-14
-1.669205367e-14
-1.585090734e-14
-1.494459722e-14
-1.400829598e-14
-1.307508078e-14
-1.218075871e-14
-1.132419946e-14
-1.051402421e-14
-9.737338155e-15
-9.00404272e-15
-8.302663835e-15
-7.636949064e-15
-7.009424927e-15
-6.422851558e-15
-5.872632734e-15
-5.355489973e-15
-4.874053936e-15
-4.421533943e-15
-4.002215498e-15
-3.608203957e-15
-3.245021037e-15
-2.911424584e-15
-2.60350494e-15
-2.321449852e-15
-2.062953128e-15
-1.823909738e-15
-1.605824857e-15
-1.407105779e-15
-1.227623222e-15
-1.066242925e-15
-9.194470916e-16
-7.878872451e-16
-6.707276341e-16
-5.673783938e-16
-4.759955061e-16
-3.956498666e-16
-3.253507507e-16
-2.652426129e-16
-2.141131508e-16
-1.711670092e-16
-1.355551903e-16
-1.059369932e-16
-8.171058722e-17
-6.208599863e-17
-4.63444335e-17
-3.393287537e-17
-2.432321989e-17
-1.719790254e-17
-1.20664503e-17
-8.254293342e-18
-5.473510499e-18
-3.538363483e-18
-2.248620947e-18
-1.422535863e-18
-8.865364827e-19
-5.151007947e-19
-2.039289289e-19
-6.259168949e-19
-1.479200221e-18
-3.845045659e-18
-7.868748241e-18
)


101
(
5.921049261e-33
4.058488278e-22
1.608660203e-20
1.556768172e-19
8.960948068e-19
3.619316288e-18
1.129930839e-17
3.118399101e-17
7.475947684e-17
1.600396526e-16
3.053322041e-16
5.218131714e-16
7.883586919e-16
1.062194155e-15
1.222979477e-15
1.111689709e-15
5.56008936e-16
-6.215637056e-16
-2.495444968e-15
-5.139348116e-15
-8.422489103e-15
-1.21499601e-14
-1.615533939e-14
-2.016991264e-14
-2.395579623e-14
-2.734122454e-14
-3.019928986e-14
-3.246608467e-14
-3.414676091e-14
-3.526044117e-14
-3.585091573e-14
-3.598417565e-14
-3.572184243e-14
-3.52766786e-14
-3.459351615e-14
-3.383305541e-14
-3.239946275e-14
-3.08218573e-14
-2.936939668e-14
-2.814111793e-14
-2.70583454e-14
-2.594061767e-14
-2.475496164e-14
-2.350802407e-14
-2.221934549e-14
-2.094350857e-14
-1.969932137e-14
-1.851517757e-14
-1.73769123e-14
-1.628692448e-14
-1.522991353e-14
-1.420582457e-14
-1.322163324e-14
-1.228917309e-14
-1.140633964e-14
-1.055884168e-14
-9.759639546e-15
-8.997536204e-15
-8.284095073e-15
-7.598202466e-15
-6.946359217e-15
-6.341842923e-15
-5.770612416e-15
-5.239312814e-15
-4.746164591e-15
-4.281519253e-15
-3.84643666e-15
-3.441162001e-15
-3.063342032e-15
-2.720986877e-15
-2.401313273e-15
-2.107132184e-15
-1.836929341e-15
-1.592524712e-15
-1.371402302e-15
-1.172240742e-15
-9.937194594e-16
-8.351588186e-16
-6.944172726e-16
-5.722562301e-16
-4.673473772e-16
-3.784117705e-16
-3.023197256e-16
-2.387129531e-16
-1.856305805e-16
-1.42130419e-16
-1.065499232e-16
-7.857047951e-17
-5.722359767e-17
-4.121406551e-17
-2.880851743e-17
-1.970280993e-17
-1.322187732e-17
-8.681512486e-18
-5.705853315e-18
-3.517789854e-18
-1.626352159e-18
-4.574156617e-18
-1.0679205e-17
-3.151346318e-17
-6.837333803e-17
)


101
(
5.921197132e-33
2.569980949e-22
1.378356187e-20
1.394730696e-19
8.155737024e-19
3.300696326e-18
1.025948673e-17
2.818153226e-17
6.721633418e-17
1.429143605e-16
2.700653247e-16
4.550092983e-16
6.719800625e-16
8.692042311e-16
9.221751824e-16
6.600714634e-16
-1.066171974e-16
-1.571417911e-15
-3.842503281e-15
-7.00070781e-15
-1.095072213e-14
-1.55096973e-14
-2.048872821e-14
-2.559387452e-14
-3.055030509e-14
-3.514382874e-14
-3.919694592e-14
-4.259821936e-14
-4.532062909e-14
-4.736361284e-14
-4.876801003e-14
-4.954962858e-14
-4.978056372e-14
-4.972873615e-14
-4.933814953e-14
-4.87195659e-14
-4.760001209e-14
-4.612118834e-14
-4.457354514e-14
-4.314416119e-14
-4.183677017e-14
-4.051532838e-14
-3.913636924e-14
-3.766878735e-14
-3.609420995e-14
-3.44679944e-14
-3.282912746e-14
-3.125281561e-14
-2.973021358e-14
-2.824517442e-14
-2.678816688e-14
-2.53389217e-14
-2.391122773e-14
-2.252769903e-14
-2.120927487e-14
-1.992239547e-14
-1.867420146e-14
-1.74680826e-14
-1.63158235e-14
-1.519671867e-14
-1.411663358e-14
-1.30917836e-14
-1.210591491e-14
-1.116289012e-14
-1.027482344e-14
-9.431327005e-15
-8.624232606e-15
-7.855750418e-15
-7.122689627e-15
-6.437515394e-15
-5.795802533e-15
-5.193656119e-15
-4.627536123e-15
-4.099849613e-15
-3.610415579e-15
-3.159308594e-15
-2.748261322e-15
-2.371398649e-15
-2.026858766e-15
-1.717418699e-15
-1.442426347e-15
-1.203480363e-15
-9.926474624e-16
-8.099751046e-16
-6.533746633e-16
-5.197788173e-16
-4.063560834e-16
-3.121583697e-16
-2.366298399e-16
-1.778525556e-16
-1.304631555e-16
-9.344951005e-17
-6.622114516e-17
-4.583269161e-17
-3.164134322e-17
-2.020071127e-17
-1.035518525e-17
-3.208596496e-17
-7.487342269e-17
-2.078843882e-16
-4.077549895e-16
)


101
(
5.921345527e-33
1.251813638e-22
1.168379931e-20
1.246835109e-19
7.425885674e-19
3.014554297e-18
9.336239243e-18
2.554862723e-17
6.071407232e-17
1.284661696e-16
2.410428021e-16
4.015513226e-16
5.816678281e-16
7.237270174e-16
7.007019516e-16
3.322398688e-16
-5.891055084e-16
-2.278002445e-15
-4.88228136e-15
-8.506934499e-15
-1.310019425e-14
-1.850651114e-14
-2.453727385e-14
-3.088150997e-14
-3.722442791e-14
-4.331422271e-14
-4.892306531e-14
-5.387506815e-14
-5.809183545e-14
-6.153807865e-14
-6.423185928e-14
-6.61787403e-14
-6.738858451e-14
-6.816990927e-14
-6.850100067e-14
-6.846848112e-14
-6.792579191e-14
-6.688174494e-14
-6.557406334e-14
-6.421982493e-14
-6.290642296e-14
-6.153407879e-14
-6.011556452e-14
-5.858450698e-14
-5.687882608e-14
-5.503930474e-14
-5.308713203e-14
-5.11418137e-14
-4.923785027e-14
-4.735792112e-14
-4.549398033e-14
-4.358987884e-14
-4.167641011e-14
-3.977455201e-14
-3.791826608e-14
-3.608427088e-14
-3.428183748e-14
-3.249215407e-14
-3.074244902e-14
-2.901158041e-14
-2.731629733e-14
-2.567518359e-14
-2.407628712e-14
-2.252168868e-14
-2.102102737e-14
-1.957917042e-14
-1.817534866e-14
-1.682481999e-14
-1.55119642e-14
-1.424779463e-14
-1.304929871e-14
-1.190085348e-14
-1.080444649e-14
-9.757571709e-15
-8.766608098e-15
-7.829348662e-15
-6.958491017e-15
-6.145684991e-15
-5.388455434e-15
-4.685155124e-15
-4.037357241e-15
-3.454332746e-15
-2.933426163e-15
-2.463915092e-15
-2.05151833e-15
-1.688844193e-15
-1.370490446e-15
-1.094023782e-15
-8.629609554e-16
-6.732485984e-16
-5.176641254e-16
-3.875385403e-16
-2.876090597e-16
-2.099078048e-16
-1.510643757e-16
-1.031136414e-16
-5.886668643e-17
-1.810860074e-16
-4.116022481e-16
-1.086294637e-15
-2.05987459e-15
)


101
(
5.921493934e-33
9.173927791e-24
9.771298776e-21
1.111774659e-19
6.76362343e-19
2.757193797e-18
8.514471142e-18
2.323092194e-17
5.508642728e-17
1.162320394e-16
2.171078026e-16
3.588449004e-16
5.121858788e-16
6.161420629e-16
5.42655243e-16
1.040344288e-16
-9.246414685e-16
-2.782982886e-15
-5.66334801e-15
-9.709429582e-15
-1.492336969e-14
-2.119051076e-14
-2.834092571e-14
-3.606833769e-14
-4.40182333e-14
-5.190419572e-14
-5.945867873e-14
-6.643659295e-14
-7.268604977e-14
-7.811528803e-14
-8.270810979e-14
-8.64534069e-14
-8.929667101e-14
-9.15356e-14
-9.317802022e-14
-9.431870139e-14
-9.485131191e-14
-9.473872307e-14
-9.419079527e-14
-9.337685756e-14
-9.245714049e-14
-9.139583917e-14
-9.023470877e-14
-8.89065597e-14
-8.733670848e-14
-8.555830078e-14
-8.354168403e-14
-8.141035772e-14
-7.926728928e-14
-7.710046071e-14
-7.487369952e-14
-7.257118361e-14
-7.021809635e-14
-6.777664487e-14
-6.534468399e-14
-6.292790226e-14
-6.049195233e-14
-5.80105651e-14
-5.554838709e-14
-5.305891418e-14
-5.056416236e-14
-4.81029207e-14
-4.563942981e-14
-4.322937421e-14
-4.086108344e-14
-3.856085591e-14
-3.630174226e-14
-3.407852452e-14
-3.188121451e-14
-2.969697779e-14
-2.759190261e-14
-2.553813761e-14
-2.357725451e-14
-2.167247876e-14
-1.981758584e-14
-1.802692817e-14
-1.632158779e-14
-1.470280625e-14
-1.316933721e-14
-1.17087469e-14
-1.033474361e-14
-9.049438497e-15
-7.883333884e-15
-6.799044997e-15
-5.820737263e-15
-4.929692388e-15
-4.138011835e-15
-3.419122295e-15
-2.795996914e-15
-2.26115872e-15
-1.805574875e-15
-1.410896913e-15
-1.094823257e-15
-8.387646263e-16
-6.317670432e-16
-4.616800284e-16
-2.888111613e-16
-8.351871525e-16
-1.821473917e-15
-4.516064747e-15
-8.749841034e-15
)


101
(
5.921643443e-33
-9.215821565e-23
8.03152855e-21
9.883753974e-20
6.162053823e-19
2.525436999e-18
7.781654311e-18
2.118383779e-17
5.019609655e-17
1.058329317e-16
1.97326242e-16
3.248024663e-16
4.593687171e-16
5.388060991e-16
4.355320245e-16
-4.338426308e-17
-1.139041477e-15
-3.118028402e-15
-6.220787107e-15
-1.064202303e-14
-1.644993453e-14
-2.358471988e-14
-3.190804132e-14
-4.115317563e-14
-5.093507459e-14
-6.093396697e-14
-7.08494098e-14
-8.03710781e-14
-8.925998038e-14
-9.73439994e-14
-1.04552721e-13
-1.108564869e-13
-1.161527687e-13
-1.20682497e-13
-1.244154524e-13
-1.274975711e-13
-1.29865164e-13
-1.314530256e-13
-1.324536492e-13
-1.329344661e-13
-1.330654415e-13
-1.328818172e-13
-1.325030126e-13
-1.31866838e-13
-1.309113124e-13
-1.296771801e-13
-1.280766914e-13
-1.262281256e-13
-1.242086191e-13
-1.220440355e-13
-1.197218115e-13
-1.1729615e-13
-1.147204205e-13
-1.119290978e-13
-1.090445442e-13
-1.060666154e-13
-1.030440601e-13
-9.982594406e-14
-9.661422145e-14
-9.332378299e-14
-8.99175147e-14
-8.650142926e-14
-8.298654655e-14
-7.94772976e-14
-7.597071688e-14
-7.249370381e-14
-6.906348736e-14
-6.560770178e-14
-6.215023266e-14
-5.866743356e-14
-5.523070987e-14
-5.183094284e-14
-4.849336544e-14
-4.522753823e-14
-4.200996826e-14
-3.885356707e-14
-3.575271135e-14
-3.275533963e-14
-2.988840057e-14
-2.709416253e-14
-2.439436368e-14
-2.183261029e-14
-1.942783083e-14
-1.717617233e-14
-1.505399962e-14
-1.307489553e-14
-1.129277963e-14
-9.622731785e-15
-8.119224949e-15
-6.784374839e-15
-5.599407814e-15
-4.555792602e-15
-3.673312793e-15
-2.93448173e-15
-2.304456317e-15
-1.767544566e-15
-1.222187014e-15
-3.236714021e-15
-6.703269513e-15
-1.527382492e-14
-3.008418159e-14
)


101
(
5.921791847e-33
-1.798682651e-22
6.451313683e-21
8.755832954e-20
5.614986872e-19
2.316487381e-18
7.127279562e-18
1.937136473e-17
4.592826016e-17
9.695067222e-17
1.809289306e-16
2.977529456e-16
4.199320628e-16
4.857692837e-16
3.696322295e-16
-1.244790798e-16
-1.251780477e-15
-3.30638785e-15
-6.578591404e-15
-1.132362831e-14
-1.768895747e-14
-2.568772463e-14
-3.52281474e-14
-4.610792945e-14
-5.79441545e-14
-7.038657822e-14
-8.309900296e-14
-9.571227856e-14
-1.07899685e-13
-1.193965683e-13
-1.300467301e-13
-1.397754762e-13
-1.484602479e-13
-1.563199427e-13
-1.631787245e-13
-1.692406999e-13
-1.745227646e-13
-1.789248616e-13
-1.825521184e-13
-1.854006619e-13
-1.876007687e-13
-1.891906131e-13
-1.904867398e-13
-1.914121624e-13
-1.919237049e-13
-1.920894706e-13
-1.917202793e-13
-1.909117753e-13
-1.896635333e-13
-1.881215302e-13
-1.863232155e-13
-1.843529398e-13
-1.821056265e-13
-1.795116435e-13
-1.764840438e-13
-1.732543286e-13
-1.69960698e-13
-1.662718233e-13
-1.624780541e-13
-1.585210274e-13
-1.54264317e-13
-1.498467183e-13
-1.452707094e-13
-1.405331367e-13
-1.356537049e-13
-1.306562233e-13
-1.257483947e-13
-1.207339732e-13
-1.156879681e-13
-1.105119901e-13
-1.052621855e-13
-9.996036329e-14
-9.466508319e-14
-8.940868324e-14
-8.418324001e-14
-7.893496196e-14
-7.368714189e-14
-6.853581956e-14
-6.350269572e-14
-5.85423326e-14
-5.363486375e-14
-4.89077669e-14
-4.433306104e-14
-4.0008253e-14
-3.582094309e-14
-3.178959719e-14
-2.80812442e-14
-2.456669683e-14
-2.128705205e-14
-1.832234668e-14
-1.556340355e-14
-1.309453732e-14
-1.092172671e-14
-9.040888274e-15
-7.385411897e-15
-5.899142865e-15
-4.374018405e-15
-1.071820634e-14
-2.109541469e-14
-4.37159137e-14
-7.569282423e-14
)


101
(
5.921120921e-33
-2.549369455e-22
5.018681042e-21
7.724523712e-20
5.116902907e-19
2.127867839e-18
6.542215419e-18
1.776311447e-17
4.218707171e-17
8.931835768e-17
1.672768066e-16
2.763141682e-16
3.911805536e-16
4.521680569e-16
3.370259602e-16
-1.510781859e-16
-1.278571242e-15
-3.366202235e-15
-6.754504474e-15
-1.176586153e-14
-1.863872534e-14
-2.748077379e-14
-3.827173253e-14
-5.087662682e-14
-6.497280126e-14
-8.018487019e-14
-9.613118143e-14
-1.123994933e-13
-1.285914694e-13
-1.443484659e-13
-1.594012031e-13
-1.735816219e-13
-1.867392181e-13
-1.991734325e-13
-2.105040664e-13
-2.20911264e-13
-2.304835647e-13
-2.391110158e-13
-2.467830055e-13
-2.534645859e-13
-2.59248669e-13
-2.640941576e-13
-2.684654045e-13
-2.723516568e-13
-2.757116893e-13
-2.78635622e-13
-2.807875728e-13
-2.822125355e-13
-2.829217845e-13
-2.831602025e-13
-2.829406862e-13
-2.823885394e-13
-2.814641702e-13
-2.799768415e-13
-2.776729929e-13
-2.751982368e-13
-2.722619069e-13
-2.688089682e-13
-2.649002398e-13
-2.607864052e-13
-2.56164733e-13
-2.510644448e-13
-2.456151418e-13
-2.397339469e-13
-2.335632723e-13
-2.270232477e-13
-2.203374804e-13
-2.135728727e-13
-2.066668899e-13
-1.9945234e-13
-1.919886337e-13
-1.842522369e-13
-1.763965263e-13
-1.684346697e-13
-1.603937189e-13
-1.521780168e-13
-1.438855984e-13
-1.356263914e-13
-1.272628072e-13
-1.189856636e-13
-1.107195552e-13
-1.02522944e-13
-9.447478967e-14
-8.670268752e-14
-7.905255506e-14
-7.147935184e-14
-6.432133673e-14
-5.754220759e-14
-5.104150451e-14
-4.495372125e-14
-3.916489571e-14
-3.389008544e-14
-2.907590482e-14
-2.479055458e-14
-2.095016419e-14
-1.739881402e-14
-1.374992267e-14
-3.05785427e-14
-5.716509305e-14
-1.100892149e-13
-1.832395348e-13
)


101
(
5.918396726e-33
-3.182795349e-22
3.722754619e-21
6.781331286e-20
4.662901412e-19
1.957406163e-18
6.01856409e-18
1.633309694e-17
3.889354902e-17
8.272217828e-17
1.558566503e-16
2.593503639e-16
3.708722347e-16
4.33930842e-16
3.310162793e-16
-1.332698825e-16
-1.233277013e-15
-3.313726374e-15
-6.764922762e-15
-1.198018944e-14
-1.929494066e-14
-2.893221726e-14
-4.096979439e-14
-5.534411595e-14
-7.183597476e-14
-9.008212262e-14
-1.096766647e-13
-1.301775606e-13
-1.511338839e-13
-1.720896641e-13
-1.926532478e-13
-2.125413984e-13
-2.315353429e-13
-2.500249784e-13
-2.67459806e-13
-2.839291219e-13
-2.995167936e-13
-3.14111948e-13
-3.27668023e-13
-3.402065989e-13
-3.516675965e-13
-3.618870058e-13
-3.713582642e-13
-3.802065661e-13
-3.883762766e-13
-3.960103066e-13
-4.027109373e-13
-4.084229216e-13
-4.130815783e-13
-4.170189283e-13
-4.201646329e-13
-4.22725947e-13
-4.247815192e-13
-4.260447613e-13
-4.263116211e-13
-4.260201703e-13
-4.248986004e-13
-4.228589256e-13
-4.200510691e-13
-4.168165642e-13
-4.129048159e-13
-4.08113918e-13
-4.025984893e-13
-3.962314879e-13
-3.891861756e-13
-3.816915834e-13
-3.734539636e-13
-3.649260446e-13
-3.561275661e-13
-3.467168083e-13
-3.36879951e-13
-3.264699926e-13
-3.154512635e-13
-3.040491773e-13
-2.923442491e-13
-2.803411294e-13
-2.679823759e-13
-2.553678781e-13
-2.424850662e-13
-2.294064934e-13
-2.161443084e-13
-2.027784235e-13
-1.894686333e-13
-1.762553477e-13
-1.632202092e-13
-1.500872699e-13
-1.37147857e-13
-1.248408654e-13
-1.128799583e-13
-1.013270641e-13
-9.018704753e-14
-7.986568049e-14
-7.018631653e-14
-6.127061088e-14
-5.320863624e-14
-4.566232509e-14
-3.802627992e-14
-7.773703079e-14
-1.383456712e-13
-2.49172079e-13
-3.959521893e-13
)


101
(
5.916489577e-33
-3.707521952e-22
2.553637812e-21
5.91860669e-20
4.248576693e-19
1.803161246e-18
5.549491454e-18
1.505956265e-17
3.597995061e-17
7.698073567e-17
1.462525955e-16
2.459343623e-16
3.57167189e-16
4.27769119e-16
3.462338589e-16
-7.918338682e-17
-1.127871013e-15
-3.16465859e-15
-6.626597447e-15
-1.197893453e-14
-1.965102007e-14
-2.999766359e-14
-4.322058792e-14
-5.935715881e-14
-7.83099095e-14
-9.977690504e-14
-1.233861526e-13
-1.486885846e-13
-1.752018715e-13
-2.023677152e-13
-2.296685375e-13
-2.567174711e-13
-2.832103908e-13
-3.095333328e-13
-3.349889433e-13
-3.595721767e-13
-3.833062776e-13
-4.060796153e-13
-4.278817544e-13
-4.48895926e-13
-4.688048325e-13
-4.872425521e-13
-5.046468631e-13
-5.212252239e-13
-5.369165761e-13
-5.519962286e-13
-5.661563254e-13
-5.792246164e-13
-5.909358376e-13
-6.016895229e-13
-6.110357932e-13
-6.194174666e-13
-6.272713448e-13
-6.34080251e-13
-6.396277246e-13
-6.437980074e-13
-6.473053235e-13
-6.49071516e-13
-6.498666614e-13
-6.495516156e-13
-6.484715242e-13
-6.458669183e-13
-6.419936008e-13
-6.368048021e-13
-6.304612996e-13
-6.231016109e-13
-6.143949412e-13
-6.048826173e-13
-5.944683285e-13
-5.833607788e-13
-5.714017523e-13
-5.585683146e-13
-5.442959629e-13
-5.290237001e-13
-5.129161382e-13
-4.961183563e-13
-4.786646903e-13
-4.606355593e-13
-4.417099369e-13
-4.221939112e-13
-4.019123765e-13
-3.812909343e-13
-3.602525734e-13
-3.389216341e-13
-3.17812828e-13
-2.963908523e-13
-2.744511111e-13
-2.532106397e-13
-2.324144235e-13
-2.121149569e-13
-1.920389281e-13
-1.731657352e-13
-1.551012757e-13
-1.381838863e-13
-1.225194958e-13
-1.079373659e-13
-9.352487112e-14
-1.780187683e-13
-3.032417327e-13
-5.156804737e-13
-7.975052235e-13
)


101
(
5.91664005e-33
-4.131593548e-22
1.502287273e-21
5.129475631e-20
3.869982422e-19
1.663390111e-18
5.128909985e-18
1.392397763e-17
3.33909685e-17
7.194239886e-17
1.381205192e-16
2.353030735e-16
3.48532908e-16
4.309207272e-16
3.781199753e-16
4.278509803e-18
-9.724324781e-16
-2.932864604e-15
-6.354625895e-15
-1.177593897e-14
-1.970809566e-14
-3.064780365e-14
-4.494384356e-14
-6.278488918e-14
-8.422419892e-14
-1.090517095e-13
-1.369730301e-13
-1.675666998e-13
-2.003591766e-13
-2.347344833e-13
-2.70070076e-13
-3.05851641e-13
-3.416583719e-13
-3.778471143e-13
-4.135482546e-13
-4.48676693e-13
-4.831804695e-13
-5.169527107e-13
-5.500634137e-13
-5.827657417e-13
-6.146244082e-13
-6.450383839e-13
-6.742896726e-13
-7.024550041e-13
-7.2947648e-13
-7.558536585e-13
-7.814216573e-13
-8.059631868e-13
-8.291143326e-13
-8.510751688e-13
-8.709887978e-13
-8.895041287e-13
-9.075374087e-13
-9.241956774e-13
-9.393135641e-13
-9.525584799e-13
-9.648879658e-13
-9.749770528e-13
-9.831213784e-13
-9.895573308e-13
-9.950328468e-13
-9.982908781e-13
-9.991081254e-13
-9.982783969e-13
-9.95916857e-13
-9.910405285e-13
-9.844513737e-13
-9.756693683e-13
-9.656077818e-13
-9.542151509e-13
-9.411430872e-13
-9.267961821e-13
-9.101871123e-13
-8.915518368e-13
-8.70926936e-13
-8.484711949e-13
-8.251663891e-13
-8.004918771e-13
-7.74084311e-13
-7.464660825e-13
-7.167805969e-13
-6.860643048e-13
-6.54389905e-13
-6.216358853e-13
-5.8824386e-13
-5.545630372e-13
-5.197776849e-13
-4.846412477e-13
-4.501788905e-13
-4.164469655e-13
-3.82056038e-13
-3.496004785e-13
-3.174558262e-13
-2.874266703e-13
-2.590979683e-13
-2.329860384e-13
-2.073425445e-13
-3.70924472e-13
-6.081917374e-13
-9.922587722e-13
-1.560453292e-12
)


101
(
5.916790495e-33
-4.462582623e-22
5.604341794e-22
4.407758202e-20
3.523581679e-19
1.536535456e-18
4.751322322e-18
1.291015483e-17
3.108269037e-17
6.748643874e-17
1.311580015e-16
2.268404788e-16
3.436904164e-16
4.409154738e-16
4.22377427e-16
1.104520397e-16
-7.756154565e-16
-2.628203694e-15
-5.957038827e-15
-1.1368071e-14
-1.945311088e-14
-3.085413993e-14
-4.60887303e-14
-6.552336836e-14
-8.941048932e-14
-1.17680405e-13
-1.501358554e-13
-1.864070888e-13
-2.260778162e-13
-2.685733749e-13
-3.13262676e-13
-3.594655183e-13
-4.065063366e-13
-4.547877651e-13
-5.032574326e-13
-5.517735533e-13
-6.001947706e-13
-6.483972408e-13
-6.965604e-13
-7.448917351e-13
-7.930863267e-13
-8.401674539e-13
-8.862647051e-13
-9.312466631e-13
-9.749961167e-13
-1.018074447e-12
-1.060400298e-12
-1.102107462e-12
-1.142546116e-12
-1.181634135e-12
-1.218718588e-12
-1.254039931e-12
-1.288483146e-12
-1.321546537e-12
-1.353032604e-12
-1.382378859e-12
-1.410126658e-12
-1.43547451e-12
-1.457482034e-12
-1.477033131e-12
-1.494556378e-12
-1.509931426e-12
-1.521516365e-12
-1.531059514e-12
-1.537917954e-12
-1.540720579e-12
-1.540702551e-12
-1.537130406e-12
-1.531723248e-12
-1.523080938e-12
-1.511630871e-12
-1.498162277e-12
-1.481265056e-12
-1.46148278e-12
-1.437941469e-12
-1.410035671e-12
-1.380020435e-12
-1.347297135e-12
-1.312859374e-12
-1.275102919e-12
-1.233710406e-12
-1.18980558e-12
-1.143277256e-12
-1.095029883e-12
-1.044714208e-12
-9.926446724e-13
-9.391186911e-13
-8.836954226e-13
-8.280635981e-13
-7.737833637e-13
-7.172149334e-13
-6.634705598e-13
-6.094289858e-13
-5.581952381e-13
-5.098432865e-13
-4.652179098e-13
-4.216903502e-13
-7.190307749e-13
-1.143755226e-12
-1.813160065e-12
-2.651358912e-12
)


101
(
5.916934341e-33
-4.707632966e-22
-2.794824349e-22
3.74789782e-20
3.206199933e-19
1.421199654e-18
4.411827554e-18
1.200407995e-17
2.901871071e-17
6.351471771e-17
1.251069766e-16
2.200543598e-16
3.416172701e-16
4.556781891e-16
4.752599936e-16
2.331673196e-16
-5.454926877e-16
-2.258881448e-15
-5.439612421e-15
-1.074475033e-14
-1.886497536e-14
-3.05804394e-14
-4.660459721e-14
-6.747334699e-14
-9.369083276e-14
-1.254030058e-13
-1.625178372e-13
-2.047527444e-13
-2.518109748e-13
-3.032375525e-13
-3.584776235e-13
-4.167568788e-13
-4.770911305e-13
-5.398803683e-13
-6.039289762e-13
-6.690923634e-13
-7.351144981e-13
-8.017724061e-13
-8.69371483e-13
-9.381710072e-13
-1.007828635e-12
-1.077202918e-12
-1.146445279e-12
-1.214971217e-12
-1.282428513e-12
-1.349435324e-12
-1.416059624e-12
-1.482900834e-12
-1.54848933e-12
-1.613096489e-12
-1.676531495e-12
-1.738185145e-12
-1.798136185e-12
-1.857329435e-12
-1.914769321e-12
-1.969480881e-12
-2.0230434e-12
-2.07406569e-12
-2.120603068e-12
-2.163165335e-12
-2.20271432e-12
-2.239875191e-12
-2.272931597e-12
-2.303021856e-12
-2.327426688e-12
-2.348334475e-12
-2.363379793e-12
-2.373097172e-12
-2.37894872e-12
-2.379498214e-12
-2.37630239e-12
-2.368762116e-12
-2.356472508e-12
-2.339852051e-12
-2.317435319e-12
-2.28738386e-12
-2.250281411e-12
-2.210397473e-12
-2.166358263e-12
-2.117155157e-12
-2.063039377e-12
-2.00274359e-12
-1.935526421e-12
-1.866182392e-12
-1.792660528e-12
-1.714931824e-12
-1.633296466e-12
-1.548931634e-12
-1.460944192e-12
-1.374957502e-12
-1.285396308e-12
-1.197755539e-12
-1.110786544e-12
-1.025910121e-12
-9.46043443e-13
-8.729336552e-13
-8.032414603e-13
-1.32106318e-12
-2.055006372e-12
-3.211351889e-12
-4.660627063e-12
)


101
(
5.917082593e-33
-4.873580776e-22
-1.023555814e-21
3.144909068e-20
2.915005418e-19
1.316126089e-18
4.106042905e-18
1.119347552e-17
2.717056438e-17
5.99521528e-17
1.197632976e-16
2.145231632e-16
3.414791598e-16
4.735594237e-16
5.33822934e-16
3.673580354e-16
-2.89845295e-16
-1.83545986e-15
-4.816805697e-15
-9.917473427e-15
-1.795066928e-14
-2.98174035e-14
-4.644453289e-14
-6.853239128e-14
-9.685871894e-14
-1.318744205e-13
-1.736477359e-13
-2.220319279e-13
-2.769143284e-13
-3.380012148e-13
-4.048022136e-13
-4.765903878e-13
-5.522846067e-13
-6.321225541e-13
-7.148056703e-13
-8.002767548e-13
-8.881465223e-13
-9.779305034e-13
-1.069923648e-12
-1.164619341e-12
-1.26170177e-12
-1.360207834e-12
-1.460096812e-12
-1.560364261e-12
-1.660316942e-12
-1.760668644e-12
-1.861592394e-12
-1.963842806e-12
-2.065652408e-12
-2.167509216e-12
-2.269277084e-12
-2.370175534e-12
-2.469194831e-12
-2.568050341e-12
-2.665625062e-12
-2.759849417e-12
-2.853958145e-12
-2.94538078e-12
-3.032593771e-12
-3.114181965e-12
-3.191882514e-12
-3.265974941e-12
-3.336997909e-12
-3.403347297e-12
-3.461360182e-12
-3.516161578e-12
-3.560856479e-12
-3.597924574e-12
-3.627829998e-12
-3.651808283e-12
-3.66880683e-12
-3.677160981e-12
-3.67919357e-12
-3.673777397e-12
-3.659404985e-12
-3.635036272e-12
-3.598866497e-12
-3.553075905e-12
-3.499358999e-12
-3.439279195e-12
-3.372391732e-12
-3.29170383e-12
-3.200076183e-12
-3.101470657e-12
-2.995625144e-12
-2.88250421e-12
-2.759186006e-12
-2.632503502e-12
-2.496671092e-12
-2.362113487e-12
-2.224291379e-12
-2.083297473e-12
-1.945027935e-12
-1.808637836e-12
-1.67822508e-12
-1.561632095e-12
-1.453094812e-12
-2.335959799e-12
-3.586602546e-12
-5.603277616e-12
-8.371355366e-12
)


101
(
5.917235253e-33
-4.966922934e-22
-1.67900003e-21
2.594315689e-20
2.647467286e-19
1.220190988e-18
3.830032142e-18
1.046724839e-17
2.551650043e-17
5.675095541e-17
1.149644821e-16
2.098748965e-16
3.42545179e-16
4.932660459e-16
5.96087929e-16
5.102014788e-16
-1.324970253e-17
-1.365567314e-15
-4.103151721e-15