/*--------------------------------*- C++ -*----------------------------------*\
| =========                 |                                                 |
| \\      /  F ield         | OpenFOAM: The Open Source CFD Toolbox           |
|  \\    /   O peration     | Version:  2.3.1                                 |
|   \\  /    A nd           | Web:      www.OpenFOAM.org                      |
|    \\/     M anipulation  |                                                 |
\*---------------------------------------------------------------------------*/
FoamFile
{
    version     2.0;
    format      ascii;
    class       dictionary;
    location    "constant";
    object      DPSI44;
}
// * * * * * * * * * * * * * * * * * * * * * * * * * * * * * * * * * * * * * //

DPSI44_table
101
(

101
(
1.433388681e-26
4.441244857e-20
1.309937691e-18
8.097477649e-18
2.579843549e-17
5.787038496e-17
1.057870282e-16
1.72104987e-16
2.567577461e-16
3.605239127e-16
4.836158747e-16
6.268325634e-16
7.904986798e-16
9.757618783e-16
1.18271917e-15
1.411593131e-15
1.661928302e-15
1.930475832e-15
2.221598616e-15
2.520274269e-15
2.834088844e-15
3.159729856e-15
3.474790952e-15
3.776739592e-15
4.056295721e-15
4.296989894e-15
4.482135774e-15
4.596800505e-15
4.616075233e-15
4.531525582e-15
4.330720578e-15
4.018969014e-15
3.641494354e-15
3.05829078e-15
2.433305544e-15
1.748050591e-15
1.503452735e-14
3.835749117e-14
3.600116175e-14
3.376859166e-14
3.142463399e-14
2.902138022e-14
2.645795689e-14
2.38308771e-14
2.123121472e-14
1.864353249e-14
1.614155354e-14
1.374184539e-14
1.147598301e-14
9.362937972e-15
7.422937225e-15
5.655146633e-15
4.061749318e-15
2.652697014e-15
1.409984449e-15
3.056924205e-16
-6.653176722e-16
-1.518353738e-15
-2.269454746e-15
-2.932753083e-15
-3.516224297e-15
-4.043751409e-15
-4.518157862e-15
-4.94696468e-15
-5.335176886e-15
-5.707942787e-15
-6.053506678e-15
-6.375105789e-15
-6.676706925e-15
-6.957147735e-15
-7.215480247e-15
-7.452430591e-15
-7.665478694e-15
-7.843332672e-15
-5.029876248e-15
-3.311716057e-15
-4.047026345e-15
-4.675296375e-15
-5.202504886e-15
-5.630327215e-15
-5.96497923e-15
-6.203273459e-15
-6.355496581e-15
-4.074816846e-15
-2.647254845e-15
-3.486307777e-15
-4.065718353e-15
-4.418081655e-15
-4.567716384e-15
-2.411443806e-15
-2.75100697e-15
-3.179807537e-15
-3.217431603e-15
-2.371696969e-15
-1.860730804e-15
-1.638527733e-15
-1.023490316e-15
-5.118364919e-15
-2.020454367e-14
-6.642594633e-14
-1.74677291e-13
)


101
(
1.43342461e-26
3.044836773e-20
7.330372441e-19
4.14510095e-18
1.251636808e-17
2.697148388e-17
4.76240058e-17
7.503865033e-17
1.083741314e-16
1.470754177e-16
1.900972746e-16
2.364153653e-16
2.845765347e-16
3.326505201e-16
3.782034239e-16
4.181993124e-16
4.482519596e-16
4.61032141e-16
4.563777249e-16
4.145360505e-16
3.366825804e-16
2.149198051e-16
2.152681667e-17
-2.521964236e-16
-6.187169744e-16
-1.095926592e-15
-1.700293788e-15
-2.444114511e-15
-3.347193418e-15
-4.410900304e-15
-5.63952232e-15
-7.018568295e-15
-8.488754195e-15
-1.018969046e-14
-1.191563332e-14
-1.367104525e-14
-8.239146094e-15
2.19767282e-15
-1.07354895e-15
-4.129362278e-15
-6.962660267e-15
-9.561096749e-15
-1.21562197e-14
-1.469599429e-14
-1.708313827e-14
-1.938492691e-14
-2.151961698e-14
-2.350092869e-14
-2.528770516e-14
-2.689342763e-14
-2.828725845e-14
-2.949141466e-14
-3.051939298e-14
-3.136650502e-14
-3.203689895e-14
-3.256401908e-14
-3.300283153e-14
-3.332079799e-14
-3.35952177e-14
-3.3805889e-14
-3.399452771e-14
-3.416081534e-14
-3.430440737e-14
-3.445268666e-14
-3.461093483e-14
-3.47961125e-14
-3.498503178e-14
-3.518476002e-14
-3.540898701e-14
-3.562528188e-14
-3.584511545e-14
-3.604836469e-14
-3.626185245e-14
-3.642802567e-14
-3.492855121e-14
-3.396097121e-14
-3.427331181e-14
-3.447452788e-14
-3.455856054e-14
-3.450805632e-14
-3.43131031e-14
-3.396062283e-14
-3.344280609e-14
-3.146874e-14
-2.980346373e-14
-2.922768144e-14
-2.839980663e-14
-2.733953575e-14
-2.602987397e-14
-2.332220378e-14
-2.180938906e-14
-2.019030778e-14
-1.825947225e-14
-1.570717543e-14
-1.316501881e-14
-1.057818607e-14
-7.53788536e-15
-2.805397557e-14
-8.747269141e-14
-2.418924033e-13
-5.353565301e-13
)


101
(
1.433460542e-26
1.36725657e-20
9.243973199e-20
-6.878393907e-20
-1.382864563e-18
-5.11035516e-18
-1.26478272e-17
-2.5710829e-17
-4.629729584e-17
-7.682829931e-17
-1.203041939e-16
-1.805033052e-16
-2.618273091e-16
-3.709955547e-16
-5.150420386e-16
-7.029421172e-16
-9.466221656e-16
-1.262413841e-15
-1.659744068e-15
-2.172202358e-15
-2.81273708e-15
-3.603374118e-15
-4.592965306e-15
-5.811394144e-15
-7.290973473e-15
-9.070567242e-15
-1.118764379e-14
-1.367325326e-14
-1.656764528e-14
-1.988578656e-14
-2.364544378e-14
-2.783988371e-14
-3.23862657e-14
-3.752007386e-14
-4.290843126e-14
-4.838644605e-14
-5.452244677e-14
-6.132038332e-14
-6.926296853e-14
-7.75990545e-14
-8.556186087e-14
-9.28742921e-14
-1.000322771e-13
-1.070610352e-13
-1.138190699e-13
-1.205227849e-13
-1.269801591e-13
-1.332757844e-13
-1.392166502e-13
-1.448879375e-13
-1.501099704e-13
-1.549502946e-13
-1.59422488e-13
-1.634811212e-13
-1.670792734e-13
-1.702966306e-13
-1.731338267e-13
-1.754661188e-13
-1.775857334e-13
-1.793058302e-13
-1.80847113e-13
-1.821491263e-13
-1.831879271e-13
-1.840686615e-13
-1.848073551e-13
-1.854017469e-13
-1.85878096e-13
-1.86148971e-13
-1.865544075e-13
-1.868775807e-13
-1.871509278e-13
-1.872827832e-13
-1.875353844e-13
-1.877029696e-13
-1.876967289e-13
-1.87480064e-13
-1.870573601e-13
-1.863848462e-13
-1.855135348e-13
-1.843887339e-13
-1.829070296e-13
-1.808844514e-13
-1.782971579e-13
-1.75039277e-13
-1.71006073e-13
-1.661156663e-13
-1.603842319e-13
-1.539942077e-13
-1.468201617e-13
-1.388298252e-13
-1.298411366e-13
-1.199586068e-13
-1.092195143e-13
-9.778179402e-14
-8.542415399e-14
-7.166833037e-14
-5.628798499e-14
-1.679468796e-13
-4.406304272e-13
-1.105371881e-12
-2.256075284e-12
)


101
(
1.433496473e-26
1.024061694e-20
2.441566148e-20
-3.280051952e-19
-1.973674643e-18
-6.262424431e-18
-1.484382942e-17
-2.99020042e-17
-5.413550349e-17
-9.097064113e-17
-1.448114462e-16
-2.213692261e-16
-3.276113245e-16
-4.739858022e-16
-6.723749288e-16
-9.381377495e-16
-1.291947259e-15
-1.762385764e-15
-2.371730062e-15
-3.176595529e-15
-4.212109026e-15
-5.527789208e-15
-7.21642335e-15
-9.353395647e-15
-1.202412652e-14
-1.533083169e-14
-1.938305969e-14
-2.428991418e-14
-3.018618877e-14
-3.717548243e-14
-4.53682418e-14
-5.485514351e-14
-6.556853272e-14
-7.808809592e-14
-9.195290995e-14
-1.070231196e-13
-1.236067456e-13
-1.421304444e-13
-1.635677114e-13
-1.877243521e-13
-2.132874966e-13
-2.389811547e-13
-2.654491549e-13
-2.927004058e-13
-3.204793834e-13
-3.493890417e-13
-3.789354446e-13
-4.093494315e-13
-4.400012444e-13
-4.71177084e-13
-5.020943407e-13
-5.327460607e-13
-5.630067406e-13
-5.927692612e-13
-6.21565686e-13
-6.491133605e-13
-6.760358767e-13
-7.009311785e-13
-7.248250163e-13
-7.459569225e-13
-7.657147928e-13
-7.839342524e-13
-7.997851166e-13
-8.141346588e-13
-8.267678563e-13
-8.360814244e-13
-8.433536198e-13
-8.481761888e-13
-8.515567e-13
-8.538905114e-13
-8.525089647e-13
-8.495396766e-13
-8.453877971e-13
-8.405935429e-13
-8.339395303e-13
-8.258254259e-13
-8.151523876e-13
-8.041627423e-13
-7.920282819e-13
-7.797276934e-13
-7.675436929e-13
-7.532949391e-13
-7.381224976e-13
-7.216929283e-13
-7.033891589e-13
-6.82482219e-13
-6.590903677e-13
-6.339396744e-13
-6.067557572e-13
-5.771346785e-13
-5.441453278e-13
-5.085748769e-13
-4.699635325e-13
-4.289005414e-13
-3.852375943e-13
-3.355272995e-13
-2.786171311e-13
-7.370861083e-13
-1.736634244e-12
-4.156344377e-12
-7.389959391e-12
)


101
(
1.433532538e-26
9.408053656e-21
1.874219092e-20
-3.418842119e-19
-2.051980258e-18
-6.630799455e-18
-1.6054053e-17
-3.304771221e-17
-6.116044143e-17
-1.050679689e-16
-1.709916814e-16
-2.672228109e-16
-4.042855485e-16
-5.978412899e-16
-8.66841527e-16
-1.23625441e-15
-1.740137949e-15
-2.426104326e-15
-3.338234683e-15
-4.570067507e-15
-6.196020244e-15
-8.316868044e-15
-1.110277315e-14
-1.471575093e-14
-1.934867729e-14
-2.523570261e-14
-3.264215262e-14
-4.185737742e-14
-5.32387688e-14
-6.712415709e-14
-8.389189451e-14
-1.038894145e-13
-1.272523043e-13
-1.553297384e-13
-1.877080179e-13
-2.246806058e-13
-2.660674172e-13
-3.129906882e-13
-3.673895586e-13
-4.304982951e-13
-5.013783897e-13
-5.77618778e-13
-6.601051982e-13
-7.488459762e-13
-8.434137275e-13
-9.455439446e-13
-1.0547464e-12
-1.172490546e-12
-1.297806345e-12
-1.431729734e-12
-1.572202983e-12
-1.71886246e-12
-1.871391997e-12
-2.030644321e-12
-2.195847012e-12
-2.363158414e-12
-2.535063118e-12
-2.707952424e-12
-2.887445578e-12
-3.058030118e-12
-3.220888864e-12
-3.388165696e-12
-3.540368742e-12
-3.688745228e-12
-3.833901181e-12
-3.9592172e-12
-4.068999996e-12
-4.160273503e-12
-4.224210403e-12
-4.295905351e-12
-4.326347929e-12
-4.334891225e-12
-4.317716837e-12
-4.289603721e-12
-4.238398347e-12
-4.166734824e-12
-4.075505339e-12
-3.967303031e-12
-3.82864821e-12
-3.68699406e-12
-3.544169098e-12
-3.407606637e-12
-3.251968675e-12
-3.100639296e-12
-2.94379782e-12
-2.786529044e-12
-2.618175287e-12
-2.459859028e-12
-2.305315942e-12
-2.157947332e-12
-2.007249935e-12
-1.854394312e-12
-1.706970238e-12
-1.558015438e-12
-1.410908979e-12
-1.24601012e-12
-1.063008946e-12
-2.782261592e-12
-6.1025433e-12
-1.604569167e-11
-2.886228867e-11
)


101
(
1.433568339e-26
9.134649044e-21
2.017980736e-20
-3.390348978e-19
-2.10777673e-18
-6.985698461e-18
-1.730850234e-17
-3.642441576e-17
-6.889611568e-17
-1.209435146e-16
-2.011070888e-16
-3.21067678e-16
-4.961622038e-16
-7.492256043e-16
-1.109225855e-15
-1.615138341e-15
-2.320898643e-15
-3.302745388e-15
-4.639710335e-15
-6.482840802e-15
-8.972056492e-15
-1.229696446e-14
-1.675932847e-14
-2.267572986e-14
-3.043868157e-14
-4.053640986e-14
-5.354347333e-14
-7.012150475e-14
-9.109944955e-14
-1.173477708e-13
-1.498819788e-13
-1.897111499e-13
-2.375879357e-13
-2.965155646e-13
-3.667170589e-13
-4.496299724e-13
-5.460482415e-13
-6.576213201e-13
-7.886438733e-13
-9.44144824e-13
-1.12608841e-12
-1.332686303e-12
-1.567624025e-12
-1.83331171e-12
-2.130647298e-12
-2.465470181e-12
-2.840150361e-12
-3.264856086e-12
-3.742526706e-12
-4.276889366e-12
-4.870287594e-12
-5.515881755e-12
-6.216062594e-12
-6.977115526e-12
-7.812274143e-12
-8.690872596e-12
-9.612685629e-12
-1.058823213e-11
-1.161787184e-11
-1.265453378e-11
-1.370212827e-11
-1.479010193e-11
-1.584195604e-11
-1.685350242e-11
-1.786655041e-11
-1.882348482e-11
-1.96993938e-11
-2.049405746e-11
-2.11478301e-11
-2.173971523e-11
-2.220515521e-11
-2.254167791e-11
-2.271566018e-11
-2.276563887e-11
-2.265837743e-11
-2.23905826e-11
-2.202161194e-11
-2.148126815e-11
-2.074478701e-11
-1.989825445e-11
-1.896017175e-11
-1.806023377e-11
-1.704295157e-11
-1.598974178e-11
-1.492459607e-11
-1.382073684e-11
-1.266840167e-11
-1.151981995e-11
-1.045767527e-11
-9.504312525e-12
-8.540230185e-12
-7.597886081e-12
-6.770444655e-12
-5.98599818e-12
-5.299532047e-12
-4.530299662e-12
-3.742894131e-12
-1.135205731e-11
-2.398502244e-11
-5.659725163e-11
-9.415600835e-11
)


101
(
1.433604266e-26
8.982974179e-21
2.247290878e-20
-3.34291866e-19
-2.160998148e-18
-7.348153589e-18
-1.862879941e-17
-4.006282097e-17
-7.741186666e-17
-1.387816937e-16
-2.356307126e-16
-3.840179131e-16
-6.056708392e-16
-9.331020151e-16
-1.409152932e-15
-2.092671836e-15
-3.066324841e-15
-4.448273181e-15
-6.371182954e-15
-9.073238102e-15
-1.279865791e-14
-1.788264913e-14
-2.484271079e-14
-3.425771618e-14
-4.686845741e-14
-6.362203273e-14
-8.567026315e-14
-1.143899726e-13
-1.515352702e-13
-1.990823987e-13
-2.594149144e-13
-3.35118638e-13
-4.285346234e-13
-5.461134755e-13
-6.904827496e-13
-8.668486319e-13
-1.079712358e-12
-1.334463399e-12
-1.642294751e-12
-2.018278735e-12
-2.475394429e-12
-3.02018494e-12
-3.672343631e-12
-4.447832916e-12
-5.358712943e-12
-6.427306731e-12
-7.66534191e-12
-9.109894896e-12
-1.078920617e-11
-1.271698728e-11
-1.491780867e-11
-1.734952974e-11
-2.004250818e-11
-2.300981277e-11
-2.62770585e-11
-2.977218698e-11
-3.349641657e-11
-3.741025831e-11
-4.153274097e-11
-4.572226954e-11
-4.997634735e-11
-5.437336467e-11
-5.873584946e-11
-6.302181108e-11
-6.721638957e-11
-7.125953512e-11
-7.498743848e-11
-7.854731839e-11
-8.167918121e-11
-8.446576149e-11
-8.690135753e-11
-8.877726309e-11
-9.010560657e-11
-9.089206622e-11
-9.118083372e-11
-9.080050917e-11
-8.998199928e-11
-8.857400436e-11
-8.657995336e-11
-8.396841032e-11
-8.069879499e-11
-7.715292647e-11
-7.345715488e-11
-6.931813995e-11
-6.51151753e-11
-6.067304992e-11
-5.590214064e-11
-5.095014854e-11
-4.620362841e-11
-4.17620984e-11
-3.748391983e-11
-3.297892995e-11
-2.907267406e-11
-2.541957255e-11
-2.2106957e-11
-1.859319485e-11
-1.464502468e-11
-4.247780971e-11
-8.11928742e-11
-1.600395909e-10
-2.443350297e-10
)


101
(
1.433640197e-26
8.852523731e-21
2.488782277e-20
-3.286350157e-19
-2.2122497e-18
-7.718129705e-18
-2.001614432e-17
-4.397510357e-17
-8.676110622e-17
-1.587598452e-16
-2.750556007e-16
-4.572816417e-16
-7.355102564e-16
-1.155090863e-15
-1.777695607e-15
-2.689739478e-15
-4.0144325e-15
-5.929887454e-15
-8.648361695e-15
-1.253655129e-14
-1.799906209e-14
-2.55997131e-14
-3.619638361e-14
-5.079691109e-14
-7.07205209e-14
-9.770016396e-14
-1.339157471e-13
-1.820584103e-13
-2.456181181e-13
-3.287524514e-13
-4.366842995e-13
-5.755346432e-13
-7.516778294e-13
-9.790051416e-13
-1.267612491e-12
-1.633406548e-12
-2.092966681e-12
-2.666442124e-12
-3.38835136e-12
-4.300004671e-12
-5.448263984e-12
-6.872679406e-12
-8.630608384e-12
-1.077681292e-11
-1.33597486e-11
-1.644856729e-11
-2.007617284e-11
-2.432049186e-11
-2.927983534e-11
-3.495534495e-11
-4.13480492e-11
-4.842899816e-11
-5.626358878e-11
-6.473470537e-11
-7.400066098e-11
-8.396351051e-11
-9.441446586e-11
-1.052694201e-10
-1.166023764e-10
-1.281182948e-10
-1.397530269e-10
-1.515880948e-10
-1.631985834e-10
-1.747467998e-10
-1.860138935e-10
-1.96994655e-10
-2.07352013e-10
-2.170310479e-10
-2.257902255e-10
-2.333211936e-10
-2.400987253e-10
-2.455922477e-10
-2.502811508e-10
-2.536514624e-10
-2.555351183e-10
-2.559514389e-10
-2.550562139e-10
-2.527575947e-10
-2.491214031e-10
-2.438965432e-10
-2.372249872e-10
-2.289680483e-10
-2.203641499e-10
-2.103961458e-10
-2.000809867e-10
-1.885935675e-10
-1.766770704e-10
-1.635954867e-10
-1.505725552e-10
-1.377887429e-10
-1.253038222e-10
-1.120660564e-10
-1.002717667e-10
-8.911312504e-11
-7.835399407e-11
-6.743550965e-11
-5.254985264e-11
-1.226993039e-10
-2.07870081e-10
-3.50102242e-10
-4.991657981e-10
)


101
(
1.433676394e-26
8.719344567e-21
2.733309075e-20
-3.221072605e-19
-2.261247884e-18
-8.094706587e-18
-2.147065773e-17
-4.817233298e-17
-9.699664152e-17
-1.810597837e-16
-3.199028319e-16
-5.421684736e-16
-8.886633392e-16
-1.421515519e-15
-2.22750389e-15
-3.430543951e-15
-5.209901829e-15
-7.827635859e-15
-1.161083955e-14
-1.711163448e-14
-2.497375833e-14
-3.610735333e-14
-5.188904653e-14
-7.40110558e-14
-1.04716918e-13
-1.470373264e-13
-2.049162295e-13
-2.833868588e-13
-3.891299604e-13
-5.305321062e-13
-7.186561492e-13
-9.676004077e-13
-1.293953665e-12
-1.728212197e-12
-2.300108232e-12
-3.053705954e-12
-4.039310928e-12
-5.318737069e-12
-6.98802883e-12
-9.14209511e-12
-1.189509431e-11
-1.534601301e-11
-1.963034019e-11
-2.486019808e-11
-3.114215029e-11
-3.861849007e-11
-4.734412499e-11
-5.744941133e-11
-6.902236551e-11
-8.202022079e-11
-9.642189496e-11
-1.12250511e-10
-1.294481353e-10
-1.478023292e-10
-1.674576305e-10
-1.881501413e-10
-2.098300989e-10
-2.318405575e-10
-2.546378019e-10
-2.777673411e-10
-3.008549655e-10
-3.240990758e-10
-3.467827853e-10
-3.691528671e-10
-3.909156271e-10
-4.119236444e-10
-4.319846142e-10
-4.504514923e-10
-4.673947775e-10
-4.824095069e-10
-4.958312726e-10
-5.073034129e-10
-5.167935582e-10
-5.242755848e-10
-5.294139745e-10
-5.322509672e-10
-5.322888781e-10
-5.299051176e-10
-5.254317767e-10
-5.180607363e-10
-5.079205511e-10
-4.952288777e-10
-4.806037391e-10
-4.642614675e-10
-4.460017517e-10
-4.256215239e-10
-4.045404271e-10
-3.807567048e-10
-3.560989717e-10
-3.310369916e-10
-3.056984751e-10
-2.797319171e-10
-2.548220297e-10
-2.309495131e-10
-2.070569822e-10
-1.818868742e-10
-1.486973259e-10
-2.765888226e-10
-4.174833266e-10
-6.118592775e-10
-8.077851981e-10
)


101
(
1.433712324e-26
8.577571103e-21
2.979260347e-20
-3.146966e-19
-2.307703552e-18
-8.476878392e-18
-2.29917945e-17
-5.266381881e-17
-1.081716992e-16
-2.058710971e-16
-3.70725009e-16
-6.400868562e-16
-1.068392666e-15
-1.739402818e-15
-2.772859055e-15
-4.342809625e-15
-6.704614508e-15
-1.023570734e-14
-1.542491482e-14
-2.308624961e-14
-3.421163394e-14
-5.022288346e-14
-7.326828918e-14
-1.060996709e-13
-1.524113185e-13
-2.173359723e-13
-3.077865431e-13
-4.329156807e-13
-6.052694338e-13
-8.415374821e-13
-1.164770832e-12
-1.606293808e-12
-2.206447642e-12
-3.032584598e-12
-4.157670443e-12
-5.686521988e-12
-7.742934493e-12
-1.047235558e-11
-1.407158427e-11
-1.871733143e-11
-2.462027773e-11
-3.193784062e-11
-4.091403471e-11
-5.169641279e-11
-6.443832287e-11
-7.934340966e-11
-9.641892561e-11
-1.157840534e-10
-1.373749614e-10
-1.611714454e-10
-1.871088769e-10
-2.151972232e-10
-2.451748883e-10
-2.767910087e-10
-3.095640874e-10
-3.436435043e-10
-3.792096937e-10
-4.14964879e-10
-4.513555739e-10
-4.880054444e-10
-5.242534111e-10
-5.601343916e-10
-5.954513967e-10
-6.297278508e-10
-6.626772104e-10
-6.940378813e-10
-7.24317824e-10
-7.523391504e-10
-7.783392277e-10
-8.018005296e-10
-8.22524008e-10
-8.4060932e-10
-8.555971738e-10
-8.677519121e-10
-8.770239838e-10
-8.828935333e-10
-8.849814653e-10
-8.838448355e-10
-8.795704669e-10
-8.717073085e-10
-8.596541037e-10
-8.443381658e-10
-8.251022502e-10
-8.03692455e-10
-7.788190696e-10
-7.507557647e-10
-7.208007223e-10
-6.877230675e-10
-6.518099781e-10
-6.153786597e-10
-5.764422939e-10
-5.372958229e-10
-4.978365261e-10
-4.592968899e-10
-4.207900317e-10
-3.762807261e-10
-3.195392365e-10
-5.045025466e-10
-6.915506037e-10
-8.939510604e-10
-1.076501759e-09
)


101
(
1.433721695e-26
8.425729895e-21
3.225991807e-20
-3.06380641e-19
-2.351309767e-18
-8.863571715e-18
-2.457872928e-17
-5.745805864e-17
-1.203390127e-16
-2.333913635e-16
-4.281066062e-16
-7.525497015e-16
-1.278255002e-15
-2.116530606e-15
-3.429809461e-15
-5.458127996e-15
-8.558352297e-15
-1.326389631e-14
-2.028694187e-14
-3.080463261e-14
-4.630700844e-14
-6.895826626e-14
-1.020444719e-13
-1.499144737e-13
-2.185623092e-13
-3.164921144e-13
-4.555452299e-13
-6.52160588e-13
-9.297849179e-13
-1.321283511e-12
-1.873391558e-12
-2.651365797e-12
-3.742426083e-12
-5.286652291e-12
-7.43384737e-12
-1.038913731e-11
-1.439141479e-11
-1.970329021e-11
-2.663490232e-11
-3.544713726e-11
-4.64479133e-11
-5.9819413e-11
-7.587334593e-11
-9.476424126e-11
-1.166221602e-10
-1.416116759e-10
-1.695515675e-10
-2.004571183e-10
-2.341854812e-10
-2.707162566e-10
-3.097912245e-10
-3.512981857e-10
-3.949880465e-10
-4.403852568e-10
-4.865900301e-10
-5.3443856e-10
-5.831682083e-10
-6.322889103e-10
-6.812039873e-10
-7.301848312e-10
-7.784801121e-10
-8.254813688e-10
-8.715222038e-10
-9.158260466e-10
-9.583033686e-10
-9.984303934e-10
-1.036584013e-09
-1.072544259e-09
-1.105925773e-09
-1.136096628e-09
-1.162749883e-09
-1.186010398e-09
-1.205940451e-09
-1.222176239e-09
-1.234778517e-09
-1.243241867e-09
-1.247715096e-09
-1.24836408e-09
-1.244473153e-09
-1.237127873e-09
-1.225511594e-09
-1.209207866e-09
-1.188391483e-09
-1.163998259e-09
-1.135656678e-09
-1.103112125e-09
-1.067105768e-09
-1.028885633e-09
-9.86176645e-10
-9.415433595e-10
-8.936743055e-10
-8.446786501e-10
-7.939446071e-10
-7.437342062e-10
-6.944672859e-10
-6.346806237e-10
-5.575041553e-10
-7.672934394e-10
-9.627129282e-10
-1.123543638e-09
-1.246500276e-09
)


101
(
1.43366612e-26
8.26344672e-21
3.472922018e-20
-2.971345832e-19
-2.391707077e-18
-9.253489798e-18
-2.623014418e-17
-6.256289305e-17
-1.335487576e-16
-2.638166423e-16
-4.926557039e-16
-8.811703727e-16
-1.522118273e-15
-2.561507211e-15
-4.216378766e-15
-6.81239756e-15
-1.083973063e-14
-1.703931848e-14
-2.642701927e-14
-4.067753456e-14
-6.198175044e-14
-9.356744081e-14
-1.403806714e-13
-2.091367691e-13
-3.094250449e-13
-4.552162405e-13
-6.667056123e-13
-9.732022102e-13
-1.417975206e-12
-2.063449471e-12
-2.998809513e-12
-4.348219374e-12
-6.276589038e-12
-9.038428617e-12
-1.28921676e-11
-1.817052104e-11
-2.523949776e-11
-3.446727792e-11
-4.624703332e-11
-6.092746248e-11
-7.883381039e-11
-1.00121414e-10
-1.25065048e-10
-1.537675747e-10
-1.862326236e-10
-2.225160652e-10
-2.62264054e-10
-3.052998505e-10
-3.513414125e-10
-4.003541516e-10
-4.518535201e-10
-5.055632748e-10
-5.612626516e-10
-6.184364237e-10
-6.764170084e-10
-7.352514039e-10
-7.942291283e-10
-8.532241213e-10
-9.114561436e-10
-9.690810514e-10
-1.025780043e-09
-1.0805721e-09
-1.133509566e-09
-1.184126049e-09
-1.232420893e-09
-1.27819599e-09
-1.320623016e-09
-1.360516266e-09
-1.397410702e-09
-1.430866353e-09
-1.460538991e-09
-1.486334926e-09
-1.508125591e-09
-1.525896419e-09
-1.53972256e-09
-1.549509258e-09
-1.55496864e-09
-1.556116421e-09
-1.552576332e-09
-1.545217546e-09
-1.534034471e-09
-1.517888278e-09
-1.497197807e-09
-1.472056451e-09
-1.442898102e-09
-1.409833405e-09
-1.371853942e-09
-1.33199606e-09
-1.288246435e-09
-1.239947616e-09
-1.189408627e-09
-1.137069718e-09
-1.082113386e-09
-1.026320009e-09
-9.724660089e-10
-9.069749343e-10
-8.220991802e-10
-1.007636605e-09
-1.158268416e-09
-1.226402587e-09
-1.253330064e-09
)


101
(
1.433636574e-26
8.090617684e-21
3.719371744e-20
-2.869392477e-19
-2.428545136e-18
-9.645205916e-18
-2.794373818e-17
-6.798377898e-17
-1.478527156e-16
-2.973508197e-16
-5.649977151e-16
-1.02765252e-15
-1.804134945e-15
-3.083687557e-15
-5.152434629e-15
-8.445786797e-15
-1.362711296e-14
-2.170990921e-14
-3.411735024e-14
-5.319741337e-14
-8.211050137e-14
-1.255919134e-13
-1.90988297e-13
-2.88564615e-13
-4.335048298e-13
-6.486314039e-13
-9.682917619e-13
-1.443844602e-12
-2.152304778e-12
-3.204207399e-12
-4.754222087e-12
-7.01375488e-12
-1.025641466e-11
-1.487829418e-11
-2.125080554e-11
-2.982899204e-11
-4.107571601e-11
-5.541451374e-11
-7.326144813e-11
-9.5045087e-11
-1.209858928e-10
-1.511281446e-10
-1.85628608e-10
-2.244632638e-10
-2.674220693e-10
-3.14449318e-10
-3.651637207e-10
-4.191662416e-10
-4.759544165e-10
-5.354378726e-10
-5.967977581e-10
-6.597654093e-10
-7.242141419e-10
-7.896140482e-10
-8.554673772e-10
-9.207861341e-10
-9.860645319e-10
-1.050398164e-09
-1.113722632e-09
-1.175218619e-09
-1.235312741e-09
-1.293018071e-09
-1.348186806e-09
-1.400499062e-09
-1.449814639e-09
-1.49621267e-09
-1.538861532e-09
-1.577983577e-09
-1.613618218e-09
-1.645721857e-09
-1.673904156e-09
-1.69799548e-09
-1.717817146e-09
-1.733451233e-09
-1.745069344e-09
-1.752834063e-09
-1.756268457e-09
-1.755314711e-09
-1.750227442e-09
-1.741059792e-09
-1.728467161e-09
-1.711766642e-09
-1.690784629e-09
-1.665601637e-09
-1.636730246e-09
-1.604914816e-09
-1.568283974e-09
-1.529056635e-09
-1.487635485e-09
-1.441910644e-09
-1.393520265e-09
-1.343805106e-09
-1.292326929e-09
-1.238626074e-09
-1.187137356e-09
-1.124687178e-09
-1.044914074e-09
-1.158336204e-09
-1.215091742e-09
-1.149466244e-09
-1.034917472e-09
)


101
(
1.433673035e-26
7.907220197e-21
3.964765815e-20
-2.757752707e-19
-2.461462803e-18
-1.00372266e-17
-2.971672338e-17
-7.372452842e-17
-1.633001004e-16
-3.342019933e-16
-6.457653062e-16
-1.193800784e-15
-2.128757547e-15
-3.6931817e-15
-6.259711035e-15
-1.040293551e-14
-1.700964566e-14
-2.744867031e-14
-4.368412496e-14
-6.89805441e-14
-1.078031405e-13
-1.67014706e-13
-2.574220476e-13
-3.947271886e-13
-6.028873151e-13
-9.187265438e-13
-1.39933159e-12
-2.130573622e-12
-3.240430735e-12
-4.90821846e-12
-7.37558461e-12
-1.095929366e-11
-1.605298269e-11
-2.31965918e-11
-3.28420451e-11
-4.552840198e-11
-6.176095031e-11
-8.196194223e-11
-1.065137735e-10
-1.358029568e-10
-1.699157274e-10
-2.087506442e-10
-2.522856652e-10
-3.002766317e-10
-3.522921858e-10
-4.081680584e-10
-4.675377877e-10
-5.298617358e-10
-5.945365385e-10
-6.611994268e-10
-7.28916978e-10
-7.973977925e-10
-8.665509281e-10
-9.358130643e-10
-1.004800288e-09
-1.072461175e-09
-1.139148414e-09
-1.20422278e-09
-1.267461734e-09
-1.328052013e-09
-1.386337221e-09
-1.441696182e-09
-1.493859255e-09
-1.542708321e-09
-1.588058593e-09
-1.62968265e-09
-1.667374462e-09
-1.700985262e-09
-1.730403856e-09
-1.756076702e-09
-1.777714341e-09
-1.795085014e-09
-1.808328805e-09
-1.817330091e-09
-1.822341647e-09
-1.823682356e-09
-1.820909846e-09
-1.814310929e-09
-1.803965763e-09
-1.789967658e-09
-1.77327413e-09
-1.753421645e-09
-1.730156518e-09
-1.703763667e-09
-1.674453844e-09
-1.643151018e-09
-1.608679738e-09
-1.572005359e-09
-1.533659597e-09
-1.493435042e-09
-1.451288554e-09
-1.407810187e-09
-1.364124386e-09
-1.318926935e-09
-1.275465124e-09
-1.223580856e-09
-1.158495306e-09
-1.155582256e-09
-1.084697104e-09
-8.889723903e-10
-6.269725543e-10
)


101
(
1.43370949e-26
7.713269441e-21
4.208637721e-20
-2.636283238e-19
-2.490067391e-18
-1.042781339e-17
-3.15458957e-17
-7.978760357e-17
-1.799345867e-16
-3.745727218e-16
-7.356247082e-16
-1.381494066e-15
-2.500740079e-15
-4.40099478e-15
-7.562275299e-15
-1.273401307e-14
-2.108818635e-14
-3.445421669e-14
-5.550882592e-14
-8.875212716e-14
-1.404091633e-13
-2.20372974e-13
-3.445134736e-13
-5.367218735e-13
-8.344912096e-13
-1.29592599e-12
-2.011529345e-12
-3.114800055e-12
-4.800215649e-12
-7.332527886e-12
-1.105650693e-11
-1.639373128e-11
-2.382657618e-11
-3.401825381e-11
-4.744376056e-11
-6.467280873e-11
-8.619456723e-11
-1.123779426e-10
-1.435262462e-10
-1.798491723e-10
-2.213500807e-10
-2.676926977e-10
-3.186903713e-10
-3.739165321e-10
-4.327825566e-10
-4.948938771e-10
-5.598130393e-10
-6.271243192e-10
-6.960730303e-10
-7.660123736e-10
-8.363573733e-10
-9.065410878e-10
-9.761221392e-10
-1.044867836e-09
-1.112529503e-09
-1.178195255e-09
-1.241536674e-09
-1.302550946e-09
-1.360775383e-09
-1.415695771e-09
-1.467240748e-09
-1.515266133e-09
-1.559544283e-09
-1.599793807e-09
-1.635881301e-09
-1.667850925e-09
-1.69554528e-09
-1.718782339e-09
-1.737296042e-09
-1.75161269e-09
-1.761818284e-09
-1.767597958e-09
-1.769489415e-09
-1.767142492e-09
-1.760996078e-09
-1.751738641e-09
-1.738639009e-09
-1.722432184e-09
-1.702780852e-09
-1.680676843e-09
-1.65659264e-09
-1.630282111e-09
-1.602196852e-09
-1.572025608e-09
-1.540231904e-09
-1.508071949e-09
-1.474404009e-09
-1.440211013e-09
-1.404968834e-09
-1.369809522e-09
-1.335599647e-09
-1.300062112e-09
-1.265545868e-09
-1.2312328e-09
-1.198453721e-09
-1.160732987e-09
-1.113816024e-09
-9.79084431e-10
-7.819938717e-10
-5.006880204e-10
-2.060752863e-10
)


101
(
1.433744345e-26
7.508771306e-21
4.45148727e-20
-2.504857557e-19
-2.513971047e-18
-1.081507027e-17
-3.342719766e-17
-8.617292981e-17
-1.978006191e-16
-4.186718899e-16
-8.352684052e-16
-1.592646538e-15
-2.925076716e-15
-5.219085923e-15
-9.086909744e-15
-1.549600231e-14
-2.597795348e-14
-4.295260326e-14
-7.003019199e-14
-1.133386802e-13
-1.815519869e-13
-2.888850179e-13
-4.587528971e-13
-7.268150342e-13
-1.150603401e-12
-1.818540014e-12
-2.86455982e-12
-4.479700061e-12
-6.934330896e-12
-1.058377296e-11
-1.587388058e-11
-2.331319847e-11
-3.342278363e-11
-4.693223514e-11
-6.428423578e-11
-8.603086104e-11
-1.125914354e-10
-1.442296749e-10
-1.81141185e-10
-2.233507557e-10
-2.706609524e-10
-3.225710575e-10
-3.78812033e-10
-4.387761257e-10
-5.017669599e-10
-5.671909798e-10
-6.344998985e-10
-7.033818378e-10
-7.729299248e-10
-8.424880304e-10
-9.116910075e-10
-9.797507974e-10
-1.045881305e-09
-1.110090293e-09
-1.172145617e-09
-1.231428802e-09
-1.287348073e-09
-1.339877454e-09
-1.388878767e-09
-1.433811284e-09
-1.474405452e-09
-1.510658504e-09
-1.54255569e-09
-1.569622203e-09
-1.592170967e-09
-1.609744424e-09
-1.622876813e-09
-1.63144619e-09
-1.635006627e-09
-1.634101769e-09
-1.628630482e-09
-1.618968266e-09
-1.605463559e-09
-1.58799606e-09
-1.567024364e-09
-1.543500095e-09
-1.517575823e-09
-1.488273831e-09
-1.456746238e-09
-1.423902391e-09
-1.389583478e-09
-1.354503298e-09
-1.319819725e-09
-1.283859747e-09
-1.247882248e-09
-1.213103524e-09
-1.179002802e-09
-1.145815119e-09
-1.113660477e-09
-1.082658004e-09
-1.055099729e-09
-1.027644525e-09
-1.001658649e-09
-9.777652163e-10
-9.554283775e-10
-9.31352503e-10
-9.024854025e-10
-6.585206793e-10
-3.749162512e-10
-7.288266966e-11
2.01146819e-10
)


101
(
1.433780269e-26
7.293888856e-21
4.687724588e-20
-2.363345751e-19
-2.532785073e-18
-1.119710218e-17
-3.535597559e-17
-9.287820248e-17
-2.169382786e-16
-4.667181214e-16
-9.453873355e-16
-1.829222422e-15
-3.406967759e-15
-6.160352249e-15
-1.086355313e-14
-1.875491853e-14
-3.181631621e-14
-5.322045599e-14
-8.779763066e-14
-1.437467968e-13
-2.333049356e-13
-3.767389647e-13
-6.085323913e-13
-9.802565234e-13
-1.576691041e-12
-2.525705667e-12
-4.011801503e-12
-6.286996222e-12
-9.697765817e-12
-1.467948264e-11
-2.174729642e-11
-3.146139435e-11
-4.435203682e-11
-6.113070612e-11
-8.216754353e-11
-1.079668582e-10
-1.388372691e-10
-1.748807701e-10
-2.161365523e-10
-2.624961271e-10
-3.13555571e-10
-3.687869198e-10
-4.277361765e-10
-4.896774988e-10
-5.53866812e-10
-6.196526589e-10
-6.863745415e-10
-7.535521191e-10
-8.204154015e-10
-8.8631766e-10
-9.508246583e-10
-1.013208868e-09
-1.072590154e-09
-1.128776759e-09
-1.181591521e-09
-1.230808568e-09
-1.275718067e-09
-1.316225874e-09
-1.352302933e-09
-1.383654729e-09
-1.4098744e-09
-1.430912993e-09
-1.446642035e-09
-1.457012e-09
-1.462566763e-09
-1.462241803e-09
-1.45753976e-09
-1.448108512e-09
-1.433907123e-09
-1.414660196e-09
-1.390873092e-09
-1.363528729e-09
-1.33231172e-09
-1.297954728e-09
-1.260860163e-09
-1.22130292e-09
-1.180246988e-09
-1.137422281e-09
-1.093653706e-09
-1.049062887e-09
-1.003969875e-09
-9.605475797e-10
-9.182090216e-10
-8.767202208e-10
-8.369282767e-10
-7.994448657e-10
-7.64968886e-10
-7.324832473e-10
-7.032543953e-10
-6.76278727e-10
-6.534286656e-10
-6.334844106e-10
-6.152046287e-10
-5.997931297e-10
-5.866944606e-10
-5.741519359e-10
-5.610941766e-10
-2.609485271e-10
4.604449622e-11
3.079531889e-10
5.522985953e-10
)


101
(
1.43381726e-26
7.068870248e-21
4.920195552e-20
-2.211674562e-19
-2.546102191e-18
-1.15718152e-17
-3.732676162e-17
-9.989862035e-17
-2.373647284e-16