/*--------------------------------*- C++ -*----------------------------------*\
| =========                 |                                                 |
| \\      /  F ield         | OpenFOAM: The Open Source CFD Toolbox           |
|  \\    /   O peration     | Version:  2.3.1                                 |
|   \\  /    A nd           | Web:      www.OpenFOAM.org                      |
|    \\/     M anipulation  |                                                 |
\*---------------------------------------------------------------------------*/
FoamFile
{
    version     2.0;
    format      ascii;
    class       dictionary;
    location    "constant";
    object      DPSI42;
}
// * * * * * * * * * * * * * * * * * * * * * * * * * * * * * * * * * * * * * //

DPSI42_table
101
(

101
(
1.770409901e-19
2.833503737e-14
2.120588026e-13
8.003441739e-13
2.06276036e-12
4.255083462e-12
7.684371574e-12
1.310773391e-11
2.103805687e-11
3.250417845e-11
4.84862577e-11
7.016927262e-11
9.789947828e-11
1.33681506e-10
1.757229981e-10
2.233805505e-10
2.756998248e-10
3.305778703e-10
3.806750095e-10
4.302445163e-10
4.682019317e-10
4.956726217e-10
5.104853089e-10
5.105816321e-10
4.970315635e-10
4.712241427e-10
4.354688464e-10
3.926785044e-10
3.442746494e-10
2.944888462e-10
2.446428888e-10
1.971985723e-10
1.552168204e-10
1.052927978e-10
6.566521985e-11
2.77695023e-11
-2.687658731e-11
-6.98150086e-11
-2.992619774e-11
-3.031414735e-11
-4.011458236e-11
-5.00147635e-11
-5.916615565e-11
-6.60557688e-11
-7.095039221e-11
-7.495832308e-11
-7.83444239e-11
-8.16580757e-11
-8.487539544e-11
-8.834277672e-11
-9.229564162e-11
-9.696977699e-11
-1.025640523e-10
-1.095432763e-10
-1.17931348e-10
-1.273508603e-10
-1.387920601e-10
-1.504204807e-10
-1.646398638e-10
-1.797695473e-10
-1.971010626e-10
-2.171493258e-10
-2.381682682e-10
-2.617196376e-10
-2.876654272e-10
-3.156929504e-10
-3.448623452e-10
-3.755839777e-10
-4.101091683e-10
-4.462279316e-10
-4.852580965e-10
-5.287811818e-10
-5.794399939e-10
-6.386552918e-10
-7.513340093e-10
-7.783215568e-10
-7.464135796e-10
-7.589476678e-10
-7.959681717e-10
-8.414017247e-10
-8.907006584e-10
-9.47855032e-10
-1.016612152e-09
-1.128630735e-09
-1.104227507e-09
-1.092920348e-09
-1.128067251e-09
-1.176038879e-09
-1.238420292e-09
-1.367745725e-09
-1.317127764e-09
-1.337044565e-09
-1.431225776e-09
-1.448108666e-09
-1.522442949e-09
-1.509404349e-09
-1.55870132e-09
-1.646452735e-09
-1.729827411e-09
-1.823020942e-09
-1.912482459e-09
)


101
(
1.770454277e-19
2.779155328e-14
2.093410959e-13
7.921163289e-13
2.043876067e-12
4.218435472e-12
7.619257954e-12
1.299103327e-11
2.085080878e-11
3.221207664e-11
4.806143723e-11
6.958695625e-11
9.71961054e-11
1.32834419e-10
1.749742173e-10
2.229485487e-10
2.758580077e-10
3.317243325e-10
3.836697958e-10
4.349365307e-10
4.75795538e-10
5.062088139e-10
5.242043946e-10
5.276525956e-10
5.171839663e-10
4.940561591e-10
4.604143454e-10
4.190564277e-10
3.716215571e-10
3.219773793e-10
2.718894004e-10
2.237623146e-10
1.805572342e-10
1.316438325e-10
9.009084372e-11
5.119316456e-11
-4.252842065e-13
-4.481163342e-11
-2.040218442e-11
-1.495651021e-11
-1.992413473e-11
-2.759987983e-11
-3.548063303e-11
-4.161758089e-11
-4.573454474e-11
-4.85430922e-11
-5.042061856e-11
-5.198933895e-11
-5.335176041e-11
-5.48414018e-11
-5.669348538e-11
-5.916275535e-11
-6.238908776e-11
-6.663804564e-11
-7.221881165e-11
-7.90567371e-11
-8.791217682e-11
-9.741223042e-11
-1.09120241e-10
-1.221084887e-10
-1.371174651e-10
-1.547890178e-10
-1.739630554e-10
-1.95341343e-10
-2.189427773e-10
-2.449950044e-10
-2.727411616e-10
-3.021780683e-10
-3.347823517e-10
-3.696868334e-10
-4.072729106e-10
-4.48912155e-10
-4.96506412e-10
-5.52634817e-10
-6.521084894e-10
-6.99841931e-10
-6.923040104e-10
-7.001243208e-10
-7.276153942e-10
-7.693829711e-10
-8.18649603e-10
-8.742190605e-10
-9.396957356e-10
-1.043155517e-09
-1.059284056e-09
-1.054193492e-09
-1.075462516e-09
-1.119598422e-09
-1.176061528e-09
-1.281488386e-09
-1.286023377e-09
-1.292626139e-09
-1.36123873e-09
-1.401199539e-09
-1.446864961e-09
-1.467563974e-09
-1.529496878e-09
-1.584336783e-09
-1.632474762e-09
-1.68136474e-09
-1.724036603e-09
)


101
(
1.770498658e-19
2.669100783e-14
2.03629863e-13
7.740006833e-13
2.000198738e-12
4.12943862e-12
7.454073513e-12
1.268617036e-11
2.034066645e-11
3.138507179e-11
4.679630044e-11
6.77402684e-11
9.471627772e-11
1.295136101e-10
1.710893111e-10
2.187485931e-10
2.716811551e-10
3.281570193e-10
3.82306866e-10
4.355093277e-10
4.805875021e-10
5.156680847e-10
5.38984035e-10
5.484424796e-10
5.439197473e-10
5.263515563e-10
4.975363358e-10
4.599785608e-10
4.156224854e-10
3.676573614e-10
3.184540711e-10
2.703564977e-10
2.260700134e-10
1.799910528e-10
1.369355439e-10
9.683027428e-11
5.154496638e-11
7.09925735e-12
4.529896544e-12
1.383522382e-11
1.725241267e-11
1.535095269e-11
1.11063515e-11
7.044928299e-12
4.618517328e-12
4.070413184e-12
5.02562652e-12
6.907007777e-12
9.246275787e-12
1.178361912e-11
1.419754901e-11
1.628278663e-11
1.78836419e-11
1.893061606e-11
1.902368743e-11
1.793597076e-11
1.505450483e-11
1.087648922e-11
5.131236231e-12
-2.260791007e-12
-1.133945098e-11
-2.26716609e-11
-3.603734088e-11
-5.132074098e-11
-6.866059997e-11
-8.863600083e-11
-1.108164887e-10
-1.350329393e-10
-1.613581036e-10
-1.903699828e-10
-2.218008445e-10
-2.560626213e-10
-2.939412288e-10
-3.380961649e-10
-4.057155151e-10
-4.729856955e-10
-5.078260241e-10
-5.204613435e-10
-5.331877118e-10
-5.604557614e-10
-6.020275164e-10
-6.504417565e-10
-7.040032084e-10
-7.794084103e-10
-8.46087019e-10
-8.71325906e-10
-8.774570359e-10
-9.050980304e-10
-9.504631425e-10
-1.014586729e-09
-1.078354409e-09
-1.09713711e-09
-1.117490867e-09
-1.172520925e-09
-1.197907621e-09
-1.250789347e-09
-1.333021771e-09
-1.342619421e-09
-1.343908364e-09
-1.341584534e-09
-1.330740729e-09
)


101
(
1.770543038e-19
2.560574883e-14
1.979840205e-13
7.560824975e-13
1.957039955e-12
4.041672122e-12
7.291563083e-12
1.238705016e-11
1.983931407e-11
3.057192291e-11
4.554822499e-11
6.591064378e-11
9.223583736e-11
1.261794983e-10
1.671016821e-10
2.143415766e-10
2.671629072e-10
3.240551336e-10
3.800257386e-10
4.351202242e-10
4.838855768e-10
5.234694186e-10
5.51945368e-10
5.672587327e-10
5.687332641e-10
5.568911385e-10
5.331737239e-10
4.997703435e-10
4.587329922e-10
4.1283598e-10
3.64660453e-10
3.166596745e-10
2.714115161e-10
2.265409816e-10
1.83284472e-10
1.425352718e-10
9.918946792e-11
5.549180108e-11
3.67764088e-11
3.872713913e-11
4.514452838e-11
4.871213475e-11
4.883264298e-11
4.736163827e-11
4.642116554e-11
4.72368995e-11
4.993996476e-11
5.419785762e-11
5.932906011e-11
6.50346116e-11
7.088426071e-11
7.667816428e-11
8.216405691e-11
8.722596351e-11
9.163856014e-11
9.514418111e-11
9.74404795e-11
9.825149237e-11
9.764754432e-11
9.534978896e-11
9.141522437e-11
8.558788144e-11
7.775809145e-11
6.785031651e-11
5.57202377e-11
4.100022065e-11
2.401506078e-11
4.839387662e-12
-1.649701592e-11
-4.021340969e-11
-6.672317203e-11
-9.550130484e-11
-1.269154006e-10
-1.61535192e-10
-2.084523701e-10
-2.672220718e-10
-3.204234952e-10
-3.539532862e-10
-3.702429334e-10
-3.86223634e-10
-4.163909377e-10
-4.591961218e-10
-5.063023802e-10
-5.619532624e-10
-6.281664697e-10
-6.852964817e-10
-7.102934425e-10
-7.250136308e-10
-7.617787307e-10
-8.132232753e-10
-8.695555004e-10
-9.223202401e-10
-9.407133919e-10
-9.797251022e-10
-1.02427764e-09
-1.068188429e-09
-1.145564816e-09
-1.139525611e-09
-1.12786518e-09
-1.125142497e-09
-1.117729084e-09
)


101
(
1.770587582e-19
2.45358827e-14
1.924036184e-13
7.383601436e-13
1.914390938e-12
3.955112943e-12
7.131687437e-12
1.209362896e-11
1.93468741e-11
2.977297328e-11
4.431840264e-11
6.410075218e-11
8.97609491e-11
1.228401005e-10
1.630315286e-10
2.097516885e-10
2.623333389e-10
3.194594727e-10
3.768982909e-10
4.337741638e-10
4.857860743e-10
5.296303483e-10
5.630973747e-10
5.841145529e-10
5.915989082e-10
5.856389911e-10
5.67296784e-10
5.384296309e-10
5.010555264e-10
4.576667824e-10
4.108635019e-10
3.631529891e-10
3.171143067e-10
2.724427211e-10
2.29143192e-10
1.883232463e-10
1.454235336e-10
1.021601239e-10
7.377266126e-11
6.555519631e-11
6.927913921e-11
7.552916679e-11
7.975735762e-11
8.154478503e-11
8.244697902e-11
8.425777941e-11
8.793053938e-11
9.361417025e-11
1.007686261e-10
1.08879917e-10
1.174737266e-10
1.262589823e-10
1.349817602e-10
1.434978415e-10
1.515669396e-10
1.58824708e-10
1.653381604e-10
1.705835805e-10
1.745977025e-10
1.77002665e-10
1.777130209e-10
1.767664419e-10
1.738789618e-10
1.690183646e-10
1.620187522e-10
1.525300648e-10
1.406099959e-10
1.265003908e-10
1.099273008e-10
9.119050274e-11
6.953701552e-11
4.532256849e-11
1.849950128e-11
-1.029867377e-11
-4.474121339e-11
-8.924413743e-11
-1.403853995e-10
-1.863657075e-10
-2.163485703e-10
-2.327632693e-10
-2.525371614e-10
-2.86426943e-10
-3.299605701e-10
-3.773982409e-10
-4.317963142e-10
-4.92346155e-10
-5.420567655e-10
-5.647390038e-10
-5.900865189e-10
-6.344069447e-10
-6.849433478e-10
-7.389739183e-10
-7.800182005e-10
-8.129462239e-10
-8.606560741e-10
-9.012832612e-10
-9.58910166e-10
-9.611193478e-10
-9.57490329e-10
-9.417898399e-10
-9.209098865e-10
)


101
(
1.770631801e-19
2.348153742e-14
1.868886452e-13
7.208318999e-13
1.872243179e-12
3.869737138e-12
6.974401816e-12
1.180584913e-11
1.886343157e-11
2.89885061e-11
4.310787523e-11
6.231300042e-11
8.729726404e-11
1.195030547e-10
1.588973954e-10
2.050027417e-10
2.572219988e-10
3.144094216e-10
3.729915454e-10
4.314882896e-10
4.863653393e-10
5.341801329e-10
5.724417056e-10
5.990038603e-10
6.124710489e-10
6.125196512e-10
5.998172755e-10
5.758692115e-10
5.425584825e-10
5.021502973e-10
4.571693284e-10
4.101081798e-10
3.635652678e-10
3.185618901e-10
2.749330338e-10
2.333284115e-10
1.911677392e-10
1.481560411e-10
1.136929668e-10
9.597229052e-11
9.341449581e-11
9.872718259e-11
1.054220611e-10
1.104078715e-10
1.136095047e-10
1.165508551e-10
1.207925256e-10
1.272083493e-10
1.356478644e-10
1.45503227e-10
1.562440635e-10
1.674404503e-10
1.788272055e-10
1.902337815e-10
2.015054147e-10
2.122159033e-10
2.222085788e-10
2.312664981e-10
2.392725761e-10
2.460038712e-10
2.511978011e-10
2.548045917e-10
2.565872257e-10
2.56377906e-10
2.541607487e-10
2.497663166e-10
2.429013614e-10
2.33636652e-10
2.218597306e-10
2.077926072e-10
1.91300546e-10
1.720358727e-10
1.498514736e-10
1.253035116e-10
9.77753166e-11
6.440508e-11
2.333138405e-11
-2.258258815e-11
-6.284717356e-11
-8.821658252e-11
-1.047486636e-10
-1.282849028e-10
-1.656705981e-10
-2.097964397e-10
-2.572893503e-10
-3.104018498e-10
-3.663254771e-10
-4.071250929e-10
-4.316177943e-10
-4.693204467e-10
-5.180579933e-10
-5.691647627e-10
-6.183844176e-10
-6.543305029e-10
-7.019582135e-10
-7.487268017e-10
-8.0066912e-10
-7.983352209e-10
-7.903007429e-10
-7.622755424e-10
-7.297056703e-10
)


101
(
1.770676175e-19
2.244279179e-14
1.814392377e-13
7.034965881e-13
1.830589538e-12
3.785523177e-12
6.819664546e-12
1.152365327e-11
1.838905487e-11
2.821876648e-11
4.191756544e-11
6.054959142e-11
8.484995523e-11
1.161755893e-10
1.547163883e-10
2.001179055e-10
2.518577702e-10
3.089427568e-10
3.683686481e-10
4.282892079e-10
4.856861722e-10
5.371540043e-10
5.799782468e-10
6.119062187e-10
6.312888893e-10
6.37427955e-10
6.305974411e-10
6.119344182e-10
5.831117397e-10
5.461785491e-10
5.035179221e-10
4.575907433e-10
4.109476488e-10
3.654678189e-10
3.21349985e-10
2.790585096e-10
2.370428714e-10
1.942561694e-10
1.560717868e-10
1.304007925e-10
1.199901942e-10
1.211747037e-10
1.278650651e-10
1.351085314e-10
1.40774736e-10
1.452689747e-10
1.501104799e-10
1.56757872e-10
1.657086749e-10
1.766104398e-10
1.889024357e-10
2.019946073e-10
2.155773234e-10
2.294209189e-10
2.433693119e-10
2.571095818e-10
2.703615965e-10
2.828194393e-10
2.943277503e-10
3.048325305e-10
3.141406801e-10
3.219585025e-10
3.282018187e-10
3.325389232e-10
3.348650703e-10
3.351900192e-10
3.331992525e-10
3.288807641e-10
3.220776713e-10
3.126186173e-10
3.010064052e-10
2.867888821e-10
2.696692738e-10
2.496348648e-10
2.269980016e-10
2.008145669e-10
1.692076412e-10
1.3066461e-10
8.943464542e-11
5.547383772e-11
3.437406319e-11
1.673862066e-11
-1.161075339e-11
-5.152715758e-11
-9.571016567e-11
-1.432831889e-10
-1.957996723e-10
-2.452732377e-10
-2.782644494e-10
-3.11225958e-10
-3.575067647e-10
-4.090233853e-10
-4.608957771e-10
-5.01774074e-10
-5.516579545e-10
-6.01498659e-10
-6.462479289e-10
-6.284739785e-10
-6.074312966e-10
-5.853112743e-10
-5.621116002e-10
)


101
(
1.770720554e-19
2.141977068e-14
1.760555415e-13
6.863529246e-13
1.789422553e-12
3.702448507e-12
6.667430836e-12
1.12469754e-11
1.792378292e-11
2.746394114e-11
4.07482625e-11
5.881248059e-11
8.24237967e-11
1.128646137e-10
1.505045566e-10
1.951201149e-10
2.462695341e-10
3.030971245e-10
3.630902402e-10
4.242137028e-10
4.838067966e-10
5.385946396e-10
5.857155039e-10
6.22802895e-10
6.479942453e-10
6.602577568e-10
6.594879777e-10
6.464470582e-10
6.225420179e-10
5.895951095e-10
5.498120167e-10
5.055643462e-10
4.593301909e-10
4.134990527e-10
3.687911142e-10
3.258041987e-10
2.836154337e-10
2.409632982e-10
2.005694869e-10
1.68759446e-10
1.503695745e-10
1.452697348e-10
1.493120772e-10
1.571007466e-10
1.647780577e-10
1.71118801e-10
1.768878791e-10
1.83679177e-10
1.926516629e-10
2.039616755e-10
2.171271135e-10
2.315815969e-10
2.468970985e-10
2.626983365e-10
2.788360784e-10
2.951553611e-10
3.113057146e-10
3.268672859e-10
3.416845802e-10
3.556305699e-10
3.685675097e-10
3.802470143e-10
3.905210979e-10
3.992252495e-10
4.060347319e-10
4.109542275e-10
4.13773272e-10
4.143374047e-10
4.124880946e-10
4.078861036e-10
4.009389344e-10
3.914933621e-10
3.795073968e-10
3.645245883e-10
3.46609312e-10
3.257340151e-10
3.011193151e-10
2.710103452e-10
2.352049063e-10
1.987937901e-10
1.710858129e-10
1.530265604e-10
1.326055446e-10
9.953840771e-11
5.853936137e-11
1.420522075e-11
-3.377812107e-11
-8.427880397e-11
-1.260770027e-10
-1.588273389e-10
-2.023099025e-10
-2.539318561e-10
-3.077063894e-10
-3.542308716e-10
-4.067402755e-10
-4.555962281e-10
-4.993465682e-10
-4.770475337e-10
-4.512359743e-10
-4.18374227e-10
-3.810303302e-10
)


101
(
1.770765262e-19
2.041263366e-14
1.707377478e-13
6.693999854e-13
1.748735477e-12
3.620491172e-12
6.517653971e-12
1.097574117e-11
1.746763185e-11
2.672417025e-11
3.960064542e-11
5.710341058e-11
8.002314595e-11
1.095765851e-10
1.46276614e-10
1.900316098e-10
2.404858806e-10
2.969098088e-10
3.572147466e-10
4.193055779e-10
4.807842991e-10
5.385516996e-10
5.89673302e-10
6.316838827e-10
6.625397196e-10
6.809157287e-10
6.863483186e-10
6.792262309e-10
6.606525346e-10
6.322009191e-10
5.9587196e-10
5.539028451e-10
5.086687078e-10
4.628234442e-10
4.175580481e-10
3.73823065e-10
3.312447111e-10
2.886365821e-10
2.470264146e-10
2.108182062e-10
1.852488748e-10
1.727819306e-10
1.71885177e-10
1.780798565e-10
1.866493083e-10
1.947208146e-10
2.017618722e-10
2.089456567e-10
2.177571155e-10
2.28976304e-10
2.424820502e-10
2.578315597e-10
2.744280702e-10
2.918013194e-10
3.097575998e-10
3.281393327e-10
3.467176044e-10
3.650145514e-10
3.82874815e-10
4.000892703e-10
4.164523054e-10
4.317809707e-10
4.458549981e-10
4.585904404e-10
4.696983115e-10
4.7904714e-10
4.86531813e-10
4.918134861e-10
4.948168014e-10
4.951766776e-10
4.930285764e-10
4.884233796e-10
4.813468033e-10
4.715106741e-10
4.586315973e-10
4.42765042e-10
4.23594849e-10
4.004089906e-10
3.719423911e-10
3.389044549e-10
3.078968519e-10
2.860455415e-10
2.690990048e-10
2.440552371e-10
2.077341761e-10
1.660203769e-10
1.21737495e-10
7.328186966e-11
2.698133328e-11
-9.482466215e-12
-5.115488257e-11
-1.024982576e-10
-1.56778471e-10
-2.088020497e-10
-2.631041398e-10
-3.153149106e-10
-3.592935639e-10
-3.320179693e-10
-3.00934318e-10
-2.578739907e-10
-2.074065664e-10
)


101
(
1.77080964e-19
1.942147717e-14
1.65486048e-13
6.526367634e-13
1.708521255e-12
3.539627613e-12
6.370281117e-12
1.070985827e-11
1.702058557e-11
2.599954292e-11
3.847526026e-11
5.542386827e-11
7.765188663e-11
1.063175016e-10
1.420460061e-10
1.848735972e-10
2.345348099e-10
2.904173311e-10
3.507987152e-10
4.136140245e-10
4.766759079e-10
5.370792934e-10
5.918820838e-10
6.385483426e-10
6.748856056e-10
6.99314413e-10
7.11039209e-10
7.100834938e-10
6.972225357e-10
6.737598124e-10
6.414651753e-10
6.024010874e-10
5.588103137e-10
5.134500201e-10
4.678486464e-10
4.233852171e-10
3.802645574e-10
3.375905208e-10
2.953827144e-10
2.562791972e-10
2.248450754e-10
2.049201741e-10
1.975094867e-10
1.99969324e-10
2.078091332e-10
2.169958202e-10
2.254488397e-10
2.333581169e-10
2.420584848e-10
2.528908704e-10
2.663126181e-10
2.820944014e-10
2.99587189e-10
3.182556394e-10
3.376622166e-10
3.577284732e-10
3.783823373e-10
3.991027859e-10
4.196998472e-10
4.39928989e-10
4.59495864e-10
4.782265874e-10
4.959973898e-10
5.125685657e-10
5.277039085e-10
5.411956921e-10
5.530926491e-10
5.630204695e-10
5.708984395e-10
5.763794951e-10
5.792618492e-10
5.796184967e-10
5.773953351e-10
5.72595136e-10
5.649707247e-10
5.542020594e-10
5.40111843e-10
5.226790489e-10
5.010234892e-10
4.742102935e-10
4.44610008e-10
4.196921026e-10
4.021900764e-10
3.834146006e-10
3.533367146e-10
3.148944702e-10
2.732136162e-10
2.277314485e-10
1.802801244e-10
1.397263911e-10
9.914141161e-11
4.842650915e-11
-7.087683903e-12
-6.343881435e-11
-1.20383329e-10
-1.763238031e-10
-2.164892721e-10
-1.825350341e-10
-1.450298372e-10
-9.495204024e-11
-4.416831582e-11
)


101
(
1.770839207e-19
1.844644754e-14
1.603007058e-13
6.360624829e-13
1.668773459e-12
3.459835135e-12
6.22525927e-12
1.044922874e-11
1.658260728e-11
2.529011406e-11
3.737255281e-11
5.377515455e-11
7.531348948e-11
1.030930484e-10
1.378252547e-10
1.796664163e-10
2.284439099e-10
2.836560625e-10
3.438964889e-10
4.071933039e-10
4.715415025e-10
5.342360841e-10
5.923821596e-10
6.434056715e-10
6.850009938e-10
7.153717221e-10
7.334203887e-10
7.388222062e-10
7.320137693e-10
7.140094523e-10
6.863271318e-10
6.508199577e-10
6.095643363e-10
5.653201882e-10
5.198115224e-10
4.747886123e-10
4.310328949e-10
3.881238653e-10
3.456360437e-10
3.048235252e-10
2.69063004e-10
2.424599367e-10
2.278527014e-10
2.24798347e-10
2.300125676e-10
2.391516597e-10
2.487704375e-10
2.576818105e-10
2.665959949e-10
2.770417819e-10
2.900256906e-10
3.057394618e-10
3.237158281e-10
3.433131119e-10
3.639306711e-10
3.855567052e-10
4.079303052e-10
4.308156146e-10
4.538300526e-10
4.768317237e-10
4.994625315e-10
5.214226738e-10
5.426698793e-10
5.629155461e-10
5.819869932e-10
5.995940089e-10
6.157190236e-10
6.3023818e-10
6.429405338e-10
6.534604309e-10
6.615060402e-10
6.669748156e-10
6.699143252e-10
6.702746601e-10
6.67931616e-10
6.624637528e-10
6.537042493e-10
6.41691199e-10
6.258342749e-10
6.055987465e-10
5.808711923e-10
5.55859823e-10
5.366573074e-10
5.210002839e-10
4.976184192e-10
4.63476495e-10
4.241089984e-10
3.816955386e-10
3.352595462e-10
2.914636282e-10
2.505850448e-10
2.005295049e-10
1.435208612e-10
8.391645995e-11
2.369267845e-11
-3.53327256e-11
-7.641964612e-11
-3.356634805e-11
1.382629941e-11
7.931306086e-11
1.464611323e-10
)


101
(
1.770833822e-19
1.748773812e-14
1.551821839e-13
6.19677111e-13
1.629487486e-12
3.381094494e-12
6.082540317e-12
1.019375947e-11
1.615365433e-11
2.459591578e-11
3.62929023e-11
5.215843828e-11
7.301111264e-11
9.990849294e-11
1.336259596e-10
1.74429621e-10
2.222405239e-10
2.766620576e-10
3.365618611e-10
4.001010037e-10
4.654446218e-10
5.300873e-10
5.912221881e-10
6.462744574e-10
6.928597082e-10
7.290040903e-10
7.533447631e-10
7.652327551e-10
7.647658588e-10
7.526529509e-10
7.301433388e-10
6.988621082e-10
6.606870495e-10
6.182889929e-10
5.73474024e-10
5.282499792e-10
4.839023796e-10
4.40593359e-10
3.979302799e-10
3.562709176e-10
3.176749001e-10
2.85702021e-10
2.640976406e-10
2.543962083e-10
2.551279636e-10
2.626063815e-10
2.726622513e-10
2.826854955e-10
2.922609603e-10
3.025964701e-10
3.150443406e-10
3.303311445e-10
3.483645506e-10
3.685511706e-10
3.902603943e-10
4.132200855e-10
4.371297582e-10
4.618608231e-10
4.870697102e-10
5.126090316e-10
5.381552121e-10
5.633025538e-10
5.87923587e-10
6.117791669e-10
6.347243524e-10
6.56562006e-10
6.769333107e-10
6.959398728e-10
7.133924135e-10
7.289407619e-10
7.423154782e-10
7.532187986e-10
7.614777893e-10
7.671579472e-10
7.702412324e-10
7.704683026e-10
7.674030706e-10
7.609184205e-10
7.508034497e-10
7.367561914e-10
7.181068713e-10
6.96188484e-10
6.765194537e-10
6.6171885e-10
6.441195184e-10
6.157264245e-10
5.791650328e-10
5.393842359e-10
4.951976612e-10
4.493824097e-10
4.070559599e-10
3.57908392e-10
2.996103146e-10
2.3688542e-10
1.725748903e-10
1.110374327e-10
6.915728874e-11
1.241192004e-10
1.858643091e-10
2.753872445e-10
3.719387426e-10
)


101
(
1.770842593e-19
1.654547993e-14
1.501308361e-13
6.034800529e-13
1.590657247e-12
3.303382955e-12
5.942067351e-12
9.943337409e-12
1.573364995e-11
2.391691778e-11
3.523654703e-11
5.057461973e-11
7.074748397e-11
9.676848178e-11
1.294584364e-10
1.691814946e-10
2.159509848e-10
2.694705286e-10
3.288468104e-10
3.923968913e-10
4.584513938e-10
5.247013093e-10
5.88458487e-10
6.471853562e-10
6.984517372e-10
7.401465226e-10
7.706829918e-10
7.891181385e-10
7.952204396e-10
7.893827883e-10
7.725706755e-10
7.461693061e-10
7.118411649e-10
6.720883304e-10
6.287038783e-10
5.838290521e-10
5.391339073e-10
4.953713384e-10
4.525141054e-10
4.105338663e-10
3.703595454e-10
3.34550337e-10
3.068853226e-10
2.902288324e-10
2.850384093e-10
2.890740777e-10
2.983386415e-10
3.091734789e-10
3.197723154e-10
3.304965054e-10
3.426064188e-10
3.573340797e-10
3.751314686e-10
3.956147698e-10
4.181738943e-10
4.422322575e-10
4.676623703e-10
4.941042907e-10
5.214400948e-10
5.493591163e-10
5.777097091e-10
6.059885752e-10
6.339999853e-10
6.615260333e-10
6.884029502e-10
7.144634949e-10
7.393035413e-10
7.629055977e-10
7.851110479e-10
8.057960145e-10
8.246189096e-10
8.412659629e-10
8.552601903e-10
8.666389606e-10
8.754373572e-10
8.815826174e-10
8.84619064e-10
8.842157936e-10
8.801477778e-10
8.723014408e-10
8.600313608e-10
8.434327001e-10
8.255640211e-10
8.110828648e-10
7.977156854e-10
7.75905503e-10
7.433313267e-10
7.059570602e-10
6.642775708e-10
6.186586515e-10
5.741920169e-10
5.257292476e-10
4.665603503e-10
4.01035852e-10
3.321435194e-10
2.670340598e-10
2.234911931e-10
2.99406408e-10
3.839938062e-10
4.984586286e-10
6.218653129e-10
)


101
(
1.770887631e-19
1.5619859e-14
1.451471473e-13
5.874713151e-13
1.552278251e-12
3.22668101e-12
5.803788246e-12
9.697852341e-12
1.53225085e-11
2.325307327e-11
3.42036713e-11
4.90244802e-11
6.852501006e-11
9.367732227e-11
1.25332212e-10
1.639392979e-10
2.09600766e-10
2.62116457e-10
3.208014286e-10
3.841420534e-10
4.50631691e-10
5.181533735e-10
5.841602203e-10
6.461875652e-10
7.017944595e-10
7.487701644e-10
7.853434845e-10
8.10311533e-10
8.231329333e-10
8.238865165e-10
8.132434363e-10
7.923331893e-10
7.625899111e-10
7.263032554e-10
6.851779811e-10
6.413759343e-10
5.968106315e-10
5.527465717e-10
5.096872227e-10
4.676339986e-10
4.267962746e-10
3.886470298e-10
3.563542212e-10
3.332881856e-10
3.214816457e-10
3.205209664e-10
3.274245599e-10
3.382187999e-10
3.498718481e-10
3.614828788e-10
3.737349436e-10
3.880714202e-10
4.055211677e-10
4.260686848e-10
4.492473178e-10
4.744003365e-10
5.013049355e-10
5.295471484e-10
5.589318394e-10
5.892310041e-10
6.203715621e-10
6.518309627e-10
6.832724354e-10
7.146074175e-10
7.456561879e-10
7.760033945e-10
8.055510701e-10
8.33970379e-10
8.612582528e-10
8.873189479e-10
9.117776487e-10
9.344436924e-10
9.547375918e-10
9.724484211e-10
9.874935254e-10
9.998578695e-10
1.009493893e-09
1.015795575e-09
1.018330595e-09
1.017165474e-09
1.011607338e-09
1.00148681e-09
9.879374802e-10
9.750073856e-10
9.643068674e-10
9.488411168e-10
9.220288949e-10
8.876774889e-10
8.486497222e-10
8.048994883e-10
7.58783335e-10
7.107948756e-10
6.503188483e-10
5.825028471e-10
5.090384403e-10
4.399988893e-10
3.932402533e-10
4.934024249e-10
6.049675994e-10
7.425493155e-10
9.048656158e-10
)


101
(
1.77093266e-19
1.471107621e-14
1.402315402e-13
5.716506451e-13
1.514345246e-12
3.15096733e-12
5.667647432e-12
9.457184102e-12
1.492010908e-11
2.260427757e-11
3.319437596e-11
4.750859135e-11
6.634571239e-11
9.063884248e-11
1.212559445e-10
1.587189751e-10
2.032142331e-10
2.546332155e-10
3.124741403e-10
3.753959045e-10
4.420556365e-10
5.10522682e-10
5.784064068e-10
6.433449519e-10
7.029224001e-10
7.548661631e-10
7.972579402e-10
8.286699803e-10
8.482771005e-10
8.558580554e-10
8.517895832e-10
8.369290948e-10
8.124620646e-10
7.804479275e-10
7.424559298e-10
7.005822369e-10
6.568425596e-10
6.128715854e-10
5.697184429e-10
5.277038278e-10
4.867843469e-10
4.475415064e-10
4.122172643e-10
3.839634785e-10
3.657317641e-10
3.588184836e-10
3.618076781e-10
3.713058473e-10
3.835522115e-10
3.963161289e-10
4.093581593e-10
4.23815589e-10
4.410290957e-10
4.615655096e-10
4.852708495e-10
5.115268495e-10
5.399129364e-10
5.700827555e-10
6.016111642e-10
6.343992838e-10
6.683175001e-10
7.031056544e-10
7.382233883e-10
7.736505649e-10
8.090816434e-10
8.440693785e-10
8.786030675e-10
9.122759028e-10
9.451978352e-10
9.769837239e-10
1.007464164e-09
1.036513879e-09
1.063600804e-09
1.088435596e-09
1.110606166e-09
1.129874773e-09
1.146526954e-09
1.160005846e-09
1.170144102e-09
1.176290729e-09
1.178061306e-09
1.175232865e-09
1.167853805e-09
1.158603902e-09
1.150568425e-09
1.140507232e-09
1.120500968e-09
1.090482993e-09
1.054358655e-09
1.013135678e-09
9.663743387e-10
9.186506108e-10
8.573489399e-10
7.869371149e-10
7.093979175e-10
6.355707086e-10
5.834763172e-10
7.089503094e-10
8.469446014e-10
9.940222798e-10
1.150222329e-09
)


101
(
1.770975714e-19
1.381929738e-14
1.353843937e-13
5.560175436e-13
1.476852442e-12
3.076219265e-12
5.533585752e-12
9.221202604e-12
1.452630325e-11
2.197037691e-11
3.220867397e-11
4.602732908e-11
6.421124365e-11
8.765636314e-11
1.172372477e-10
1.535351384e-10
1.968143955e-10
2.47052974e-10
3.039108361e-10
3.662171484e-10
4.327937857e-10
5.018901303e-10
5.712823226e-10
6.387327525e-10
7.018853634e-10
7.584440786e-10
8.063793737e-10
8.440759406e-10
8.704564671e-10
8.850182794e-10
8.87846934e-10
8.795226441e-10
8.609706305e-10
8.340020183e-10
8.000238704e-10
7.610095696e-10
7.189601801e-10
6.757138224e-10
6.327775828e-10
5.90942577e-10
5.502647989e-10
5.108204734e-10
4.739577261e-10
4.421099271e-10
4.18405561e-10
4.053811138e-10
4.033389482e-10
4.101737295e-10
4.221125409e-10
4.359786653e-10
4.503862321e-10
4.656727511e-10
4.830795077e-10
5.037816765e-10
5.27987382e-10
5.552645109e-10
5.852531099e-10
6.175043508e-10
6.514716949e-10
6.869643071e-10
7.238978667e-10
7.621988413e-10
8.014076878e-10
8.413288971e-10
8.814185129e-10
9.216850526e-10
9.616437475e-10
1.001127524e-09
1.040074593e-09
1.07815594e-09
1.115358469e-09
1.151324268e-09
1.18577828e-09
1.218408108e-09
1.248632633e-09
1.275878385e-09
1.300023259e-09
1.321532857e-09
1.339772493e-09
1.354067271e-09
1.364173198e-09
1.369385518e-09
1.369215608e-09
1.365608019e-09
1.361172953e-09
1.355886951e-09
1.342596778e-09
1.318192386e-09
1.285291786e-09
1.246550333e-09
1.200305436e-09
1.151733366e-09
1.090714174e-09
1.017303654e-09
9.355956387e-10
8.563899655e-10
7.993739723e-10
9.432550128e-10
1.097467291e-09
1.230903396e-09
1.357494714e-09
)


101
(
1.771020087e-19
1.294474213e-14
1.306078022e-13
5.405732805e-13
1.439798865e-12
3.002424334e-12
5.401560895e-12
8.989803361e-12
1.414096382e-11
2.135123934e-11
3.124659948e-11
4.458109518e-11
6.21231266e-11
8.473298864e-11
1.132831056e-10
1.484017596e-10
1.904234535e-10
2.394078079e-10
2.951573612e-10
3.566658467e-10
4.229198828e-10
4.923430279e-10
5.628811884e-10
6.324391618e-10
6.987493444e-10
7.595311057e-10
8.126817095e-10
8.564366992e-10
8.895017721e-10
9.111150838e-10
9.210725382e-10
9.196796341e-10
9.076109499e-10
8.864037105e-10
8.572937918e-10
8.220955773e-10
7.827125818e-10
7.41032642e-10
6.988597408e-10
6.574624921e-10
6.172463248e-10
5.781977952e-10
5.409991796e-10
5.071959392e-10
4.794931613e-10
4.610147288e-10
4.535197892e-10
4.565076252e-10
4.670282922e-10
4.815665586e-10
4.976170844e-10
5.144636089e-10
5.32822533e-10
5.541305737e-10
5.790539965e-10
6.074420499e-10
6.391707208e-10
6.736764965e-10
7.104458263e-10
7.490545819e-10
7.894663055e-10
8.315864614e-10
8.753065719e-10
9.201358104e-10
9.654771774e-10
1.01160127e-09
1.057597943e-09
1.103472544e-09
1.149032873e-09
1.19428173e-09
1.238937311e-09
1.282467027e-09
1.32495101e-09
1.365895494e-09
1.404771478e-09
1.441062201e-09
1.474082144e-09
1.504091964e-09
1.53075464e-09
1.553896165e-09
1.572975235e-09
1.586488323e-09
1.594527927e-09
1.597629193e-09
1.597515864e-09
1.596321365e-09
1.588805318e-09
1.570148956e-09
1.540673657e-09
1.503866734e-09
1.458610042e-09
1.407803232e-09
1.346253272e-09
1.269800304e-09
1.18251925e-09
1.097350148e-09
1.034457996e-09
1.179040672e-09
1.326914029e-09
1.419460809e-09
1.500693097e-09
)


101
(
1.771065779e-19
1.208762012e-14
1.259011133e-13
5.253182652e-13
1.403181294e-12
2.929565348e-12
5.271521027e-12
8.762864055e-12
1.376391104e-11
2.074662636e-11
3.030805773e-11
4.317009748e-11
6.008252984e-11
8.187120999e-11
1.093992792e-10
1.433308415e-10
1.840616683e-10
2.317274786e-10
2.862574285e-10
3.468016869e-10
4.125081709e-10
4.819699291e-10
5.533005365e-10
6.245616751e-10
6.935962902e-10
7.581754471e-10
8.161649012e-10
8.656882949e-10
9.052697788e-10
9.339156109e-10
9.511429542e-10
9.569852599e-10
9.518804764e-10
9.37076585e-10
9.13627119e-10
8.831676163e-10
8.474583179e-10
8.083248865e-10
7.67697365e-10
7.272226439e-10
6.877603435e-10
6.49498632e-10
6.128190068e-10
5.785223536e-10
5.485494319e-10
5.259321917e-10
5.133121954e-10
5.11774271e-10
5.1984776e-10
5.343139285e-10
5.519325921e-10
5.708959531e-10
5.910817848e-10
6.136936022e-10
6.398365045e-10
6.69803425e-10
7.035453288e-10
7.405496118e-10
7.805685208e-10
8.229470763e-10
8.672463229e-10
9.137625461e-10
9.623684913e-10
1.012534839e-09
1.063874815e-09
1.116271979e-09
1.169049255e-09
1.222080262e-09
1.275081326e-09
1.328228658e-09
1.380787617e-09
1.432741928e-09
1.483933352e-09
1.533721985e-09
1.581737631e-09
1.627625407e-09
1.67024561e-09
1.709126614e-09
1.744677783e-09
1.776576684e-09
1.804095944e-09
1.825772119e-09
1.84191137e-09
1.851880628e-09
1.855935391e-09
1.857693476e-09
1.853928461e-09
1.83938685e-09
1.812356498e-09
1.775998266e-09