/*--------------------------------*- C++ -*----------------------------------*\
| =========                 |                                                 |
| \\      /  F ield         | OpenFOAM: The Open Source CFD Toolbox           |
|  \\    /   O peration     | Version:  2.3.1                                 |
|   \\  /    A nd           | Web:      www.OpenFOAM.org                      |
|    \\/     M anipulation  |                                                 |
\*---------------------------------------------------------------------------*/
FoamFile
{
    version     2.0;
    format      ascii;
    class       dictionary;
    location    "constant";
    object      DPSI33;
}
// * * * * * * * * * * * * * * * * * * * * * * * * * * * * * * * * * * * * * //

DPSI33_table
101
(

101
(
-3.082375895e-10
-6.565781832e-09
-1.07110621e-08
-1.562011434e-08
-2.238427818e-08
-3.137407569e-08
-4.249844151e-08
-5.618067589e-08
-7.187186305e-08
-8.962413831e-08
-1.092203173e-07
-1.306226378e-07
-1.534022343e-07
-1.782376118e-07
-2.041553177e-07
-2.312819415e-07
-2.598570456e-07
-2.900285397e-07
-3.198231957e-07
-3.529203651e-07
-3.851062516e-07
-4.179267046e-07
-4.53330249e-07
-4.887534026e-07
-5.24443311e-07
-5.608244144e-07
-5.978201146e-07
-6.352280867e-07
-6.735330421e-07
-7.120777267e-07
-7.510847525e-07
-7.900799325e-07
-8.277543559e-07
-8.708397438e-07
-9.10959577e-07
-9.513654561e-07
-9.916441161e-07
-1.03115409e-06
-1.071859816e-06
-1.114243526e-06
-1.156479255e-06
-1.196167566e-06
-1.237640379e-06
-1.278903913e-06
-1.318820255e-06
-1.359898408e-06
-1.400063148e-06
-1.44108423e-06
-1.481383027e-06
-1.52220923e-06
-1.562212667e-06
-1.602243496e-06
-1.642090411e-06
-1.681585341e-06
-1.72060498e-06
-1.759274988e-06
-1.799050373e-06
-1.836726111e-06
-1.87535755e-06
-1.912961173e-06
-1.95071863e-06
-1.987847617e-06
-2.024495557e-06
-2.060929809e-06
-2.096891047e-06
-2.132520413e-06
-2.167551058e-06
-2.202063087e-06
-2.236380819e-06
-2.26988785e-06
-2.302977539e-06
-2.335551081e-06
-2.367918406e-06
-2.399338783e-06
-2.429902415e-06
-2.459547698e-06
-2.489040585e-06
-2.517727255e-06
-2.545389797e-06
-2.572160051e-06
-2.598013558e-06
-2.623335557e-06
-2.647479394e-06
-2.670732092e-06
-2.692880745e-06
-2.713924379e-06
-2.733752217e-06
-2.752507357e-06
-2.770047021e-06
-2.786610991e-06
-2.801693843e-06
-2.815780131e-06
-2.82869642e-06
-2.840521507e-06
-2.851355993e-06
-2.865134273e-06
-2.883711689e-06
-3.11419117e-06
-3.341570628e-06
-3.564698679e-06
-3.784179515e-06
)


101
(
-3.082453164e-10
-6.574720733e-09
-1.073520321e-08
-1.564716067e-08
-2.240693653e-08
-3.139334058e-08
-4.252567681e-08
-5.622249576e-08
-7.196578183e-08
-8.979736447e-08
-1.095167111e-07
-1.310858511e-07
-1.541012274e-07
-1.791893596e-07
-2.054804357e-07
-2.33039899e-07
-2.621008549e-07
-2.928261959e-07
-3.234212931e-07
-3.570875617e-07
-3.903169722e-07
-4.241393906e-07
-4.604228599e-07
-4.971044158e-07
-5.341570267e-07
-5.719483374e-07
-6.104630129e-07
-6.495260455e-07
-6.89537591e-07
-7.299869892e-07
-7.70987285e-07
-8.12141586e-07
-8.522630299e-07
-8.969052049e-07
-9.399023302e-07
-9.829809804e-07
-1.026036474e-06
-1.068510356e-06
-1.111934534e-06
-1.157002032e-06
-1.202353094e-06
-1.245754263e-06
-1.290324286e-06
-1.334998871e-06
-1.378679289e-06
-1.423177016e-06
-1.467139256e-06
-1.511766468e-06
-1.555994554e-06
-1.600640653e-06
-1.644761282e-06
-1.688864086e-06
-1.732863228e-06
-1.776613317e-06
-1.819977735e-06
-1.863018393e-06
-1.906907628e-06
-1.949337337e-06
-1.992281313e-06
-2.034514e-06
-2.076764441e-06
-2.118533602e-06
-2.159849476e-06
-2.200910412e-06
-2.241559105e-06
-2.281862981e-06
-2.321624715e-06
-2.360860334e-06
-2.399820758e-06
-2.438065352e-06
-2.4758228e-06
-2.513021867e-06
-2.549900526e-06
-2.585948483e-06
-2.621145277e-06
-2.655397965e-06
-2.68923053e-06
-2.722272023e-06
-2.754245835e-06
-2.785224513e-06
-2.81517107e-06
-2.844361408e-06
-2.872362091e-06
-2.89930284e-06
-2.92500888e-06
-2.949493252e-06
-2.972537874e-06
-2.994287344e-06
-3.014609444e-06
-3.033801113e-06
-3.051266515e-06
-3.067624406e-06
-3.082531978e-06
-3.096150453e-06
-3.10866277e-06
-3.124557843e-06
-3.14617298e-06
-3.371589352e-06
-3.593544869e-06
-3.810946509e-06
-4.024673407e-06
)


101
(
-3.082530432e-10
-6.58786708e-09
-1.076842008e-08
-1.566788439e-08
-2.238659649e-08
-3.131303192e-08
-4.238092009e-08
-5.598962195e-08
-7.167653218e-08
-8.945699594e-08
-1.09155882e-07
-1.307285074e-07
-1.538176422e-07
-1.789355298e-07
-2.054090649e-07
-2.331940918e-07
-2.624916138e-07
-2.934776902e-07
-3.247332242e-07
-3.585137064e-07
-3.92616104e-07
-4.27227176e-07
-4.639044241e-07
-5.015235544e-07
-5.396767996e-07
-5.785669016e-07
-6.182621583e-07
-6.586528874e-07
-6.99977642e-07
-7.419854451e-07
-7.846290261e-07
-8.276424638e-07
-8.701378378e-07
-9.153364946e-07
-9.608777119e-07
-1.006390093e-06
-1.051984395e-06
-1.097299694e-06
-1.143065126e-06
-1.190116398e-06
-1.237996914e-06
-1.285103666e-06
-1.33240727e-06
-1.380083317e-06
-1.427401792e-06
-1.47495004e-06
-1.522458726e-06
-1.570271186e-06
-1.618119319e-06
-1.666174997e-06
-1.714137611e-06
-1.762021503e-06
-1.809870073e-06
-1.857610274e-06
-1.905118539e-06
-1.95235293e-06
-1.999877899e-06
-2.046965168e-06
-2.0939298e-06
-2.140610696e-06
-2.1870998e-06
-2.233307859e-06
-2.279138119e-06
-2.324642246e-06
-2.369817196e-06
-2.414631669e-06
-2.459009476e-06
-2.502884032e-06
-2.546345021e-06
-2.58925875e-06
-2.631624863e-06
-2.673388383e-06
-2.714633857e-06
-2.755247112e-06
-2.795102861e-06
-2.834088716e-06
-2.872280399e-06
-2.909714786e-06
-2.946116399e-06
-2.981447901e-06
-3.015642125e-06
-3.048771519e-06
-3.080761537e-06
-3.111529715e-06
-3.140967926e-06
-3.169119408e-06
-3.19566554e-06
-3.220656885e-06
-3.243963799e-06
-3.265987854e-06
-3.286076946e-06
-3.304976423e-06
-3.322186016e-06
-3.337861732e-06
-3.352371831e-06
-3.370752325e-06
-3.395878728e-06
-3.615977665e-06
-3.832474219e-06
-4.044309683e-06
-4.252593023e-06
)


101
(
-3.0826077e-10
-6.601185612e-09
-1.080221317e-08
-1.568973205e-08
-2.236753852e-08
-3.123357093e-08
-4.223567962e-08
-5.575495141e-08
-7.138019135e-08
-8.910487093e-08
-1.087753259e-07
-1.303424272e-07
-1.534898137e-07
-1.786322648e-07
-2.052557253e-07
-2.33245512e-07
-2.627612263e-07
-2.939828543e-07
-3.258034426e-07
-3.597748187e-07
-3.945700793e-07
-4.299473397e-07
-4.670790269e-07
-5.054669609e-07
-5.446164727e-07
-5.845526896e-07
-6.253538898e-07
-6.669682456e-07
-7.095405105e-07
-7.529617674e-07
-7.971423381e-07
-8.418720611e-07
-8.864839335e-07
-9.327766665e-07
-9.80138113e-07
-1.02788077e-06
-1.075840265e-06
-1.123770807e-06
-1.171970055e-06
-1.221105104e-06
-1.271209118e-06
-1.321323666e-06
-1.371505298e-06
-1.422000015e-06
-1.472508693e-06
-1.523153009e-06
-1.573887833e-06
-1.624858094e-06
-1.675999294e-06
-1.727355403e-06
-1.778794034e-06
-1.83024791e-06
-1.881711763e-06
-1.933158011e-06
-1.984502401e-06
-2.035671312e-06
-2.086911843e-06
-2.138006333e-06
-2.188970983e-06
-2.239730129e-06
-2.290303433e-06
-2.34064476e-06
-2.390688391e-06
-2.44041404e-06
-2.489837632e-06
-2.538919071e-06
-2.587613822e-06
-2.635849959e-06
-2.683632727e-06
-2.730896371e-06
-2.77763596e-06
-2.823759926e-06
-2.869275478e-06
-2.914155134e-06
-2.958321663e-06
-3.001670408e-06
-3.044128385e-06
-3.085768905e-06
-3.126375493e-06
-3.165876757e-06
-3.204145224e-06
-3.241173554e-06
-3.276959945e-06
-3.311420178e-06
-3.344434953e-06
-3.376072845e-06
-3.406029383e-06
-3.434293416e-06
-3.460584233e-06
-3.485400291e-06
-3.508076626e-06
-3.529457096e-06
-3.549060552e-06
-3.566861375e-06
-3.583411697e-06
-3.604427864e-06
-3.633064854e-06
-3.847876794e-06
-4.059112315e-06
-4.265721952e-06
-4.469006311e-06
)


101
(
-3.082685245e-10
-6.614680538e-09
-1.083659547e-08
-1.571273308e-08
-2.234981724e-08
-3.115503467e-08
-4.209007268e-08
-5.55186308e-08
-7.107712756e-08
-8.874128826e-08
-1.083755828e-07
-1.299282293e-07
-1.531189987e-07
-1.782797629e-07
-2.050241193e-07
-2.331961558e-07
-2.629113641e-07
-2.943450214e-07
-3.266472534e-07
-3.608540683e-07
-3.962127345e-07
-4.323020991e-07
-4.699278961e-07
-5.089726062e-07
-5.490034297e-07
-5.899162746e-07
-6.317534542e-07
-6.744977275e-07
-7.182416882e-07
-7.62953211e-07
-8.085522469e-07
-8.548636956e-07
-9.013773333e-07
-9.490318337e-07
-9.979140034e-07
-1.047570814e-06
-1.097677691e-06
-1.147996581e-06
-1.198584822e-06
-1.249872071e-06
-1.302076323e-06
-1.354727578e-06
-1.407614363e-06
-1.460804956e-06
-1.514194852e-06
-1.567785631e-06
-1.621540204e-06
-1.675533615e-06
-1.729754208e-06
-1.784230386e-06
-1.8388909e-06
-1.893670694e-06
-1.948525341e-06
-2.003427626e-06
-2.058324528e-06
-2.113146918e-06
-2.167989647e-06
-2.222769112e-06
-2.277489451e-06
-2.332068504e-06
-2.386499204e-06
-2.440733991e-06
-2.494723186e-06
-2.548423865e-06
-2.601843611e-06
-2.654940627e-06
-2.707686998e-06
-2.760017867e-06
-2.811900462e-06
-2.863266886e-06
-2.914125563e-06
-2.964375189e-06
-3.013985526e-06
-3.062937338e-06
-3.111177635e-06
-3.158612126e-06
-3.205115821e-06
-3.250765938e-06
-3.295366227e-06
-3.338859068e-06
-3.381065142e-06
-3.421895334e-06
-3.461360854e-06
-3.499388526e-06
-3.535867379e-06
-3.570872018e-06
-3.604092364e-06
-3.63557351e-06
-3.664912709e-06
-3.692529575e-06
-3.717790595e-06
-3.741658688e-06
-3.763643347e-06
-3.783697901e-06
-3.802348149e-06
-3.826103942e-06
-3.858272086e-06
-4.068030297e-06
-4.274358891e-06
-4.476190692e-06
-4.674992873e-06
)


101
(
-3.082762223e-10
-6.628353067e-09
-1.087157674e-08
-1.573691158e-08
-2.233347802e-08
-3.107749217e-08
-4.194420255e-08
-5.528078985e-08
-7.076768128e-08
-8.836654269e-08
-1.079571618e-07
-1.29486503e-07
-1.527063689e-07
-1.778783e-07
-2.047174469e-07
-2.330482625e-07
-2.629437162e-07
-2.945671469e-07
-3.272780419e-07
-3.617406076e-07
-3.975678311e-07
-4.343002672e-07
-4.724370246e-07
-5.120637416e-07
-5.528664493e-07
-5.946735414e-07
-6.374753687e-07
-6.812639327e-07
-7.261001054e-07
-7.719923767e-07
-8.188887153e-07
-8.666490129e-07
-9.148780903e-07
-9.639988892e-07
-1.014291971e-06
-1.065588841e-06
-1.11760094e-06
-1.170067983e-06
-1.222912367e-06
-1.276349241e-06
-1.3306029e-06
-1.385503096e-06
-1.44084329e-06
-1.496561612e-06
-1.552597623e-06
-1.608931478e-06
-1.665509326e-06
-1.722359757e-06
-1.779474746e-06
-1.836881756e-06
-1.894545317e-06
-1.95241901e-06
-2.010443114e-06
-2.06857635e-06
-2.126776491e-06
-2.184986484e-06
-2.243232245e-06
-2.30145763e-06
-2.359678568e-06
-2.417824907e-06
-2.4758749e-06
-2.533772939e-06
-2.591470681e-06
-2.648912765e-06
-2.706094783e-06
-2.762968112e-06
-2.81951842e-06
-2.875693566e-06
-2.931447499e-06
-2.986697038e-06
-3.041447809e-06
-3.095596748e-06
-3.149098017e-06
-3.201931978e-06
-3.25405259e-06
-3.305368629e-06
-3.355720603e-06
-3.405188326e-06
-3.453584689e-06
-3.500875745e-06
-3.546877181e-06
-3.591423095e-06
-3.634485307e-06
-3.675990963e-06
-3.715840582e-06
-3.754130035e-06
-3.790534759e-06
-3.825127482e-06
-3.857531613e-06
-3.888016128e-06
-3.91590265e-06
-3.942283466e-06
-3.966659578e-06
-3.989087531e-06
-4.009928079e-06
-4.036497777e-06
-4.07225622e-06
-4.277315157e-06
-4.47917613e-06
-4.676744153e-06
-4.87161805e-06
)


101
(
-3.082839499e-10
-6.642211448e-09
-1.090717326e-08
-1.576230133e-08
-2.231857986e-08
-3.100102992e-08
-4.179819334e-08
-5.504158552e-08
-7.045222923e-08
-8.798100165e-08
-1.075206347e-07
-1.290179493e-07
-1.522531413e-07
-1.774283723e-07
-2.043387e-07
-2.328043857e-07
-2.628602631e-07
-2.946520925e-07
-3.277079591e-07
-3.624285808e-07
-3.986524515e-07
-4.359545325e-07
-4.745982555e-07
-5.147548102e-07
-5.562326508e-07
-5.988451046e-07
-6.425357769e-07
-6.872877514e-07
-7.331371241e-07
-7.801108303e-07
-8.281863569e-07
-8.772622134e-07
-9.27035958e-07
-9.776283434e-07
-1.029295561e-06
-1.082054581e-06
-1.135730686e-06
-1.190096857e-06
-1.245008301e-06
-1.300518216e-06
-1.356772919e-06
-1.413747003e-06
-1.471311651e-06
-1.529361353e-06
-1.587832077e-06
-1.646699002e-06
-1.705900521e-06
-1.765428913e-06
-1.825260172e-06
-1.885412716e-06
-1.945873723e-06
-2.006620791e-06
-2.067597259e-06
-2.128749212e-06
-2.190031488e-06
-2.251394238e-06
-2.312828445e-06
-2.374278124e-06
-2.435763003e-06
-2.497231779e-06
-2.558661007e-06
-2.619992561e-06
-2.681175412e-06
-2.742142328e-06
-2.802874861e-06
-2.863308119e-06
-2.923434675e-06
-2.983218589e-06
-3.042618832e-06
-3.101543877e-06
-3.15998483e-06
-3.217831846e-06
-3.275028779e-06
-3.331558095e-06
-3.387378084e-06
-3.442402539e-06
-3.496443231e-06
-3.549571002e-06
-3.601597025e-06
-3.652512328e-06
-3.702147885e-06
-3.750314605e-06
-3.796918701e-06
-3.841855733e-06
-3.885025458e-06
-3.926544442e-06
-3.966077022e-06
-4.003737438e-06
-4.039150785e-06
-4.072587664e-06
-4.103171046e-06
-4.132130284e-06
-4.15896458e-06
-4.183837129e-06
-4.206994916e-06
-4.236410385e-06
-4.275890904e-06
-4.47668389e-06
-4.674565927e-06
-4.868407194e-06
-5.059906594e-06
)


101
(
-3.082916765e-10
-6.656259338e-09
-1.094339746e-08
-1.578893131e-08
-2.230517528e-08
-3.092572463e-08
-4.165215219e-08
-5.48011485e-08
-7.013111481e-08
-8.758500837e-08
-1.070665269e-07
-1.285232062e-07
-1.51760451e-07
-1.769305089e-07
-2.038905702e-07
-2.324672091e-07
-2.626630666e-07
-2.946025507e-07
-3.279475978e-07
-3.629160666e-07
-3.994792851e-07
-4.372783991e-07
-4.764085987e-07
-5.170546647e-07
-5.591251745e-07
-6.024534645e-07
-6.469526578e-07
-6.925885201e-07
-7.39373593e-07
-7.873379071e-07
-8.364819694e-07
-8.867427076e-07
-9.378977553e-07
-9.899027536e-07
-1.042918228e-06
-1.097030272e-06
-1.152177112e-06
-1.208205572e-06
-1.264964126e-06
-1.322407218e-06
-1.380584302e-06
-1.439508482e-06
-1.499114466e-06
-1.559304383e-06
-1.620009209e-06
-1.681201596e-06
-1.742824068e-06
-1.804844423e-06
-1.867217919e-06
-1.929942244e-06
-1.993008514e-06
-2.056416346e-06
-2.120129e-06
-2.184090802e-06
-2.24824809e-06
-2.312551364e-06
-2.376971183e-06
-2.441441903e-06
-2.505976763e-06
-2.570540138e-06
-2.635115357e-06
-2.699652366e-06
-2.764100156e-06
-2.828385101e-06
-2.892473698e-06
-2.956277343e-06
-3.019780258e-06
-3.082958448e-06
-3.145788502e-06
-3.208187609e-06
-3.270134747e-06
-3.331503072e-06
-3.39222274e-06
-3.452276183e-06
-3.511627316e-06
-3.570199562e-06
-3.627788515e-06
-3.684448908e-06
-3.739978612e-06
-3.794385534e-06
-3.847518888e-06
-3.899191522e-06
-3.949277939e-06
-3.997616838e-06
-4.044091765e-06
-4.088831043e-06
-4.131464924e-06
-4.172179947e-06
-4.210570964e-06
-4.247011099e-06
-4.280378323e-06
-4.312012819e-06
-4.341404732e-06
-4.36879542e-06
-4.394433429e-06
-4.426821023e-06
-4.470071247e-06
-4.667089994e-06
-4.861514239e-06
-5.052156118e-06
-5.240816881e-06
)


101
(
-3.082994597e-10
-6.670501625e-09
-1.098026584e-08
-1.581683594e-08
-2.229332489e-08
-3.085166574e-08
-4.150620438e-08
-5.455963182e-08
-6.980470001e-08
-8.717894589e-08
-1.06595407e-07
-1.280029617e-07
-1.512294609e-07
-1.763853432e-07
-2.033755014e-07
-2.320395502e-07
-2.623543719e-07
-2.944211531e-07
-3.280062733e-07
-3.632036782e-07
-4.00058375e-07
-4.382856782e-07
-4.778692685e-07
-5.189690429e-07
-5.61562973e-07
-6.055215326e-07
-6.507463861e-07
-6.971861465e-07
-7.448300217e-07
-7.937006509e-07
-8.438113394e-07
-8.951329298e-07
-9.475139163e-07
-1.000830612e-06
-1.055149665e-06
-1.110544864e-06
-1.167022358e-06
-1.224509355e-06
-1.282891833e-06
-1.34208568e-06
-1.402064432e-06
-1.462824463e-06
-1.524322406e-06
-1.586481941e-06
-1.649237321e-06
-1.712558248e-06
-1.776399729e-06
-1.840719362e-06
-1.905457489e-06
-1.970587631e-06
-2.036089226e-06
-2.101965603e-06
-2.168201816e-06
-2.234761248e-06
-2.30158916e-06
-2.36863013e-06
-2.43584183e-06
-2.503150146e-06
-2.570546439e-06
-2.638002198e-06
-2.705509102e-06
-2.773030957e-06
-2.84052505e-06
-2.90792168e-06
-2.975180248e-06
-3.042186106e-06
-3.108898412e-06
-3.175289493e-06
-3.241351507e-06
-3.307028121e-06
-3.372304508e-06
-3.437035232e-06
-3.501129568e-06
-3.564561341e-06
-3.62729588e-06
-3.689269308e-06
-3.750277928e-06
-3.810366224e-06
-3.869303122e-06
-3.927100559e-06
-3.983633504e-06
-4.038719428e-06
-4.092221196e-06
-4.143928103e-06
-4.19370237e-06
-4.241682591e-06
-4.287445266e-06
-4.331223146e-06
-4.372620614e-06
-4.412073504e-06
-4.448344994e-06
-4.48275472e-06
-4.514832052e-06
-4.54483428e-06
-4.573117709e-06
-4.608655978e-06
-4.655702477e-06
-4.849447433e-06
-5.040928168e-06
-5.228880404e-06
-5.415204352e-06
)


101
(
-3.083071861e-10
-6.68494284e-09
-1.101778926e-08
-1.584604209e-08
-2.228307862e-08
-3.077892852e-08
-4.136045984e-08
-5.431717149e-08
-6.947330591e-08
-8.676316075e-08
-1.061077871e-07
-1.274578547e-07
-1.506612557e-07
-1.75793545e-07
-2.027956485e-07
-2.315241387e-07
-2.619364648e-07
-2.941102986e-07
-3.278921829e-07
-3.632938409e-07
-4.003979401e-07
-4.389894315e-07
-4.789845224e-07
-5.205026277e-07
-5.635613584e-07
-6.080712235e-07
-6.539384943e-07
-7.011008825e-07
-7.495265947e-07
-7.992239836e-07
-8.502083012e-07
-9.024756925e-07
-9.559356914e-07
-1.010439434e-06
-1.065988209e-06
-1.122606979e-06
-1.180317712e-06
-1.23910462e-06
-1.298907459e-06
-1.359651155e-06
-1.421273398e-06
-1.483741148e-06
-1.54699518e-06
-1.610973086e-06
-1.675613885e-06
-1.740882666e-06
-1.806749978e-06
-1.87317722e-06
-1.940097999e-06
-2.007464448e-06
-2.075241663e-06
-2.143420962e-06
-2.211993319e-06
-2.280943069e-06
-2.350234932e-06
-2.419813742e-06
-2.489626819e-06
-2.559595156e-06
-2.629682333e-06
-2.69985554e-06
-2.770106646e-06
-2.840412637e-06
-2.910744155e-06
-2.981045573e-06
-3.051284434e-06
-3.121331279e-06
-3.191111137e-06
-3.260570692e-06
-3.329701252e-06
-3.3984747e-06
-3.46690493e-06
-3.53484639e-06
-3.602184888e-06
-3.668875382e-06
-3.734873851e-06
-3.800126659e-06
-3.864436269e-06
-3.927857497e-06
-3.990131845e-06
-4.051247979e-06
-4.111099674e-06
-4.16953631e-06
-4.226407237e-06
-4.281461468e-06
-4.334525062e-06
-4.385775534e-06
-4.434732773e-06
-4.481599387e-06
-4.526060882e-06
-4.56856374e-06
-4.607866179e-06
-4.645159352e-06
-4.680055301e-06
-4.712802994e-06
-4.743884933e-06
-4.782672691e-06
-4.83367233e-06
-5.024624996e-06
-5.213646299e-06
-5.399378782e-06
-5.583844207e-06
)


101
(
-3.083148236e-10
-6.699586906e-09
-1.105598111e-08
-1.587658083e-08
-2.227449256e-08
-3.070759606e-08
-4.121503795e-08
-5.407391568e-08
-6.913726065e-08
-8.63380211e-08
-1.056041931e-07
-1.268885534e-07
-1.500569079e-07
-1.751559328e-07
-2.021530861e-07
-2.309237302e-07
-2.614118196e-07
-2.936725033e-07
-3.276123552e-07
-3.631905837e-07
-4.005055302e-07
-4.394018661e-07
-4.79761049e-07
-5.216600196e-07
-5.651322884e-07
-6.101224539e-07
-6.565511459e-07
-7.0435393e-07
-7.534833768e-07
-8.039308314e-07
-8.557039175e-07
-9.088131785e-07
-9.632174321e-07
-1.018771754e-06
-1.075449583e-06
-1.133222319e-06
-1.192091392e-06
-1.25206093e-06
-1.313114436e-06
-1.375213516e-06
-1.438297883e-06
-1.502320957e-06
-1.567195219e-06
-1.632850787e-06
-1.699228042e-06
-1.766283577e-06
-1.833997468e-06
-1.902343231e-06
-1.971265307e-06
-2.040697388e-06
-2.11059097e-06
-2.180918811e-06
-2.251666725e-06
-2.32282603e-06
-2.394382813e-06
-2.466300059e-06
-2.538521578e-06
-2.610973112e-06
-2.683588848e-06
-2.756322906e-06
-2.829157185e-06
-2.9020742e-06
-2.975056346e-06
-3.048064805e-06
-3.121088704e-06
-3.194004467e-06
-3.266716767e-06
-3.339128431e-06
-3.411206046e-06
-3.482931771e-06
-3.554353759e-06
-3.625353228e-06
-3.695810075e-06
-3.765657988e-06
-3.834829876e-06
-3.903269457e-06
-3.970779237e-06
-4.037439077e-06
-4.102992876e-06
-4.167391102e-06
-4.230504854e-06
-4.292237853e-06
-4.352457084e-06
-4.410865099e-06
-4.467227445e-06
-4.521758796e-06
-4.573990565e-06
-4.624020111e-06
-4.671587056e-06
-4.717227193e-06
-4.759657586e-06
-4.799975005e-06
-4.837831661e-06
-4.873486624e-06
-4.907523149e-06
-4.949705484e-06
-5.0047956e-06
-5.193413663e-06
-5.380426013e-06
-5.564361058e-06
-5.747368133e-06
)


101
(
-3.083226345e-10
-6.71444343e-09
-1.109486613e-08
-1.590849948e-08
-2.226764668e-08
-3.063778499e-08
-4.107010163e-08
-5.383006613e-08
-6.879695859e-08
-8.590399843e-08
-1.050852706e-07
-1.262958648e-07
-1.494176108e-07
-1.74473499e-07
-2.014499143e-07
-2.302412645e-07
-2.607832962e-07
-2.931104729e-07
-3.27173457e-07
-3.628987932e-07
-4.003885483e-07
-4.395355234e-07
-4.80208116e-07
-5.224473091e-07
-5.662860557e-07
-6.116931646e-07
-6.586068592e-07
-7.069683448e-07
-7.567219165e-07
-8.078435956e-07
-8.603270357e-07
-9.14184983e-07
-9.694122895e-07
-1.025880936e-06
-1.083567429e-06
-1.142405087e-06
-1.202360149e-06
-1.263425296e-06
-1.325599681e-06
-1.388881607e-06
-1.453242671e-06
-1.518649498e-06
-1.584996121e-06
-1.652190241e-06
-1.72016424e-06
-1.78886188e-06
-1.85826434e-06
-1.928352638e-06
-1.999091991e-06
-2.070415929e-06
-2.142266077e-06
-2.214593967e-06
-2.287370374e-06
-2.360583921e-06
-2.434232094e-06
-2.508298138e-06
-2.582737364e-06
-2.65749117e-06
-2.732473633e-06
-2.807621748e-06
-2.882896864e-06
-2.958278212e-06
-3.033752501e-06
-3.109292925e-06
-3.184914811e-06
-3.260516343e-06
-3.336010712e-06
-3.411265247e-06
-3.486199919e-06
-3.560775237e-06
-3.635059635e-06
-3.708973331e-06
-3.782421852e-06
-3.855330792e-06
-3.927604383e-06
-3.999163917e-06
-4.069805828e-06
-4.139626308e-06
-4.208391952e-06
-4.276046192e-06
-4.342407297e-06
-4.407392178e-06
-4.470938121e-06
-4.532727605e-06
-4.592444181e-06
-4.650263302e-06
-4.705827337e-06
-4.75914179e-06
-4.809880626e-06
-4.85874329e-06
-4.904399473e-06
-4.947899329e-06
-4.988865823e-06
-5.027608238e-06
-5.064766573e-06
-5.110534958e-06
-5.169821962e-06
-5.356530982e-06
-5.541948391e-06
-5.724458484e-06
-5.906356087e-06
)


101
(
-3.083304196e-10
-6.729517553e-09
-1.113445747e-08
-1.594182896e-08
-2.226259822e-08
-3.056958069e-08
-4.092577256e-08
-5.358576909e-08
-6.845270726e-08
-8.546146749e-08
-1.045515581e-07
-1.256804535e-07
-1.487443996e-07
-1.737470833e-07
-2.006878599e-07
-2.294794149e-07
-2.60053564e-07
-2.924265856e-07
-3.265810318e-07
-3.624235304e-07
-4.00053746e-07
-4.394013653e-07
-4.803356995e-07
-5.2287144e-07
-5.670313732e-07
-6.127980008e-07
-6.601261016e-07
-7.089670322e-07
-7.592642507e-07
-8.10983439e-07
-8.641022854e-07
-9.186260111e-07
-9.745700971e-07
-1.031824345e-06
-1.090388599e-06
-1.150181905e-06
-1.211139893e-06
-1.273226271e-06
-1.336423716e-06
-1.400749928e-06
-1.466217363e-06
-1.532828298e-06
-1.600481078e-06
-1.669069496e-06
-1.738503601e-06
-1.808707631e-06
-1.879657851e-06
-1.951332575e-06
-2.023717139e-06
-2.096758602e-06
-2.17039873e-06
-2.244575775e-06
-2.319242172e-06
-2.394371057e-06
-2.469960838e-06
-2.5460098e-06
-2.622488529e-06
-2.699362068e-06
-2.776544947e-06
-2.853960705e-06
-2.931543358e-06
-3.009262958e-06
-3.087099677e-06
-3.165028457e-06
-3.243082919e-06
-3.321193008e-06
-3.399301372e-06
-3.477271534e-06
-3.554978102e-06
-3.632333109e-06
-3.709394133e-06
-3.786106982e-06
-3.862421181e-06
-3.938286577e-06
-4.013593362e-06
-4.088230615e-06
-4.161967057e-06
-4.234901036e-06
-4.306819535e-06
-4.377695943e-06
-4.447313292e-06
-4.51553934e-06
-4.582380765e-06
-4.647570003e-06
-4.710719995e-06
-4.771883754e-06
-4.830805507e-06
-4.887523089e-06
-4.941574704e-06
-4.993717801e-06
-5.042721499e-06
-5.089560845e-06
-5.133800094e-06
-5.175820904e-06
-5.216270506e-06
-5.265803012e-06
-5.329426467e-06
-5.514602342e-06
-5.69878902e-06
-5.880218118e-06
-6.061341171e-06
)


101
(
-3.083382614e-10
-6.744818241e-09
-1.117477716e-08
-1.597661348e-08
-2.225942346e-08
-3.050309446e-08
-4.07822056e-08
-5.33412143e-08
-6.81048669e-08
-8.501087321e-08
-1.040036799e-07
-1.250431007e-07
-1.480383958e-07
-1.729777203e-07
-1.998687435e-07
-2.286409676e-07
-2.592255609e-07
-2.916236635e-07
-3.258400811e-07
-3.617701972e-07
-3.995080865e-07
-4.39010198e-07
-4.801550369e-07
-5.229410589e-07
-5.673773508e-07
-6.134508415e-07
-6.611287799e-07
-7.103737032e-07
-7.611342377e-07
-8.133726894e-07
-8.670528871e-07
-9.221663516e-07
-9.78734954e-07
-1.036659491e-06
-1.095971175e-06
-1.156595915e-06
-1.218455324e-06
-1.281483888e-06
-1.345628874e-06
-1.410895708e-06
-1.477325066e-06
-1.544967914e-06
-1.613750029e-06
-1.683575911e-06
-1.754331687e-06
-1.825910023e-06
-1.898277385e-06
-1.971400597e-06
-2.04527533e-06
-2.119868691e-06
-2.195135602e-06
-2.271005229e-06
-2.347418618e-06
-2.424333426e-06
-2.501731217e-06
-2.579618764e-06
-2.65797834e-06
-2.736803238e-06
-2.816018992e-06
-2.895550564e-06
-2.975309673e-06
-3.055249084e-06
-3.135338287e-06
-3.215542509e-06
-3.295899209e-06
-3.376363821e-06
-3.456918662e-06
-3.537455053e-06
-3.617829449e-06
-3.697903049e-06
-3.777687291e-06
-3.857125089e-06
-3.936199152e-06
-4.014909887e-06
-4.093168622e-06
-4.170846812e-06
-4.247663954e-06
-4.323696275e-06
-4.39873502e-06
-4.472798686e-06
-4.545681403e-06
-4.617183205e-06
-4.687309564e-06
-4.755887622e-06
-4.82253877e-06
-4.887160613e-06
-4.949476058e-06
-5.009673572e-06
-5.067203616e-06
-5.122723094e-06
-5.175184491e-06
-5.225526149e-06
-5.273211012e-06
-5.318709808e-06
-5.362629709e-06
-5.416080362e-06
-5.484219251e-06
-5.668206999e-06
-5.851496398e-06
-6.032153921e-06
-6.212714901e-06
)


101
(
-3.083461032e-10
-6.760349158e-09
-1.121583973e-08
-1.601288687e-08
-2.225818481e-08
-3.043841915e-08
-4.06395273e-08
-5.309655347e-08
-6.775375134e-08
-8.455261521e-08
-1.034421724e-07
-1.243845087e-07
-1.473006053e-07
-1.721663387e-07
-1.989941774e-07
-2.277284035e-07
-2.583021796e-07
-2.907043695e-07
-3.249552486e-07
-3.60943789e-07
-3.987579437e-07
-4.383720665e-07
-4.796773743e-07
-5.226655593e-07
-5.673329303e-07
-6.136639576e-07
-6.616326794e-07
-7.112110169e-07
-7.623562222e-07
-8.150343133e-07
-8.692009582e-07
-9.248322103e-07
-9.819441114e-07
-1.040438339e-06
-1.100376437e-06
-1.161702929e-06
-1.224345494e-06
-1.288222361e-06
-1.353242758e-06
-1.419371256e-06
-1.48665333e-06
-1.555178067e-06
-1.624915453e-06
-1.695806299e-06
-1.767735876e-06
-1.840558085e-06
-1.914215781e-06
-1.988662404e-06
-2.063891126e-06
-2.139882347e-06
-2.216616139e-06
-2.294027025e-06
-2.372042883e-06
-2.450610902e-06
-2.529696493e-06
-2.609292528e-06
-2.68939187e-06
-2.770016327e-06
-2.851105485e-06
-2.932602018e-06
-3.014405965e-06
-3.096446812e-06
-3.178683188e-06
-3.261067566e-06
-3.343631614e-06
-3.426333958e-06
-3.509190649e-06
-3.592137948e-06
-3.675050501e-06
-3.757764982e-06
-3.84023209e-06
-3.922356835e-06
-4.004125604e-06
-4.085583217e-06
-4.166694376e-06
-4.247354314e-06
-4.327247371e-06
-4.406393035e-06
-4.484547686e-06
-4.561773048e-06
-4.637917901e-06
-4.712749405e-06
-4.786201599e-06
-4.858157832e-06
-4.928339427e-06
-4.996550214e-06
-5.062349543e-06
-5.126083173e-06
-5.187234003e-06
-5.246287931e-06
-5.302322511e-06
-5.356325087e-06
-5.40761326e-06
-5.456783274e-06
-5.504373207e-06
-5.561895588e-06
-5.634726262e-06
-5.817850502e-06
-6.00055584e-06
-6.180733981e-06
-6.361246301e-06
)


101
(
-3.083536001e-10
-6.776110973e-09
-1.125765217e-08
-1.605067237e-08
-2.22589305e-08
-3.037562865e-08
-4.049783814e-08
-5.285190306e-08
-6.739962159e-08
-8.408703994e-08
-1.028674916e-07
-1.237052995e-07
-1.465319354e-07
-1.713137722e-07
-1.980655188e-07
-2.267439244e-07
-2.572861421e-07
-2.896713437e-07
-3.239304403e-07
-3.599491153e-07
-3.978092611e-07
-4.374959485e-07
-4.789138217e-07
-5.220549528e-07
-5.669069057e-07
-6.134480514e-07
-6.616533727e-07
-7.115005804e-07
-7.629553127e-07
-8.159928054e-07
-8.705683188e-07
-9.26646011e-07
-9.842291941e-07
-1.043206579e-06
-1.10366333e-06
-1.16556605e-06
-1.228863699e-06
-1.293477742e-06
-1.359288903e-06
-1.426212507e-06
-1.494267177e-06
-1.563555869e-06
-1.634091772e-06
-1.705871047e-06
-1.778809898e-06
-1.852738413e-06
-1.927562719e-06
-2.00321254e-06
-2.079674706e-06
-2.156928874e-06
-2.23497815e-06
-2.313777802e-06
-2.393255688e-06
-2.473344993e-06
-2.553998873e-06
-2.635191268e-06
-2.716904298e-06
-2.799186724e-06
-2.882001186e-06
-2.965315458e-06
-3.049029802e-06
-3.133055404e-06
-3.217334535e-06
-3.301808318e-06
-3.386500625e-06
-3.471357746e-06
-3.556409498e-06
-3.641633352e-06
-3.726946623e-06
-3.812196e-06
-3.897293603e-06
-3.982085517e-06
-4.06652697e-06
-4.150673458e-06
-4.234541102e-06
-4.318094581e-06
-4.401032748e-06
-4.483316779e-06
-4.56462418e-06
-4.645009584e-06
-4.724395206e-06
-4.802591511e-06
-4.879452316e-06
-4.954818139e-06
-5.028538939e-06
-5.100444256e-06
-5.169871103e-06
-5.237208187e-06
-5.302099215e-06
-5.364871352e-06
-5.424592771e-06
-5.482435928e-06
-5.537479701e-06
-5.590494006e-06
-5.641968555e-06
-5.703769567e-06
-5.781424657e-06
-5.963976207e-06
-6.146379428e-06
-6.326364637e-06
-6.5070097e-06
)


101
(
-3.08361326e-10
-6.792123876e-09
-1.130026745e-08
-1.609004263e-08
-2.226177753e-08
-3.031489021e-08
-4.035736236e-08
-5.260754129e-08
-6.704294667e-08
-8.361475751e-08
-1.022804164e-07
-1.230064739e-07
-1.45733717e-07
-1.704214035e-07
-1.970846559e-07
-2.256904534e-07
-2.561808998e-07
-2.885282422e-07
-3.227703316e-07
-3.587916988e-07
-3.966687391e-07
-4.363919873e-07
-4.778771217e-07
-5.211221772e-07
-5.661106011e-07
-6.128148801e-07
-6.612064538e-07
-7.112640637e-07
-7.629586642e-07
-8.162769007e-07
-8.711813305e-07
-9.276312639e-07
-9.856170139e-07
-1.045004361e-06
-1.105887726e-06
-1.168253379e-06
-1.232078474e-06
-1.297304065e-06
-1.363802371e-06
-1.431449361e-06
-1.500213041e-06
-1.57018498e-06
-1.641393576e-06
-1.713895801e-06
-1.787666704e-06
-1.862547414e-06
-1.938413274e-06
-2.015150581e-06
-2.092731899e-06
-2.171129485e-06
-2.250360015e-06
-2.33040258e-06
-2.411201071e-06
-2.492681983e-06
-2.574784897e-06
-2.657466334e-06
-2.740687594e-06
-2.824506629e-06
-2.908907334e-06
-2.993892745e-06
-3.079379179e-06
-3.165272819e-06
-3.251491531e-06
-3.337965489e-06
-3.424708854e-06
-3.511654026e-06
-3.598827889e-06
-3.68622847e-06
-3.773820668e-06
-3.861485909e-06
-3.949134507e-06
-4.036567984e-06
-4.123685564e-06
-4.210515866e-06
-4.297086309e-06
-4.383436053e-06
-4.469341642e-06
-4.554765755e-06
-4.63928611e-06
-4.722876057e-06
-4.805493851e-06
-4.887056469e-06
-4.967404461e-06
-5.046263263e-06
-5.123544335e-06
-5.199210422e-06
-5.272433635e-06
-5.343477333e-06
-5.412203577e-06
-5.478878751e-06
-5.542412906e-06
-5.604272305e-06
-5.663261336e-06
-5.720275063e-06
-5.775852021e-06
-5.842133053e-06
-5.924756329e-06
-6.107018254e-06
-6.289395055e-06
-6.469458515e-06
-6.650264117e-06
)


101
(
-3.083692811e-10