/*--------------------------------*- C++ -*----------------------------------*\
| =========                 |                                                 |
| \\      /  F ield         | OpenFOAM: The Open Source CFD Toolbox           |
|  \\    /   O peration     | Version:  2.3.1                                 |
|   \\  /    A nd           | Web:      www.OpenFOAM.org                      |
|    \\/     M anipulation  |                                                 |
\*---------------------------------------------------------------------------*/
FoamFile
{
    version     2.0;
    format      ascii;
    class       dictionary;
    location    "constant";
    object      DPSI11;
}
// * * * * * * * * * * * * * * * * * * * * * * * * * * * * * * * * * * * * * //

DPSI11_table
101
(

101
(
1.747277359e-10
1.085273207e-10
1.94113175e-11
-3.188559751e-12
-3.293412495e-12
-2.962135554e-12
-1.769833768e-12
-7.793777693e-13
-3.906645489e-13
0
0
-3.765761637e-13
-3.946675918e-13
-1.716956763e-14
0
0
0
0
0
0
0
4.033771284e-13
4.042678504e-13
0
0
0
0
0
0
0
0
0
0
0
-2.218430154e-13
-4.143996881e-13
-1.925009461e-13
-1.317259455e-14
-3.881071936e-13
-4.03867168e-13
-2.841130702e-14
2.826910198e-13
1.896992016e-13
-2.835250119e-13
-1.902504329e-13
0
0
0
0
0
0
0
2.277656617e-13
4.253036187e-13
1.974962168e-13
2.221323837e-13
4.26887444e-13
4.346059379e-13
4.279276499e-13
5.078957598e-13
6.29409289e-13
5.48295334e-13
6.590012671e-13
5.674330158e-13
4.309546473e-13
2.941705885e-13
4.319382229e-13
0
-4.329118256e-13
0
-4.3387693e-13
-4.343566684e-13
-2.66026634e-13
-6.836179738e-13
-6.049765078e-13
-9.073775261e-13
-1.045388402e-12
-8.990446859e-13
-1.075065013e-12
-1.004861491e-12
-1.221549013e-12
-1.492194043e-12
-1.479203203e-12
-1.502496541e-12
-1.356344944e-12
-1.405494033e-12
-1.297233226e-12
-8.83847924e-13
-8.770246977e-13
-8.857564534e-13
-4.433473798e-13
0
0
0
-8.38469111e-13
-1.782978727e-12
-9.446597413e-13
0
0
0
0
)


101
(
1.737637126e-10
1.085092503e-10
2.01017911e-11
-2.967543462e-12
-3.350088337e-12
-2.972362182e-12
-1.826296748e-12
-8.287546377e-13
-4.154141081e-13
-2.571215641e-14
5.036532696e-15
-3.29952247e-13
-3.980991968e-13
-7.16444062e-14
-7.42942041e-15
9.490330387e-16
1.871021335e-15
1.934717119e-16
-2.09018637e-15
-3.312867099e-15
-2.74944262e-15
3.055273382e-13
4.025690531e-13
1.108996513e-13
1.715798049e-14
-4.330405442e-16
-4.555921744e-15
-4.417666515e-15
-1.973687143e-15
1.185600767e-15
3.437209753e-15
3.71032709e-15
1.890651481e-15
-1.128327217e-15
-1.405315444e-13
-3.28930437e-13
-2.715269849e-13
-1.115630704e-13
-2.576089814e-13
-3.724832972e-13
-1.910514607e-13
9.905380292e-14
1.922010002e-13
-5.384674349e-14
-1.626256673e-13
-8.298686609e-14
-2.917106547e-14
-1.419200596e-14
-9.776445585e-15
-8.183790422e-15
-8.530195936e-15
-1.036391759e-14
9.838019397e-14
2.7558433e-13
2.709283842e-13
2.428051206e-13
3.362067142e-13
4.135830115e-13
4.427312819e-13
4.896033161e-13
5.783908907e-13
6.012970529e-13
6.460356962e-13
6.487779404e-13
5.783584449e-13
4.735062692e-13
4.672398987e-13
3.040054221e-13
-4.863296263e-14
-1.237250477e-13
-2.690492129e-13
-3.989682124e-13
-3.60930075e-13
-4.648376648e-13
-5.496672761e-13
-7.081825379e-13
-9.208545666e-13
-1.009736418e-12
-1.103911308e-12
-1.128390796e-12
-1.163800104e-12
-1.314432358e-12
-1.467863364e-12
-1.557970271e-12
-1.51781876e-12
-1.51879338e-12
-1.485575297e-12
-1.460154494e-12
-1.317106281e-12
-1.026770429e-12
-5.634401504e-13
-4.723795312e-13
-4.211049907e-13
-2.77437465e-14
-5.708128095e-13
-1.941376812e-12
-1.370391218e-12
0
0
0
0
)


101
(
1.727936028e-10
1.084835077e-10
2.079315337e-11
-2.734929008e-12
-3.401987586e-12
-2.984785052e-12
-1.880483904e-12
-8.796140793e-13
-4.417896805e-13
-5.202911465e-14
7.439527619e-15
-2.872279053e-13
-3.940826062e-13
-1.203179927e-13
-2.224026108e-14
-2.51966203e-16
3.774868421e-15
1.283627768e-15
-3.322986588e-15
-6.467870974e-15
-6.228587683e-15
2.29129915e-13
3.763097766e-13
1.912912522e-13
5.782657234e-14
9.183388728e-15
-6.306628308e-15
-9.459623868e-15
-6.192371521e-15
1.219822064e-17
5.657198084e-15
8.059730538e-15
6.075963321e-15
6.337961279e-16
-8.954851355e-14
-2.502542343e-13
-2.8549839e-13
-1.878193788e-13
-2.186109069e-13
-3.192909183e-13
-2.644092457e-13
-5.535145197e-14
1.118234098e-13
4.825567962e-14
-7.123637181e-14
-8.834230273e-14
-5.769106303e-14
-3.558981122e-14
-2.523238465e-14
-1.968467106e-14
-1.739415144e-14
-1.909846362e-14
3.036663757e-14
1.522675536e-13
2.281644646e-13
2.457697272e-13
2.956095769e-13
3.697765327e-13
4.2624787e-13
4.748184074e-13
5.426094344e-13
5.958788631e-13
6.414424684e-13
6.712320499e-13
6.57255277e-13
6.016875447e-13
5.696269825e-13
4.956773782e-13
2.776987106e-13
6.104551078e-14
-1.397621108e-13
-3.163227388e-13
-3.799581483e-13
-4.156496682e-13
-4.618827321e-13
-5.539942871e-13
-7.265802589e-13
-8.998845556e-13
-1.046814201e-12
-1.149794931e-12
-1.211386551e-12
-1.278130649e-12
-1.384644808e-12
-1.489169355e-12
-1.538209761e-12
-1.593303062e-12
-1.627445304e-12
-1.715840731e-12
-1.647355392e-12
-1.541630502e-12
-1.336127743e-12
-6.375657727e-13
-5.657167646e-13
-5.016915561e-13
-6.630639251e-13
-2.080094792e-12
-1.456668086e-12
0
0
0
0
)


101
(
1.71817235e-10
1.084499905e-10
2.148533505e-11
-2.490746918e-12
-3.448781383e-12
-2.999198812e-12
-1.932588034e-12
-9.316919617e-13
-4.698595869e-13
-7.900845237e-14
7.219277626e-15
-2.483122097e-13
-3.839410565e-13
-1.625767817e-13
-4.266620553e-14
-4.515539951e-15
5.160847058e-15
3.088960856e-15
-3.543985563e-15
-9.126526116e-15
-1.01598798e-14
1.690373637e-13
3.36615433e-13
2.425800303e-13
1.07426868e-13
3.105842242e-14
-2.003826928e-15
-1.308458163e-14
-1.175598295e-14
-3.709447423e-15
5.726919038e-15
1.185764983e-14
1.173991245e-14
5.368181985e-15
-5.566346508e-14
-1.85238406e-13
-2.649106502e-13
-2.308801422e-13
-2.207821442e-13
-2.811841881e-13
-2.855975866e-13
-1.619099282e-13
5.28693187e-15
5.541651226e-14
3.249477782e-16
-4.682613663e-14
-5.432426151e-14
-4.74528118e-14
-4.097271296e-14
-3.493341766e-14
-2.938207005e-14
-2.764668305e-14
-5.321921553e-15
6.786975424e-14
1.520065357e-13
2.072818568e-13
2.591906315e-13
3.263514236e-13
3.928634583e-13
4.503947801e-13
5.110989943e-13
5.693137274e-13
6.200598233e-13
6.608481685e-13
6.786492317e-13
6.657738529e-13
6.49660987e-13
6.241676442e-13
5.198663933e-13
3.342933642e-13
9.569446293e-14
-1.502810064e-13
-3.171310534e-13
-3.954863306e-13
-4.288193e-13
-4.633902488e-13
-5.602412535e-13
-7.175047716e-13
-8.828572163e-13
-1.028189118e-12
-1.167373687e-12
-1.30102167e-12
-1.409350929e-12
-1.465784546e-12
-1.45683089e-12
-1.490949096e-12
-1.688696611e-12
-1.853135232e-12
-1.781885902e-12
-1.88238494e-12
-2.021294361e-12
-1.412144844e-12
-6.865044734e-13
-9.751281253e-13
-1.56396865e-12
-2.052594799e-12
-1.206116196e-12
0
0
0
0
)


101
(
1.708345444e-10
1.084085748e-10
2.217820135e-11
-2.234985225e-12
-3.490170477e-12
-3.015438513e-12
-1.982773134e-12
-9.847405153e-13
-4.996931074e-13
-1.067091922e-13
4.480701389e-15
-2.131261105e-13
-3.688571569e-13
-1.981212051e-13
-6.703543628e-14
-1.237216455e-14
5.399741186e-15
5.353783907e-15
-2.689194418e-15
-1.096498028e-14
-1.415656624e-14
1.214493459e-13
2.907330041e-13
2.685782048e-13
1.555694781e-13
6.299345144e-14
1.057051093e-14
-1.285954844e-14
-1.716768234e-14
-9.485473033e-15
3.173279396e-15
1.395041038e-14
1.768255661e-14
1.255970244e-14
-3.067102184e-14
-1.331287199e-13
-2.289680831e-13
-2.449274804e-13
-2.340733225e-13
-2.623176301e-13
-2.841828517e-13
-2.246363266e-13
-9.339841368e-14
7.223051228e-15
2.460243836e-14
-1.98425534e-16
-2.279066739e-14
-3.604772162e-14
-4.447019691e-14
-4.737734607e-14
-4.403182714e-14
-3.900066296e-14
-2.585301403e-14
1.61163345e-14
8.245487592e-14
1.482950644e-13
2.108884078e-13
2.803119719e-13
3.529157949e-13
4.192308556e-13
4.803690719e-13
5.368549745e-13
5.85817132e-13
6.262204025e-13
6.553788295e-13
6.693962486e-13
6.770751749e-13
6.845337916e-13
6.622179908e-13
5.70730268e-13
3.841878771e-13
1.208850293e-13
-1.327436488e-13
-3.06403583e-13
-3.98869883e-13
-4.351910012e-13
-4.679055589e-13
-5.521114346e-13
-6.76471894e-13
-8.074589839e-13
-9.813287819e-13
-1.208726408e-12
-1.405238247e-12
-1.509423416e-12
-1.477604799e-12
-1.40666707e-12
-1.660977431e-12
-1.854134876e-12
-1.859943772e-12
-2.14656311e-12
-2.302603987e-12
-1.952731297e-12
-1.29931592e-12
-1.725153829e-12
-2.171672413e-12
-2.206547654e-12
-1.28991609e-12
0
0
0
0
)


101
(
1.698454875e-10
1.083591791e-10
2.287163857e-11
-1.967686933e-12
-3.525830907e-12
-3.033292328e-12
-2.03122938e-12
-1.038528606e-12
-5.312926404e-13
-1.352034562e-13
-7.451622055e-16
-1.816268901e-13
-3.498726389e-13
-2.268308856e-13
-9.377348938e-14
-2.396594195e-14
3.8656645e-15
7.683692974e-15
-8.292463412e-16
-1.171449572e-14
-1.77533246e-14
8.353891285e-14
2.432486666e-13
2.740725851e-13
1.95561048e-13
1.006322633e-13
3.191645813e-14
-6.587896785e-15
-2.035800459e-14
-1.610339014e-14
-1.923960684e-15
1.349675865e-14
2.26284603e-14
2.117839436e-14
-9.72823006e-15
-9.050352432e-14
-1.877643517e-13
-2.378504086e-13
-2.440468162e-13
-2.566559082e-13
-2.768889593e-13
-2.557312905e-13
-1.689603023e-13
-6.276489772e-14
4.597587636e-15
2.400608249e-14
1.664885748e-14
-2.204610568e-15
-2.555431398e-14
-4.527478157e-14
-5.404452329e-14
-5.230690261e-14
-4.182233707e-14
-1.513516003e-14
3.19532641e-14
9.106753487e-14
1.563781342e-13
2.302208579e-13
3.104196849e-13
3.874844418e-13
4.553588526e-13
5.115271679e-13
5.539217445e-13
5.827868666e-13
6.026968659e-13
6.212679676e-13
6.445611588e-13
6.734136563e-13
6.989609394e-13
6.98307961e-13
6.241995018e-13
4.354354973e-13
1.689121279e-13
-8.464762247e-14
-2.762500135e-13
-3.95449303e-13
-4.466715114e-13
-4.773639117e-13
-5.289279795e-13
-6.008721187e-13
-7.407037784e-13
-9.892165024e-13
-1.28857903e-12
-1.544935921e-12
-1.615555265e-12
-1.461271434e-12
-1.579614721e-12
-1.862880221e-12
-1.802048356e-12
-2.02627481e-12
-2.359471385e-12
-2.526584939e-12
-2.541369896e-12
-2.43770748e-12
-2.105857774e-12
-2.589686895e-12
-1.728806341e-12
0
0
0
0
)


101
(
1.688499141e-10
1.083016788e-10
2.356554324e-11
-1.688852444e-12
-3.555479854e-12
-3.052555729e-12
-2.078083965e-12
-1.092842861e-12
-5.646597703e-13
-1.645881248e-13
-8.41195752e-15
-1.537520601e-13
-3.279009088e-13
-2.487739526e-13
-1.214523127e-13
-3.919765122e-14
-2.433586306e-17
9.586535777e-15
1.9068402e-15
-1.120568081e-14
-2.050387623e-14
5.340247802e-14
1.970296208e-13
2.638080141e-13
2.238352017e-13
1.391399466e-13
6.06631017e-14
7.090873953e-15
-1.912819563e-14
-2.182751417e-14
-8.719208804e-15
1.028085928e-14
2.542766255e-14
2.980915931e-14
9.376306808e-15
-5.374803433e-14
-1.452453257e-13
-2.163435595e-13
-2.451126809e-13
-2.569494708e-13
-2.711366601e-13
-2.679101229e-13
-2.185347617e-13
-1.311416439e-13
-4.349293945e-14
1.651965443e-14
4.335681505e-14
4.081268124e-14
1.577142612e-14
-1.887052566e-14
-4.704540524e-14
-5.928631577e-14
-5.538917308e-14
-3.626273527e-14
-1.722427556e-15
4.620673918e-14
1.061323133e-13
1.79870217e-13
2.666296843e-13
3.57503669e-13
4.403915907e-13
5.051998402e-13
5.45157103e-13
5.579464083e-13
5.50830803e-13
5.451521471e-13
5.607574305e-13
5.949899894e-13
6.357100362e-13
6.844651617e-13
7.229236658e-13
6.778379562e-13
5.01782844e-13
2.496480283e-13
-3.99608592e-15
-2.299321097e-13
-3.95640647e-13
-4.783509188e-13
-4.987785758e-13
-4.998779402e-13
-5.603640843e-13
-7.340743278e-13
-1.036330927e-12
-1.441734876e-12
-1.694786247e-12
-1.636743735e-12
-1.601281187e-12
-1.685079308e-12
-1.563488795e-12
-1.868360876e-12
-2.080341946e-12
-2.625380515e-12
-3.674588421e-12
-3.236759558e-12
-2.802617814e-12
-3.449323068e-12
-1.917258632e-12
0
0
0
0
)


101
(
1.678477168e-10
1.08235949e-10
2.425980052e-11
-1.398493634e-12
-3.57878771e-12
-3.072987605e-12
-2.12350087e-12
-1.147533243e-12
-5.997494123e-13
-1.948933633e-13
-1.848107951e-14
-1.294895738e-13
-3.037890976e-13
-2.641923657e-13
-1.487930612e-13
-5.766079444e-14
-6.705696357e-15
1.05051783e-14
5.22781831e-15
-9.339653438e-15
-2.202471457e-14
2.967292445e-14
1.539053687e-13
2.422595756e-13
2.390515563e-13
1.739989158e-13
9.423641786e-14
2.845649131e-14
-1.166499891e-14
-2.452712395e-14
-1.569469651e-14
4.762009102e-15
2.545518862e-14
3.698752199e-14
2.700589057e-14
-2.038449185e-14
-1.021409141e-13
-1.842330464e-13
-2.350521626e-13
-2.571605464e-13
-2.691469423e-13
-2.716375568e-13
-2.46614522e-13
-1.851288252e-13
-1.007676813e-13
-1.738747081e-14
4.560031086e-14
7.582077393e-14
6.869779615e-14
3.252766947e-14
-1.282588791e-14
-4.67952074e-14
-5.902455692e-14
-4.988884925e-14
-2.412124846e-14
1.444165525e-14
6.573617746e-14
1.339332714e-13
2.221796123e-13
3.252646274e-13
4.292077119e-13
5.159904457e-13
5.694528738e-13
5.775893759e-13
5.404688124e-13
4.86323641e-13
4.601008976e-13
4.737715229e-13
4.995630498e-13
5.390091495e-13
6.289479544e-13
7.288524368e-13
7.198869692e-13
5.712761236e-13
3.55271719e-13
1.056247653e-13
-1.731091504e-13
-4.181994326e-13
-5.404366612e-13
-5.322347831e-13
-5.026867461e-13
-5.567113237e-13
-7.344404418e-13
-1.118752216e-12
-1.534606076e-12
-1.62159987e-12
-1.624159446e-12
-1.680094612e-12
-1.393537152e-12
-1.67211696e-12
-1.936513954e-12
-2.405252548e-12
-4.097196989e-12
-4.348084808e-12
-3.736021586e-12
-4.348047705e-12
-2.446511731e-12
0
0
0
0
)


101
(
1.668388091e-10
1.081618537e-10
2.495430593e-11
-1.096601215e-12
-3.595499607e-12
-3.094376635e-12
-2.167591064e-12
-1.202423875e-12
-6.365032168e-13
-2.261962407e-13
-3.093353491e-14
-1.088212346e-13
-2.782762067e-13
-2.733641619e-13
-1.746796811e-13
-7.882244284e-14
-1.645479443e-14
9.904321796e-15
8.720412191e-15
-6.210304742e-15
-2.199025619e-14
1.153680169e-14
1.150542486e-13
2.132712909e-13
2.414732709e-13
2.017617674e-13
1.293283562e-13
5.648232519e-14
3.133219393e-15
-2.215819646e-14
-2.080080622e-14
-1.69881187e-15
2.288637569e-14
4.166716582e-14
4.24288761e-14
1.039984353e-14
-5.849229074e-14
-1.433302691e-13
-2.123743514e-13
-2.516865793e-13
-2.692235673e-13
-2.738590646e-13
-2.613033626e-13
-2.2159561e-13
-1.525551943e-13
-6.462203916e-14
2.35626775e-14
9.030700195e-14
1.170461776e-13
9.878483567e-14
4.962244411e-14
-4.281368938e-15
-4.031982803e-14
-4.953999659e-14
-3.558018599e-14
-6.340455586e-15
3.52912735e-14
9.417019119e-14
1.772753494e-13
2.85376202e-13
4.079355263e-13
5.23784368e-13
6.087278977e-13
6.380117575e-13
5.929611577e-13
4.900501918e-13
3.934436837e-13
3.533519704e-13
3.412787179e-13
3.248168887e-13
3.731389254e-13
5.3735588e-13
6.944369406e-13
7.10069715e-13
6.211237359e-13
4.861833724e-13
2.47388335e-13
-1.226147112e-13
-4.706053955e-13
-6.150097886e-13
-5.606614398e-13
-4.932712522e-13
-5.01594523e-13
-6.42442956e-13
-1.061320376e-12
-1.377650846e-12
-1.613120126e-12
-1.783549911e-12
-1.350734772e-12
-1.484345013e-12
-1.889176163e-12
-2.178596085e-12
-3.928593364e-12
-5.86299258e-12
-4.985780008e-12
-4.879450014e-12
-3.128268844e-12
0
0
0
0
)


101
(
1.658230409e-10
1.08079278e-10
2.564893264e-11
-7.832323951e-13
-3.605313994e-12
-3.116451949e-12
-2.210479553e-12
-1.257381527e-12
-6.748490624e-13
-2.585289155e-13
-4.570035323e-14
-9.174655353e-14
-2.520338803e-13
-2.767134791e-13
-1.981727458e-13
-1.019680536e-13
-2.94152348e-14
7.236285694e-15
1.192060289e-14
-2.000707895e-15
-2.024574801e-14
-1.57780935e-15
8.129934547e-14
1.802718819e-13
2.325934096e-13
2.201355175e-13
1.6238375e-13
8.906067894e-14
2.535891854e-14
-1.305008971e-14
-2.186263526e-14
-7.176880539e-15
1.888934435e-14
4.367564897e-14
5.472105551e-14
3.803699131e-14
-1.503382231e-14
-9.49605629e-14
-1.758377642e-13
-2.34835529e-13
-2.665440896e-13
-2.770614819e-13
-2.707195358e-13
-2.444844699e-13
-1.917975534e-13
-1.116359789e-13
-1.35571313e-14
8.16265082e-14
1.469963248e-13
1.630170789e-13
1.299303017e-13
6.897408972e-14
1.02606289e-14
-2.423026076e-14
-3.004116223e-14
-1.476463931e-14
1.438554757e-14
5.998779409e-14
1.31215425e-13
2.338959936e-13
3.635279645e-13
5.01748357e-13
6.228514389e-13
6.952257241e-13
6.800044349e-13
5.611551162e-13
3.936701431e-13
2.716273059e-13
2.057736686e-13
1.25394418e-13
6.911105918e-14
1.783684501e-13
4.150934936e-13
5.793463593e-13
6.335167327e-13
6.844629587e-13
6.757222109e-13
4.12874107e-13
-8.870366508e-14
-5.370854684e-13
-6.389120247e-13
-4.950829306e-13
-3.403204862e-13
-1.694046411e-13
-3.907622825e-13
-8.489035647e-13
-1.350560925e-12
-1.975454724e-12
-1.460379232e-12
-1.252148262e-12
-2.008108272e-12
-2.348722763e-12
-3.376762578e-12
-6.284230818e-12
-6.331154743e-12
-6.196428254e-12
-4.032957435e-12
0
0
0
0
)


101
(
1.648003259e-10
1.07988107e-10
2.634357493e-11
-4.583904156e-13
-3.607937957e-12
-3.138949997e-12
-2.252225579e-12
-1.312293077e-12
-7.14735676e-13
-2.919241059e-13
-6.276798615e-14
-7.827206386e-14
-2.256981279e-13
-2.747174693e-13
-2.184471198e-13
-1.262822442e-13
-4.555100561e-14
2.007354696e-15
1.429935356e-14
2.958266908e-15
-1.676792308e-14
-1.005246923e-14
5.312712872e-14
1.461262904e-13
2.146269676e-13
2.281214627e-13
1.90294299e-13
1.234683224e-13
5.40579093e-14
3.599413885e-15
-1.697214772e-14
-9.403339029e-15
1.537791292e-14
4.392431709e-14
6.362734387e-14
6.143988514e-14
2.631473889e-14
-4.145758231e-14
-1.254310358e-13
-2.016764112e-13
-2.538062802e-13
-2.782474958e-13
-2.794720664e-13
-2.609480791e-13
-2.195039511e-13
-1.501678157e-13
-5.37449237e-14
5.630511183e-14
1.536326021e-13
2.097852485e-13
2.09543685e-13
1.608828875e-13
9.136398898e-14
3.213020905e-14
3.505833607e-16
-5.349058862e-15
5.383558751e-15
3.16202087e-14
8.314306393e-14
1.69704829e-13
2.914206816e-13
4.336934074e-13
5.745139749e-13
6.875170617e-13
7.292876264e-13
6.471431292e-13
4.488432118e-13
2.392462351e-13
1.011332415e-13
-2.388709641e-14
-1.715881941e-13
-1.875472575e-13
1.344714924e-14
2.524490047e-13
4.030659998e-13
5.904082871e-13
8.557882e-13
9.425694565e-13
5.971472168e-13
-7.4035738e-14
-5.123096925e-13
-4.379854245e-13
-1.401567941e-13
2.901321109e-13
2.627928693e-13
-2.896950938e-13
-6.621270908e-13
-2.109080075e-12
-1.98523347e-12
-1.043458751e-12
-1.883000843e-12
-2.226332037e-12
-2.929102233e-12
-6.44907869e-12
-8.077170342e-12
-8.107403536e-12
-4.681811298e-12
0
0
0
0
)


101
(
1.637705351e-10
1.078881818e-10
2.703811582e-11
-1.220678885e-13
-3.603087234e-12
-3.161637291e-12
-2.292958677e-12
-1.36702051e-12
-7.560164107e-13
-3.264150073e-13
-8.209629078e-14
-6.839943911e-14
-1.998415201e-13
-2.678942635e-13
-2.348893284e-13
-1.508974454e-13
-6.460967197e-14
-6.150822834e-15
1.526095318e-14
8.246406985e-15
-1.1661624e-14
-1.427718381e-14
3.090949234e-14
1.133092596e-13
1.902057024e-13
2.258869732e-13
2.106687712e-13
1.566185916e-13
8.726768563e-14
2.76812014e-14
-4.803542599e-15
-6.299531578e-15
1.475807497e-14
4.45114437e-14
7.006336312e-14
7.996160985e-14
6.306623843e-14
1.323975091e-14
-6.370705548e-14
-1.496160115e-13
-2.23176987e-13
-2.697359899e-13
-2.861695801e-13
-2.763709159e-13
-2.417730638e-13
-1.800139975e-13
-8.89769578e-14
2.501666755e-14
1.416870106e-13
2.319275767e-13
2.706179066e-13
2.506986588e-13
1.884220299e-13
1.149863177e-13
5.794850922e-14
2.592930004e-14
1.149162441e-14
1.063605217e-14
3.279269299e-14
9.249341787e-14
1.937235336e-13
3.219406278e-13
4.55276353e-13
5.776701527e-13
6.652556945e-13
6.575564185e-13
4.98436913e-13
2.405714666e-13
1.854817998e-14
-1.450009288e-13
-3.248204236e-13
-4.383748736e-13
-3.312593496e-13
-9.258052542e-14
9.902262746e-14
3.247786081e-13
7.351575122e-13
1.192295915e-12
1.307190626e-12
7.739237355e-13
5.223596116e-14
-1.231812162e-13
2.127222152e-13
8.545112278e-13
9.744107363e-13
8.465536328e-14
5.387501197e-13
-2.030382921e-12
-2.801305925e-12
-8.887502182e-13
-2.221887259e-12
-1.344621529e-12
-2.241037962e-12
-7.355502935e-12
-1.051518525e-11
-1.02819265e-11
-4.934137441e-12
-2.302132551e-17
0
0
0
)


101
(
1.627335395e-10
1.077793544e-10
2.773243757e-11
2.257196888e-13
-3.590531421e-12
-3.184197371e-12
-2.332673036e-12
-1.421516363e-12
-7.986348178e-13
-3.619875935e-13
-1.036180307e-13
-6.213814346e-14
-1.749936738e-13
-2.568408151e-13
-2.470082998e-13
-1.749068826e-13
-8.618937443e-14
-1.74853078e-14
1.426224597e-14
1.335025078e-14
-5.25115468e-15
-1.465910128e-14
1.475264248e-14
8.386307548e-14
1.622408166e-13
2.146617002e-13
2.220749892e-13
1.856343616e-13
1.225042531e-13
5.803713938e-14
1.498079286e-14
3.673526036e-15
1.935864376e-14
4.815177616e-14
7.642133984e-14
9.442858074e-14
9.323006971e-14
6.422659992e-14
3.906362114e-15
-8.005488708e-14
-1.692508081e-13
-2.418481312e-13
-2.833880713e-13
-2.905810284e-13
-2.646889948e-13
-2.072595903e-13
-1.190102981e-13
-4.700807898e-15
1.206232292e-13
2.322989574e-13
3.036463091e-13
3.181426305e-13
2.785117257e-13
2.071677985e-13
1.33889323e-13
7.656797942e-14
3.351881933e-14
-7.767651182e-16
-1.830318793e-14
1.734993011e-15
7.191952615e-14
1.770555775e-13
2.852049457e-13
3.790926291e-13
4.633479989e-13
5.159565178e-13
4.54633272e-13
2.344499949e-13
-4.107612167e-14
-2.543424348e-13
-4.283619723e-13
-5.587196712e-13
-5.168595581e-13
-3.067728411e-13
-9.97267569e-14
1.08502228e-13
5.000852635e-13
1.131314884e-12
1.746186082e-12
1.731467572e-12
1.076215492e-12
6.388724034e-13
7.802067102e-13
1.377199373e-12
1.637579695e-12
2.224242278e-13
2.217453544e-12
-1.158274294e-12
-3.37637859e-12
-3.772956154e-13
-3.500340743e-12
-8.976642303e-14
-9.083634489e-13
-8.92642507e-12
-1.378816003e-11
-1.334624697e-11
-5.073791849e-12
0
0
0
0
)


101
(
1.616891672e-10
1.076614652e-10
2.842643299e-11
5.849674576e-13
-3.569970927e-12
-3.206377853e-12
-2.371444064e-12
-1.475674181e-12
-8.424853134e-13
-3.986150359e-13
-1.272622858e-13
-5.951811026e-14
-1.516757615e-13
-2.42145525e-13
-2.54468744e-13
-1.97392245e-13
-1.097051144e-13
-3.211318595e-14
1.077791408e-14
1.770117462e-14
2.073659238e-15
-1.169039769e-14
4.521562229e-15
5.925736266e-14
1.335483711e-13
1.965928987e-13
2.243073776e-13
2.081744924e-13
1.569274833e-13
9.279499481e-14
4.184916398e-14
2.11019699e-14
3.077242239e-14
5.751464847e-14
8.608647042e-14
1.075338457e-13
1.167958999e-13
1.071954307e-13
6.987501059e-14
7.398892446e-16
-9.195354159e-14
-1.86852823e-13
-2.601439252e-13
-2.963591276e-13
-2.889777682e-13
-2.388823692e-13
-1.508796941e-13
-3.369946269e-14
9.70471032e-14
2.19277235e-13
3.097368115e-13
3.513795065e-13
3.390599547e-13
2.839312991e-13
2.090399992e-13
1.349581403e-13
6.620176948e-14
-2.780527807e-15
-6.692699216e-14
-1.000241842e-13
-7.41626937e-14
4.488087123e-15
8.998378831e-14
1.402336066e-13
1.687169878e-13
2.17796364e-13
2.52080063e-13
1.579867319e-13
-8.126413566e-14
-3.311971106e-13
-5.013726549e-13
-5.913122527e-13
-5.461337175e-13
-3.444521513e-13
-1.194618145e-13
6.939229708e-14
3.607300459e-13
9.427406629e-13
1.848246107e-12
2.484986257e-12
2.323316483e-12
1.873320193e-12
1.635442553e-12
1.600724317e-12
1.635414169e-12
-1.549231243e-13
3.385262574e-12
1.072785303e-12
-2.564881913e-12
6.867601243e-13
-4.741488787e-12
8.920504474e-13
1.785791143e-12
-9.543974377e-12
-1.759316283e-11
-1.849534598e-11
-6.636161143e-12
-2.436404064e-17
0
0
0
)


101
(
1.606373105e-10
1.07534398e-10
2.911997242e-11
9.556474584e-13
-3.541160029e-12
-3.227865544e-12
-2.409267732e-12
-1.529420928e-12
-8.874356528e-13
-4.363058893e-13
-1.529667981e-13
-6.049140801e-14
-1.303612438e-13
-2.245269099e-13
-2.570476169e-13
-2.174256231e-13
-1.344745653e-13
-4.998660076e-14
4.386546567e-15
2.071604752e-14
9.81291938e-15
-5.934890726e-15
-1.607072816e-16
4.053962872e-14
1.067858471e-13
1.74330127e-13
2.182181793e-13
2.2284947e-13
1.878918743e-13
1.295473354e-13
7.442079748e-14
4.549993221e-14
4.937746548e-14
7.429274378e-14
1.024276233e-13
1.236275301e-13
1.364783262e-13
1.402403609e-13
1.266900396e-13
8.267093332e-14
2.145298971e-15
-1.029599796e-13
-2.066994975e-13
-2.817897192e-13
-3.076883705e-13
-2.767720013e-13
-1.931471945e-13
-7.064467749e-14
6.854649676e-14
1.984944345e-13
2.967554618e-13
3.505620181e-13
3.567037659e-13
3.213488875e-13
2.581391448e-13
1.816657343e-13
9.741772594e-14
4.400533897e-16
-1.088981838e-13
-2.040665064e-13
-2.393351224e-13
-1.95952749e-13
-1.201241923e-13
-9.247959793e-14
-1.336691666e-13
-1.611965189e-13
-1.020505013e-13
-4.395487038e-14
-1.369836695e-13
-3.50911271e-13
-5.220321606e-13
-5.657503986e-13
-4.690928648e-13
-2.403518438e-13
1.581146591e-14
2.057297295e-13
3.963465284e-13
8.110555957e-13
1.742707791e-12
2.888325044e-12
3.459859428e-12
3.360095179e-12
2.771563283e-12
1.58019541e-12
7.174351194e-13
-1.071715591e-12
3.074575448e-12
3.989002414e-12
-1.519365355e-13
1.022529702e-12
-4.659644161e-12
7.880151128e-13
4.659840418e-12
-5.904219292e-12
-1.869201371e-11
-2.608552225e-11
-1.180230559e-11
-1.497955063e-16
0
0
0
)


101
(
1.595778405e-10
1.073979491e-10
2.981294739e-11
1.337786974e-12
-3.503839927e-12
-3.248388977e-12
-2.446163531e-12
-1.582682713e-12
-9.334103396e-13
-4.749955131e-13
-1.806166116e-13
-6.50545988e-14
-1.114856227e-13
-2.046437476e-13
-2.547449397e-13
-2.342186709e-13
-1.596070035e-13
-7.081455821e-14
-5.277091518e-15
2.182792932e-14
1.74239075e-14
1.956739332e-15
1.63044353e-16
2.816069243e-14
8.409716834e-14
1.508416779e-13
2.057353572e-13
2.293486613e-13
2.132960295e-13
1.658010319e-13
1.107665223e-13
7.564833696e-14
7.434802475e-14
9.853269009e-14
1.276071732e-13
1.472734443e-13
1.574761185e-13
1.652773273e-13
1.694852137e-13
1.544657358e-13
1.005287732e-13
3.168443609e-15
-1.19603012e-13
-2.351469573e-13
-3.079365627e-13
-3.14420364e-13
-2.492719811e-13
-1.263324167e-13
2.443376743e-14
1.666587273e-13
2.706009735e-13
3.239560518e-13
3.313578885e-13
3.055386941e-13
2.57605262e-13
1.930969241e-13
1.100760853e-13
3.003099704e-16
-1.418621729e-13
-2.957711616e-13
-4.052903145e-13
-4.171586143e-13
-3.489073985e-13
-3.044719288e-13
-3.751471634e-13
-5.059555724e-13
-5.203518235e-13
-3.724733772e-13
-2.586714879e-13
-3.304843141e-13
-4.696627491e-13
-4.863085049e-13
-3.321153237e-13
-5.385327414e-14
2.457199915e-13
4.599177351e-13
5.90641696e-13
8.282413665e-13
1.595555345e-12
2.954159773e-12
4.201955202e-12
4.705364675e-12
3.996431218e-12
1.556391024e-12
-5.182260017e-13
-1.896113766e-12
1.985161896e-12
6.590381457e-12
3.289594529e-12
-8.071258896e-13
-3.163997061e-12
-1.074332131e-12
3.181388614e-12
1.099235121e-13
-1.193858724e-11
-3.164806313e-11
-2.167220405e-11
-1.280324692e-16
0
0
0
)


101
(
1.585105852e-10
1.072519576e-10
3.050520501e-11
1.731390493e-12
-3.457749923e-12
-3.26763857e-12
-2.482093246e-12
-1.635408107e-12
-9.802835514e-13
-5.146541324e-13
-2.101172382e-13
-7.312466802e-14
-9.543117711e-14
-1.832467967e-13
-2.476618556e-13
-2.469842337e-13
-1.841452034e-13
-9.416104553e-14
-1.840443355e-14
2.046046607e-14
2.433574085e-14
1.133430764e-14
4.747219662e-15
2.212690668e-14
6.704132851e-14
1.289753545e-13
1.894080067e-13
2.284846403e-13
2.31927729e-13
1.993266887e-13
1.489011849e-13
1.098488378e-13
1.039297772e-13
1.286485109e-13
1.615681006e-13
1.817469473e-13
1.860346886e-13
1.879625216e-13
1.982337399e-13
2.072244844e-13
1.87761157e-13
1.16902355e-13
-5.138981132e-15
-1.512218287e-13
-2.762504176e-13
-3.380343466e-13
-3.131680664e-13
-2.058718004e-13
-4.82092052e-14
1.115162009e-13
2.280525761e-13
2.793704018e-13
2.736509328e-13
2.379180764e-13
1.949399849e-13
1.479337247e-13
8.38689231e-14
-1.576595483e-14
-1.669676721e-13
-3.611595658e-13
-5.438307838e-13
-6.327088275e-13
-5.924468906e-13
-5.072438244e-13
-5.382328316e-13
-7.292493222e-13
-8.770456872e-13
-7.582445806e-13
-4.736662089e-13
-3.242817453e-13
-3.602453817e-13
-3.552870421e-13
-1.658025532e-13
1.617675066e-13
5.119606505e-13
7.737080636e-13
9.035976184e-13
1.022007267e-12
1.539443169e-12
2.779614627e-12
4.370756252e-12
5.493070782e-12
5.011579201e-12
1.744065735e-12
-1.397434662e-12
-2.147982818e-12
1.240618178e-12
7.889232176e-12
7.107142803e-12
-2.192123483e-12
-3.719297433e-13
-3.206901977e-12
-3.56703638e-12
1.762363687e-12
-7.378804722e-13
-3.19454851e-11
-3.257370216e-11
-4.98085309e-16
0
0
0
)


101
(
1.574353512e-10
1.070962192e-10
3.119664681e-11
2.136473266e-12
-3.402638703e-12
-3.285300616e-12
-2.517030135e-12
-1.687557367e-12
-1.027987331e-12
-5.552140527e-13
-2.413077268e-13
-8.461241853e-14
-8.255016136e-14
-1.611151252e-13
-2.360582199e-13
-2.550469769e-13
-2.070513802e-13
-1.193832204e-13
-3.505953847e-14
1.616069237e-14
2.997995966e-14
2.155289019e-14
1.280331295e-14
2.20153167e-14
5.649058408e-14
1.111081276e-13
1.722397082e-13
2.22129261e-13
2.435646198e-13
2.283541373e-13
1.867836643e-13
1.465236655e-13
1.361815488e-13
1.616949155e-13
2.01714443e-13
2.274513895e-13
2.272071115e-13
2.161514047e-13
2.181082884e-13
2.377710603e-13
2.50397985e-13
2.188602809e-13
1.20375863e-13
-3.540780554e-14
-2.050892076e-13
-3.319995543e-13
-3.700198657e-13
-3.035037667e-13
-1.559089403e-13
1.84871054e-14
1.56649691e-13
2.163283772e-13
1.961395973e-13
1.334291282e-13
7.396693488e-14
3.528789389e-14
4.890651189e-16
-6.439903977e-14
-1.925036947e-13
-3.927326804e-13
-6.25884605e-13
-7.998827307e-13
-8.225423086e-13
-7.12356845e-13
-6.502482399e-13
-8.086554492e-13
-1.071850851e-12
-1.091223696e-12
-7.569138244e-13
-3.871989484e-13
-2.467392295e-13
-1.916913339e-13
1.299008654e-14
3.744890675e-13
7.724430537e-13
1.097539954e-12
1.281361345e-12
1.371020922e-12
1.656514925e-12
2.50326311e-12
3.934816241e-12
5.431397222e-12
5.530547872e-12
2.29258973e-12
-1.477655509e-12
-1.71456418e-12
1.635322548e-12
7.576061494e-12
8.687346e-12
-1.667539336e-12
4.483703587e-12
-3.532744265e-12
-1.155398966e-11
-6.053889455e-14
4.043897882e-12
-3.120086734e-11
-3.676162861e-11
-3.487189315e-16
0
0
0
)


101
(
1.563520523e-10
1.069305614e-10
3.188714069e-11
2.553050101e-12
-3.338298851e-12
-3.301080586e-12
-2.550876706e-12
-1.739042345e-12
-1.076415369e-12
-5.966181194e-13
-2.740595095e-13
-9.939711615e-14
-7.316312112e-14
-1.389893129e-13
-2.203454264e-13
-2.579192691e-13
-2.272481651e-13
-1.456075985e-13
-5.501268236e-14
8.519833932e-15
3.376317475e-14
3.199214507e-14
2.354913308e-14
2.712028432e-14
5.259136585e-14
9.894835044e-14
1.570607738e-13
2.127987404e-13
2.490553376e-13
2.519332385e-13
2.227473242e-13
1.842263473e-13
1.6946249e-13
1.945218328e-13