/*--------------------------------*- C++ -*----------------------------------*\
| =========                 |                                                 |
| \\      /  F ield         | OpenFOAM: The Open Source CFD Toolbox           |
|  \\    /   O peration     | Version:  2.3.1                                 |
|   \\  /    A nd           | Web:      www.OpenFOAM.org                      |
|    \\/     M anipulation  |                                                 |
\*---------------------------------------------------------------------------*/
FoamFile
{
    version     2.0;
    format      ascii;
    class       dictionary;
    location    "constant";
    object      DPSI25;
}
// * * * * * * * * * * * * * * * * * * * * * * * * * * * * * * * * * * * * * //

DPSI25_table
101
(

101
(
-6.481817293e-17
-5.504841159e-15
-9.818169817e-14
-7.030239312e-13
-2.991372582e-12
-9.284809586e-12
-2.559219522e-11
-6.367837797e-11
-1.448276594e-10
-3.023779826e-10
-5.829101754e-10
-1.031498457e-09
-1.718862902e-09
-2.68724829e-09
-3.932202827e-09
-5.465872953e-09
-7.293876847e-09
-9.229665826e-09
-1.132377795e-08
-1.345062147e-08
-1.535299642e-08
-1.719954593e-08
-1.886934722e-08
-2.02100955e-08
-2.126644734e-08
-2.204966089e-08
-2.256300931e-08
-2.282377604e-08
-2.284952151e-08
-2.26599335e-08
-2.228819863e-08
-2.180822445e-08
-2.110262012e-08
-2.023732144e-08
-1.935120301e-08
-1.836681271e-08
-1.73574311e-08
-1.633769707e-08
-1.519166672e-08
-1.395237739e-08
-1.281938413e-08
-1.168281068e-08
-1.047426134e-08
-9.34986352e-09
-8.218671267e-09
-7.082540896e-09
-5.961265092e-09
-4.845631979e-09
-3.753867046e-09
-2.687380684e-09
-1.666628893e-09
-6.572406536e-10
3.169064216e-10
1.250365991e-09
2.148286028e-09
3.073542366e-09
3.93313807e-09
4.747199816e-09
5.561587561e-09
6.329106543e-09
7.078961159e-09
7.782128176e-09
8.465711888e-09
9.12459117e-09
9.755526522e-09
1.035759398e-08
1.09270797e-08
1.14826473e-08
1.200960982e-08
1.250457208e-08
1.29816659e-08
1.344421874e-08
1.38740398e-08
1.425930505e-08
1.46171245e-08
1.497534713e-08
1.532515842e-08
1.563424508e-08
1.591461933e-08
1.617454879e-08
1.642791521e-08
1.666046062e-08
1.686647706e-08
1.705953484e-08
1.723244035e-08
1.738724816e-08
1.752631163e-08
1.765104672e-08
1.776164327e-08
1.785935252e-08
1.794371886e-08
1.801523273e-08
1.807722161e-08
1.812904908e-08
1.817267899e-08
1.820201377e-08
9.11064907e-09
-1.709861762e-16
5.096487917e-26
4.80919313e-27
-1.131468728e-25
)


101
(
8.781972855e-17
-3.923059564e-15
-8.55553971e-14
-6.386147906e-13
-2.745127525e-12
-8.520004226e-12
-2.344851079e-11
-5.833913757e-11
-1.328085046e-10
-2.778296488e-10
-5.369620848e-10
-9.536393251e-10
-1.593548727e-09
-2.501656935e-09
-3.679853141e-09
-5.139211562e-09
-6.887251316e-09
-8.77912665e-09
-1.081813853e-08
-1.292455423e-08
-1.487480774e-08
-1.673579656e-08
-1.845711206e-08
-1.990775411e-08
-2.107586893e-08
-2.197479153e-08
-2.261157457e-08
-2.299551801e-08
-2.314444318e-08
-2.30766157e-08
-2.281843033e-08
-2.243384245e-08
-2.183670683e-08
-2.107289624e-08
-2.025319481e-08
-1.933641198e-08
-1.837082444e-08
-1.737603146e-08
-1.629013636e-08
-1.511192849e-08
-1.396341206e-08
-1.282664222e-08
-1.164476628e-08
-1.048998821e-08
-9.346085289e-09
-8.198941005e-09
-7.057569113e-09
-5.920613675e-09
-4.797796762e-09
-3.694094425e-09
-2.622761043e-09
-1.572997503e-09
-5.47934243e-10
4.448208967e-10
1.403673679e-09
2.357274505e-09
3.28590304e-09
4.172432e-09
5.036631091e-09
5.872424602e-09
6.681849397e-09
7.458869701e-09
8.206510624e-09
8.929474551e-09
9.626992612e-09
1.02977201e-08
1.093920197e-08
1.155661743e-08
1.215132589e-08
1.271833443e-08
1.325931545e-08
1.377880022e-08
1.427401419e-08
1.473715578e-08
1.517016442e-08
1.558546447e-08
1.598834534e-08
1.63673687e-08
1.671573578e-08
1.703845176e-08
1.734342206e-08
1.763079891e-08
1.789593381e-08
1.814233293e-08
1.837125756e-08
1.858023514e-08
1.876866239e-08
1.893905316e-08
1.909230112e-08
1.923245467e-08
1.935865186e-08
1.946724772e-08
1.956185706e-08
1.964407016e-08
1.967314726e-08
1.962145286e-08
9.219882317e-09
-1.227787975e-09
-1.345541655e-09
-1.459997149e-09
-1.526623109e-09
)


101
(
2.141841033e-16
-2.516111847e-15
-7.407078e-14
-5.795293674e-13
-2.518929198e-12
-7.818364308e-12
-2.147998247e-11
-5.342033961e-11
-1.2169025e-10
-2.550097656e-10
-4.940278815e-10
-8.804038008e-10
-1.475162533e-09
-2.324874276e-09
-3.437132915e-09
-4.82269562e-09
-6.4904556e-09
-8.329664808e-09
-1.031320869e-08
-1.238839952e-08
-1.436801297e-08
-1.624644649e-08
-1.800713931e-08
-1.954824357e-08
-2.082230603e-08
-2.183273364e-08
-2.258816484e-08
-2.309314666e-08
-2.336377432e-08
-2.341722916e-08
-2.3274916e-08
-2.299266679e-08
-2.250050848e-08
-2.184114181e-08
-2.110368468e-08
-2.025892342e-08
-1.934921219e-08
-1.839146568e-08
-1.735502955e-08
-1.623689006e-08
-1.510932178e-08
-1.397792851e-08
-1.28148225e-08
-1.165686636e-08
-1.050233471e-08
-9.34656105e-09
-8.192553508e-09
-7.03991174e-09
-5.895193299e-09
-4.763226077e-09
-3.653963255e-09
-2.565872234e-09
-1.499093354e-09
-4.574263616e-10
5.55337197e-10
1.550045147e-09
2.527489515e-09
3.474997842e-09
4.394853185e-09
5.288678266e-09
6.156337607e-09
6.996305461e-09
7.807097137e-09
8.591624774e-09
9.351308951e-09
1.008587944e-08
1.079374536e-08
1.147504787e-08
1.213332328e-08
1.276696658e-08
1.337381755e-08
1.395473388e-08
1.451066678e-08
1.503952228e-08
1.554163904e-08
1.602202685e-08
1.648494282e-08
1.692766046e-08
1.734235612e-08
1.772950491e-08
1.809400645e-08
1.843806126e-08
1.876024847e-08
1.906252918e-08
1.934666771e-08
1.961267397e-08
1.985751367e-08
2.007956402e-08
2.027924687e-08
2.046470862e-08
2.063401725e-08
2.078512731e-08
2.091978641e-08
2.103371976e-08
2.104208927e-08
2.089045723e-08
9.155442405e-09
-2.63355916e-09
-2.870016291e-09
-3.098833877e-09
-3.226187285e-09
)


101
(
3.166878748e-16
-1.270445395e-15
-6.364058746e-14
-5.253495308e-13
-2.311187761e-12
-7.174983235e-12
-1.967384101e-11
-4.88940094e-11
-1.114191109e-10
-2.338287899e-10
-4.539772079e-10
-8.116490801e-10
-1.363533975e-09
-2.156886982e-09
-3.204306077e-09
-4.516822336e-09
-6.104350149e-09
-7.883863043e-09
-9.81012918e-09
-1.184566155e-08
-1.38377104e-08
-1.573196629e-08
-1.752324096e-08
-1.913741208e-08
-2.050809021e-08
-2.162470429e-08
-2.249383406e-08
-2.311671299e-08
-2.350703863e-08
-2.368069436e-08
-2.365535171e-08
-2.348031454e-08
-2.309277239e-08
-2.253849388e-08
-2.189378576e-08
-2.112869928e-08
-2.028458685e-08
-1.937554892e-08
-1.838698462e-08
-1.732540844e-08
-1.62378543e-08
-1.512639991e-08
-1.398252067e-08
-1.283489185e-08
-1.167963939e-08
-1.051966077e-08
-9.358682536e-09
-8.196099654e-09
-7.036927451e-09
-5.884876872e-09
-4.747992817e-09
-3.627990657e-09
-2.526511302e-09
-1.445123258e-09
-3.869727896e-10
6.50425489e-10
1.670405598e-09
2.667556444e-09
3.639514988e-09
4.586443148e-09
5.508262972e-09
6.40477479e-09
7.273907451e-09
8.11669104e-09
8.934690264e-09
9.7286738e-09
1.049793951e-08
1.124096975e-08
1.196050363e-08
1.265643961e-08
1.332659322e-08
1.396965448e-08
1.458604467e-08
1.517611177e-08
1.574156953e-08
1.628558889e-08
1.681033653e-08
1.731542053e-08
1.779483444e-08
1.824730129e-08
1.867481209e-08
1.907850455e-08
1.945861052e-08
1.981823427e-08
2.01585091e-08
2.048069972e-08
2.078438702e-08
2.106520593e-08
2.131681471e-08
2.155100838e-08
2.176630168e-08
2.19610033e-08
2.21404466e-08
2.229082131e-08
2.22709283e-08
2.200038625e-08
8.920903595e-09
-4.203595938e-09
-4.559566159e-09
-4.902732291e-09
-5.085547052e-09
)


101
(
3.975892186e-16
-1.734217009e-16
-5.418392254e-14
-4.756880127e-13
-2.120424332e-12
-6.585261933e-12
-1.801800179e-11
-4.473337399e-11
-1.019429731e-10
-2.141984298e-10
-4.166784932e-10
-7.47223472e-10
-1.258478255e-09
-1.997634832e-09
-2.981568533e-09
-4.22201898e-09
-5.729699122e-09
-7.443987712e-09
-9.310339822e-09
-1.129937485e-08
-1.32887666e-08
-1.519393329e-08
-1.700854469e-08
-1.868066886e-08
-2.013662427e-08
-2.13525264e-08
-2.232988783e-08
-2.306671293e-08
-2.357407573e-08
-2.38662631e-08
-2.395798603e-08
-2.389333279e-08
-2.361145057e-08
-2.316232583e-08
-2.261598647e-08
-2.193878786e-08
-2.116993446e-08
-2.031977644e-08
-1.938283292e-08
-1.837629651e-08
-1.733782999e-08
-1.625987886e-08
-1.514155596e-08
-1.401334665e-08
-1.28677641e-08
-1.171074891e-08
-1.054868231e-08
-9.381796569e-09
-8.214716865e-09
-7.050030841e-09
-5.894352813e-09
-4.750049639e-09
-3.620676552e-09
-2.507473659e-09
-1.41255527e-09
-3.364028843e-10
7.221116175e-10
1.761036198e-09
2.778510091e-09
3.773120578e-09
4.744382839e-09
5.69222069e-09
6.614691858e-09
7.511642636e-09
8.383974277e-09
9.232976532e-09
1.005889429e-08
1.085996185e-08
1.163794509e-08
1.239273614e-08
1.312268155e-08
1.382584483e-08
1.450149953e-08
1.515062575e-08
1.577620236e-08
1.638134145e-08
1.696670367e-08
1.753245489e-08
1.807419721e-08
1.859128249e-08
1.908395894e-08
1.954998913e-08
1.998968772e-08
2.040782511e-08
2.080564549e-08
2.118499688e-08
2.154639992e-08
2.18885889e-08
2.219919878e-08
2.248683544e-08
2.275077273e-08
2.299029327e-08
2.321760868e-08
2.340914247e-08
2.335344084e-08
2.29450455e-08
8.520486775e-09
-5.925352893e-09
-6.401442322e-09
-6.858924828e-09
-7.092670188e-09
)


101
(
4.590019097e-16
7.867470904e-16
-4.562582419e-14
-4.301865691e-13
-1.945265588e-12
-6.044898624e-12
-1.65010526e-11
-4.091287122e-11
-9.321146812e-11
-1.960319283e-10
-3.819997092e-10
-6.869675351e-10
-1.15979689e-09
-1.84701457e-09
-2.769048103e-09
-3.938639908e-09
-5.36716944e-09
-7.012016102e-09
-8.815450594e-09
-1.075225164e-08
-1.272575264e-08
-1.46347462e-08
-1.646590784e-08
-1.818293323e-08
-1.971197114e-08
-2.101872633e-08
-2.209802489e-08
-2.294407523e-08
-2.356510464e-08
-2.397350962e-08
-2.418152792e-08
-2.422902913e-08
-2.405424947e-08
-2.371055258e-08
-2.326600428e-08
-2.268258512e-08
-2.199710936e-08
-2.121602863e-08
-2.033713877e-08
-1.938685654e-08
-1.840236e-08
-1.736793315e-08
-1.628347996e-08
-1.518293489e-08
-1.405656408e-08
-1.291093599e-08
-1.175458482e-08
-1.058929509e-08
-9.42042403e-09
-8.250000488e-09
-7.083510333e-09
-5.922739559e-09
-4.772501741e-09
-3.634609319e-09
-2.510701813e-09
-1.401994115e-09
-3.098697778e-10
7.64724785e-10
1.821039749e-09
2.857040654e-09
3.872196319e-09
4.866090974e-09
5.836857911e-09
6.783658109e-09
7.706389055e-09
8.606126871e-09
9.48384715e-09
1.033838652e-08
1.117127258e-08
1.198172715e-08
1.276801074e-08
1.352811916e-08
1.426053048e-08
1.496628925e-08
1.564942531e-08
1.631369105e-08
1.695813539e-08
1.758242565e-08
1.818359491e-08
1.876264751e-08
1.932059186e-08
1.985134058e-08
2.035271194e-08
2.083072759e-08
2.128696362e-08
2.172443846e-08
2.214420022e-08
2.254693988e-08
2.291997847e-08
2.326769939e-08
2.358366177e-08
2.387026983e-08
2.41461472e-08
2.438138451e-08
2.428486057e-08
2.37207694e-08
7.958342315e-09
-7.787357456e-09
-8.383655684e-09
-8.95499971e-09
-9.235772952e-09
)


101
(
5.029036439e-16
1.621055981e-15
-3.789686656e-14
-3.885142552e-13
-1.784438671e-12
-5.549878595e-12
-1.511224254e-11
-3.740816406e-11
-8.517607991e-11
-1.79244422e-10
-3.498091074e-10
-6.307160003e-10
-1.067279983e-09
-1.704885612e-09
-2.566809813e-09
-3.666967095e-09
-5.017333985e-09
-6.589663407e-09
-8.327153261e-09
-1.020678595e-08
-1.215290848e-08
-1.405738803e-08
-1.589819474e-08
-1.764869525e-08
-1.923853394e-08
-2.062648427e-08
-2.180043456e-08
-2.275018319e-08
-2.348077505e-08
-2.40024308e-08
-2.432513628e-08
-2.448531324e-08
-2.441890626e-08
-2.41811032e-08
-2.384018507e-08
-2.335474491e-08
-2.275920989e-08
-2.205615798e-08
-2.124316723e-08
-2.035296134e-08
-1.942618773e-08
-1.844239587e-08
-1.739970056e-08
-1.633469857e-08
-1.523632212e-08
-1.411081417e-08
-1.29677986e-08
-1.181055172e-08
-1.064592081e-08
-9.476190554e-09
-8.306248736e-09
-7.1367474e-09
-5.972973247e-09
-4.817381321e-09
-3.671664872e-09
-2.536996131e-09
-1.416954837e-09
-3.125671161e-10
7.762851609e-10
1.84729567e-09
2.900183601e-09
3.934269089e-09
4.947883616e-09
5.939780554e-09
6.908914859e-09
7.855416478e-09
8.780337241e-09
9.683441304e-09
1.05666383e-08
1.142900372e-08
1.226837288e-08
1.308221691e-08
1.38682669e-08
1.462753036e-08
1.536516351e-08
1.608613152e-08
1.678807622e-08
1.746928918e-08
1.812739649e-08
1.876502023e-08
1.938564291e-08
1.998142709e-08
2.054656256e-08
2.108630441e-08
2.160221655e-08
2.209844014e-08
2.257681721e-08
2.30395204e-08
2.347597374e-08
2.388834644e-08
2.426079536e-08
2.459724335e-08
2.492228682e-08
2.520318879e-08
2.506103202e-08
2.432394982e-08
7.23899771e-09
-9.777408089e-09
-1.049479142e-08
-1.118062894e-08
-1.150540895e-08
)


101
(
5.311441451e-16
2.339765389e-15
-3.093275476e-14
-3.503655974e-13
-1.63676536e-12
-5.096460152e-12
-1.384145855e-11
-3.419612689e-11
-7.779019219e-11
-1.637531846e-10
-3.199758431e-10
-5.782989264e-10
-9.807074108e-10
-1.571072854e-09
-2.374857701e-09
-3.407210042e-09
-4.680671943e-09
-6.178396372e-09
-7.847135001e-09
-9.665313736e-09
-1.157414968e-08
-1.346520412e-08
-1.530840044e-08
-1.708212744e-08
-1.872085477e-08
-2.017953978e-08
-2.143986379e-08
-2.248690321e-08
-2.332217994e-08
-2.395343235e-08
-2.43884479e-08
-2.46607264e-08
-2.47034034e-08
-2.457200969e-08
-2.433569844e-08
-2.395092905e-08
-2.345024728e-08
-2.283266432e-08
-2.209358616e-08
-2.126912625e-08
-2.040424651e-08
-1.947656729e-08
-1.848236698e-08
-1.746010466e-08
-1.639770698e-08
-1.530087147e-08
-1.417937966e-08
-1.30372965e-08
-1.188307691e-08
-1.07200639e-08
-9.553435138e-09
-8.382724277e-09
-7.212935081e-09
-6.046855957e-09
-4.886425365e-09
-3.732463531e-09
-2.590363923e-09
-1.461841295e-09
-3.465378076e-10
7.53060185e-10
1.837202465e-09
2.905124704e-09
3.955593716e-09
4.987267535e-09
5.998400254e-09
6.987862303e-09
7.955909068e-09
8.902779088e-09
9.831197195e-09
1.074088735e-08
1.16294228e-08
1.249357289e-08
1.333011808e-08
1.413962046e-08
1.492818009e-08
1.570256942e-08
1.645985004e-08
1.71964884e-08
1.790946668e-08
1.860258605e-08
1.928229496e-08
1.99409784e-08
2.057021331e-08
2.117315842e-08
2.175021596e-08
2.230664609e-08
2.284407998e-08
2.336636375e-08
2.386490771e-08
2.434467524e-08
2.47784962e-08
2.516692516e-08
2.554214609e-08
2.587008992e-08
2.567769862e-08
2.47510953e-08
6.366059777e-09
-1.188505878e-08
-1.272303066e-08
-1.35225302e-08
-1.388861265e-08
)


101
(
5.45453044e-16
2.952450945e-15
-2.467397582e-14
-3.154590685e-13
-1.501157481e-12
-4.681164965e-12
-1.267921115e-11
-3.125484716e-11
-7.100916623e-11
-1.494779012e-10
-2.923706993e-10
-5.295431079e-10
-8.998506067e-10
-1.445371087e-09
-2.193138493e-09
-3.159507528e-09
-4.357570468e-09
-5.779462086e-09
-7.377019918e-09
-9.130028772e-09
-1.099310487e-08
-1.286175245e-08
-1.469970547e-08
-1.648720783e-08
-1.816348532e-08
-1.968203239e-08
-2.101959092e-08
-2.215662637e-08
-2.30908958e-08
-2.382736274e-08
-2.437155509e-08
-2.475437103e-08
-2.490610477e-08
-2.48814563e-08
-2.475026428e-08
-2.446776913e-08
-2.406529129e-08
-2.353890703e-08
-2.288107049e-08
-2.212894497e-08
-2.133097348e-08
-2.046442697e-08
-1.952455768e-08
-1.855137505e-08
-1.753200923e-08
-1.647174255e-08
-1.537998653e-08
-1.426078709e-08
-1.312377501e-08
-1.197352769e-08
-1.081622767e-08
-9.651128149e-09
-8.482941485e-09
-7.313905382e-09
-6.14591467e-09
-4.979594734e-09
-3.82177093e-09
-2.674761848e-09
-1.538550031e-09
-4.162899903e-10
6.926954755e-10
1.787721994e-09
2.868364977e-09
3.933678093e-09
4.981696874e-09
6.010147268e-09
7.017668782e-09
8.004002988e-09
8.97237183e-09
9.923901352e-09
1.08569623e-08
1.176778021e-08
1.265169683e-08
1.350813708e-08
1.434389628e-08
1.516772085e-08
1.597704205e-08
1.676695948e-08
1.753286314e-08
1.82787506e-08
1.901407598e-08
1.973251778e-08
2.042447249e-08
2.109090373e-08
2.172968691e-08
2.234770788e-08
2.294481434e-08
2.352644465e-08
2.408587653e-08
2.463341086e-08
2.513259143e-08
2.557532132e-08
2.600207985e-08
2.637797512e-08
2.612919534e-08
2.499925138e-08
5.344471103e-09
-1.410017616e-08
-1.505735287e-08
-1.596838594e-08
-1.637294515e-08
)


101
(
5.47446812e-16
3.468054377e-15
-1.906541624e-14
-2.835353484e-13
-1.376611588e-12
-4.300766801e-12
-1.161661726e-11
-2.856360703e-11
-6.479035972e-11
-1.363408417e-10
-2.668665622e-10
-4.842732926e-10
-8.244743849e-10
-1.327549376e-09
-2.021545644e-09
-2.923928599e-09
-4.048326674e-09
-5.393897632e-09
-6.918333125e-09
-8.602995965e-09
-1.041310017e-08
-1.22506663e-08
-1.407548945e-08
-1.586780874e-08
-1.757091495e-08
-1.913837269e-08
-2.054337654e-08
-2.176227633e-08
-2.278902207e-08
-2.362556956e-08
-2.427506312e-08
-2.476593723e-08
-2.502585016e-08
-2.510787782e-08
-2.508197182e-08
-2.49025951e-08
-2.460038179e-08
-2.416928342e-08
-2.359879437e-08
-2.292562283e-08
-2.220032888e-08
-2.140007085e-08
-2.051983918e-08
-1.960140842e-08
-1.863129547e-08
-1.76146375e-08
-1.656036616e-08
-1.547194551e-08
-1.435952231e-08
-1.322855634e-08
-1.20864525e-08
-1.093293772e-08
-9.773150447e-09
-8.608745216e-09
-7.440884617e-09
-6.269483055e-09
-5.102712711e-09
-3.943262676e-09
-2.791564873e-09
-1.652149774e-09
-5.241892842e-10
5.916182028e-10
1.695523652e-09
2.787398765e-09
3.865876045e-09
4.928349567e-09
5.971670681e-09
6.993993557e-09
7.998048895e-09
8.985920677e-09
9.957745508e-09
1.091023209e-08
1.183771317e-08
1.273814203e-08
1.361781593e-08
1.448682175e-08
1.534377964e-08
1.618391395e-08
1.700077771e-08
1.77967498e-08
1.858397147e-08
1.935851599e-08
2.011099771e-08
2.084007505e-08
2.153987494e-08
2.221983267e-08
2.287785409e-08
2.351838017e-08
2.41374484e-08
2.47520779e-08
2.531896058e-08
2.581879242e-08
2.629794641e-08
2.672185179e-08
2.641112306e-08
2.50654483e-08
4.178231662e-09
-1.641266681e-08
-1.748808477e-08
-1.850772551e-08
-1.894706338e-08
)


101
(
5.386351485e-16
3.89492761e-15
-1.405604964e-14
-2.543558531e-13
-1.262204289e-12
-3.952281873e-12
-1.064538947e-11
-2.610287469e-11
-5.909315133e-11
-1.242670953e-10
-2.433391577e-10
-4.423136142e-10
-7.543382989e-10
-1.217354475e-09
-1.859924684e-09
-2.700476289e-09
-3.753151346e-09
-5.022550241e-09
-6.472459874e-09
-8.086145238e-09
-9.837215141e-09
-1.163556916e-08
-1.343927489e-08
-1.522777104e-08
-1.694756979e-08
-1.855314399e-08
-2.001539306e-08
-2.130729089e-08
-2.241917835e-08
-2.334989853e-08
-2.410007236e-08
-2.469568795e-08
-2.506203277e-08
-2.525004521e-08
-2.532918656e-08
-2.525326055e-08
-2.505244666e-08
-2.47192932e-08
-2.424080491e-08
-2.365252503e-08
-2.300586308e-08
-2.227736987e-08
-2.146200945e-08
-2.060355542e-08
-1.968819921e-08
-1.872133931e-08
-1.77117077e-08
-1.666182862e-08
-1.558156108e-08
-1.447678937e-08
-1.335613242e-08
-1.222005709e-08
-1.107462743e-08
-9.921693905e-09
-8.761548559e-09
-7.592648553e-09
-6.424191168e-09
-5.258935872e-09
-4.097637572e-09
-2.94644706e-09
-1.804989152e-09
-6.742027875e-10
4.46539842e-10
1.557704849e-09
2.659124558e-09
3.749192408e-09
4.8237973e-09
5.87880819e-09
6.915015565e-09
7.934367636e-09
8.938944646e-09
9.927311125e-09
1.089366945e-08
1.183439697e-08
1.27545925e-08
1.366499309e-08
1.456515188e-08
1.545080267e-08
1.631553874e-08
1.715973144e-08
1.799536699e-08
1.882137034e-08
1.963099415e-08
2.04216413e-08
2.118120135e-08
2.192125074e-08
2.264131099e-08
2.334110382e-08
2.401799506e-08
2.469742108e-08
2.533351589e-08
2.589401434e-08
2.642563499e-08
2.689685907e-08
2.651938578e-08
2.494526738e-08
2.870765258e-09
-1.881136936e-08
-2.000712182e-08
-2.114336815e-08
-2.162285732e-08
)


101
(
5.204270159e-16
4.240875996e-15
-9.598610368e-15
-2.277011742e-13
-1.157086901e-12
-3.632954865e-12
-9.757807989e-12
-2.385427364e-11
-5.387892981e-11
-1.13184647e-10
-2.216673047e-10
-4.034886565e-10
-6.891982088e-10
-1.114513802e-09
-1.708076964e-09
-2.48908999e-09
-3.472169028e-09
-4.666095237e-09
-6.040629306e-09
-7.581248654e-09
-9.268269171e-09
-1.101999984e-08
-1.279470198e-08
-1.457096113e-08
-1.629780673e-08
-1.7931003e-08
-1.944012757e-08
-2.079558592e-08
-2.198451632e-08
-2.300271509e-08
-2.384819582e-08
-2.454442411e-08
-2.501460017e-08
-2.530718406e-08
-2.549060782e-08
-2.551802103e-08
-2.541909756e-08
-2.518543329e-08
-2.480215821e-08
-2.430355586e-08
-2.374105644e-08
-2.308997463e-08
-2.234487425e-08
-2.155149264e-08
-2.06960594e-08
-1.978444656e-08
-1.882559738e-08
-1.7821437e-08
-1.678099467e-08
-1.570978082e-08
-1.461723037e-08
-1.350456818e-08
-1.237925542e-08
-1.124378049e-08
-1.009804887e-08
-8.939254247e-09
-7.776923918e-09
-6.613200601e-09
-5.448742933e-09
-4.291392176e-09
-3.141726132e-09
-2.001365022e-09
-8.696455061e-10
2.542300101e-10
1.371055999e-09
2.480686782e-09
3.580046248e-09
4.663541135e-09
5.728788373e-09
6.776108565e-09
7.80823923e-09
8.8259721e-09
9.825056133e-09
1.080135385e-08
1.175849567e-08
1.270696347e-08
1.36463488e-08
1.457225993e-08
1.547990774e-08
1.636981061e-08
1.72512937e-08
1.812382529e-08
1.898564705e-08
1.983555321e-08
2.065433445e-08
2.145188319e-08
2.223278784e-08
2.299358943e-08
2.372600494e-08
2.446700254e-08
2.517292309e-08
2.579609551e-08
2.638028762e-08
2.689795157e-08
2.645015785e-08
2.463643033e-08
1.423724442e-09
-2.129127582e-08
-2.260648832e-08
-2.385337116e-08
-2.436646541e-08
)


101
(
4.941361417e-16
4.513197501e-15
-5.649310454e-15
-2.033697481e-13
-1.060481049e-12
-3.340248809e-12
-8.946703899e-12
-2.180056178e-11
-4.911111203e-11
-1.030245421e-10
-2.017334532e-10
-3.676245344e-10
-6.288083338e-10
-1.018739457e-09
-1.565764154e-09
-2.289648562e-09
-3.205426154e-09
-4.325042887e-09
-5.623903782e-09
-7.089924715e-09
-8.708823224e-09
-1.040734695e-08
-1.214545925e-08
-1.390129431e-08
-1.562596885e-08
-1.727664959e-08
-1.882229337e-08
-2.023148943e-08
-2.148869841e-08
-2.258690867e-08
-2.352155884e-08
-2.43135015e-08
-2.488407805e-08
-2.527903469e-08
-2.55653402e-08
-2.569548358e-08
-2.569844499e-08
-2.556501627e-08
-2.527891078e-08
-2.48734596e-08
-2.439982612e-08
-2.383156358e-08
-2.316221265e-08
-2.243902589e-08
-2.164848463e-08
-2.079717594e-08
-1.989453689e-08
-1.894225961e-08
-1.794873525e-08
-1.691864576e-08
-1.586144441e-08
-1.477866178e-08
-1.367918718e-08
-1.256673927e-08
-1.144156396e-08
-1.029978005e-08
-9.151160079e-09
-7.996757228e-09
-6.836436418e-09
-5.679243586e-09
-4.526853934e-09
-3.382136207e-09
-2.244710165e-09
-1.114082861e-09
1.121870232e-11
1.132379083e-09
2.248207939e-09
3.353771422e-09
4.444069276e-09
5.516371298e-09
6.572212712e-09
7.613471817e-09
8.638366219e-09
9.644069542e-09
1.063363053e-08
1.161648908e-08
1.259131776e-08
1.35532002e-08
1.449824058e-08
1.542896201e-08
1.6353751e-08
1.726908339e-08
1.817664507e-08
1.908124308e-08
1.995926634e-08
2.081254944e-08
2.165020266e-08
2.247239962e-08
2.326020972e-08
2.405860211e-08
2.483316238e-08
2.552118236e-08
2.61577093e-08
2.672023383e-08
2.619834173e-08
2.413552318e-08
-1.591708181e-10
-2.384442171e-08
-2.528407155e-08
-2.66503645e-08
-2.720137633e-08
)


101
(
4.609860418e-16
4.718718322e-15
-2.167563112e-15
-1.811764655e-13
-9.716738001e-13
-3.071833355e-12
-8.205438922e-12
-1.992559244e-11
-4.475509636e-11
-9.372097277e-11
-1.834240596e-10
-3.345498488e-10
-5.729227484e-10
-9.297319102e-10
-1.432712873e-09
-2.10197437e-09
-2.952891482e-09
-3.999760348e-09
-5.22316851e-09
-6.613608934e-09
-8.161207835e-09
-9.80081852e-09
-1.149520751e-08
-1.322271333e-08
-1.493638561e-08
-1.659479283e-08
-1.81667444e-08
-1.961966066e-08
-2.093587064e-08
-2.210592014e-08
-2.312283151e-08
-2.400480299e-08
-2.467157176e-08
-2.516594024e-08
-2.555300711e-08
-2.578466539e-08
-2.588899516e-08
-2.585594769e-08
-2.566805182e-08
-2.53579939e-08
-2.4976746e-08
-2.449600266e-08
-2.390777776e-08
-2.326004302e-08
-2.25393547e-08
-2.175315701e-08
-2.091159074e-08
-2.001663834e-08
-1.907637359e-08
-1.809448504e-08
-1.707997545e-08
-1.60340936e-08
-1.496673198e-08
-1.388289612e-08
-1.27839324e-08
-1.166534953e-08
-1.053731599e-08
-9.399920737e-09
-8.251612484e-09
-7.101725218e-09
-5.952860292e-09
-4.80942404e-09
-3.671395629e-09
-2.538975493e-09
-1.411250174e-09
-2.862520641e-10
8.373541032e-10
1.956602189e-09
3.065947534e-09
4.159605846e-09
5.236059512e-09
6.296474787e-09
7.340719653e-09
8.368433818e-09
9.383859229e-09
1.039649023e-08
1.140346877e-08
1.239743113e-08
1.337449723e-08
1.434013382e-08
1.53042745e-08
1.625941159e-08
1.720682886e-08
1.815910622e-08
1.909417766e-08
2.000325248e-08
2.089367613e-08
2.177382784e-08
2.261818042e-08
2.347144094e-08
2.431016576e-08
2.506361962e-08
2.575334053e-08
2.635928102e-08
2.57590774e-08
2.343929532e-08
-1.877893735e-09
-2.646932556e-08
-2.804057385e-08
-2.953054867e-08
-3.01173347e-08
)


101
(
4.221145369e-16
4.863825552e-15
8.842771437e-16
-1.609513818e-13
-8.900129679e-13
-2.82557148e-12
-7.527879818e-12
-1.821429633e-11
-4.077825449e-11
-8.521128467e-11
-1.666297843e-10
-3.040966215e-10
-5.21296752e-10
-8.471821286e-10
-1.308619322e-09
-1.925838191e-09
-2.714460384e-09
-3.69048009e-09
-4.839142166e-09
-6.153552623e-09
-7.62748897e-09
-9.203392718e-09
-1.084753358e-08
-1.253916438e-08
-1.423336885e-08
-1.589013477e-08
-1.747844299e-08
-1.896504106e-08
-2.033061593e-08
-2.156371074e-08
-2.265524413e-08
-2.362081752e-08
-2.437878147e-08
-2.49688155e-08
-2.545379201e-08
-2.57850609e-08
-2.598965273e-08
-2.605660712e-08
-2.596730386e-08
-2.575387684e-08
-2.546732653e-08
-2.507777874e-08
-2.457551043e-08
-2.400840135e-08
-2.336253529e-08
-2.264622615e-08
-2.187048306e-08
-2.103764292e-08
-2.015609101e-08
-1.922894451e-08
-1.826417889e-08
-1.726224921e-08
-1.623378225e-08
-1.518459545e-08
-1.411726265e-08
-1.302763608e-08
-1.192662669e-08
-1.081346202e-08
-9.684984614e-09
-8.55010374e-09
-7.411738395e-09
-6.275868898e-09
-5.14287679e-09
-4.013648247e-09
-2.888665121e-09
-1.766092169e-09
-6.42951545e-10
4.807550186e-10
1.600946604e-09
2.710189245e-09
3.803726703e-09
4.880076192e-09
5.938844635e-09
6.981359012e-09
8.01448583e-09
9.05007634e-09
1.008468495e-08
1.110756574e-08
1.211251732e-08
1.310646577e-08
1.410372218e-08
1.509556668e-08
1.607893206e-08
1.707080065e-08
1.805710586e-08
1.902233923e-08
1.996342702e-08
2.089588162e-08
2.179614116e-08
2.270264101e-08
2.360087754e-08
2.441875085e-08
2.516194505e-08
2.580992701e-08
2.51275699e-08
2.254316682e-08
-3.736282108e-09
-2.916956569e-08
-3.088024309e-08
-3.249663513e-08
-3.311551228e-08
)


101
(
3.785781313e-16
4.954497324e-15
3.541148535e-15
-1.425385475e-13
-8.149030218e-13
-2.599508265e-12
-6.908376617e-12
-1.665265216e-11
-3.714990873e-11
-7.743595613e-11
-1.512458613e-10
-2.761011439e-10
-4.736882249e-10
-7.707749143e-10
-1.193154363e-09
-1.760963475e-09
-2.489962607e-09
-3.397312449e-09
-4.472376778e-09
-5.710822478e-09
-7.109491399e-09
-8.617803871e-09
-1.020588732e-08
-1.185455548e-08
-1.352121048e-08
-1.516736261e-08
-1.676239335e-08
-1.827275305e-08
-1.967788251e-08
-2.096474805e-08
-2.212256592e-08
-2.316455692e-08
-2.400799386e-08
-2.468920746e-08
-2.526849379e-08
-2.569674333e-08
-2.599981613e-08
-2.616582658e-08
-2.617496006e-08
-2.605867109e-08
-2.586805833e-08
-2.557219809e-08
-2.515979025e-08
-2.467808779e-08
-2.411206611e-08
-2.347036596e-08
-2.276498436e-08
-2.199894555e-08
-2.118099268e-08
-2.031404515e-08
-1.940556426e-08
-1.845474705e-08
-1.74720884e-08
-1.646404167e-08
-1.543407466e-08
-1.437880489e-08
-1.331073255e-08
-1.22284699e-08
-1.112742231e-08
-1.001568501e-08
-8.895355057e-09
-7.773715429e-09
-6.652000686e-09
-5.531681225e-09
-4.414565372e-09
-3.299768769e-09
-2.183849471e-09
-1.064385323e-09
5.698194588e-11
1.173706189e-09
2.279029187e-09
3.367817843e-09
4.437666228e-09
5.489564016e-09
6.53208575e-09
7.581318373e-09
8.636593763e-09
9.68495411e-09
1.071472303e-08
1.17313211e-08
1.27541632e-08
1.377706087e-08
1.479335786e-08
1.581893854e-08
1.684777639e-08
1.786626503e-08
1.88579361e-08
1.983711774e-08
2.078965294e-08
2.174826383e-08
2.270141923e-08
2.358255104e-08
2.437921089e-08
2.506649887e-08
2.429848488e-08
2.144297259e-08
-5.737185916e-09
-3.194919849e-08
-3.381043606e-08
-3.55806381e-08
-3.625187062e-08
)


101
(
3.313558753e-16
4.996331023e-15
5.835505012e-15
-1.257948032e-13
-7.458005228e-13
-2.391858609e-12
-6.341737617e-12
-1.52276507e-11
-3.38412924e-11
-7.033859949e-11
-1.371721806e-10
-2.504046954e-10
-4.298590015e-10
-7.001916926e-10
-1.085967607e-09
-1.60703158e-09
-2.279164155e-09
-3.120261929e-09
-4.123268717e-09
-5.286290279e-09
-6.608785211e-09
-8.046509889e-09
-9.573534167e-09
-1.117272782e-08
-1.280416972e-08
-1.443112722e-08
-1.602360119e-08
-1.754803468e-08
-1.898291483e-08
-2.031397106e-08
-2.152915363e-08
-2.263962745e-08
-2.356203616e-08
-2.432923134e-08
-2.499853492e-08
-2.552040878e-08
-2.591944855e-08
-2.61829165e-08
-2.628980025e-08
-2.627060777e-08
-2.617637274e-08
-2.597557246e-08
-2.565578845e-08
-2.526347417e-08
-2.478201095e-08
-2.421968483e-08
-2.358918433e-08
-2.289440179e-08
-2.214464963e-08
-2.134284251e-08
-2.04962551e-08
-1.960317498e-08
-1.867341082e-08
-1.771328467e-08
-1.672701562e-08
-1.571161527e-08
-1.468172554e-08
-1.363651051e-08
-1.257010147e-08
-1.148940557e-08
-1.039514376e-08
-9.295172271e-09
-8.191541895e-09
-7.086621866e-09
-5.982927271e-09
-4.880923969e-09
-3.778142918e-09
-2.670663416e-09
-1.557485889e-09
-4.427234274e-10
6.66560593e-10
1.762593137e-09
2.840153329e-09
3.897779524e-09
4.943346503e-09
5.996270585e-09
7.062347494e-09
8.129772263e-09
9.181468258e-09
1.021763006e-08
1.125856719e-08
1.230403171e-08
1.334880242e-08
1.440369847e-08
1.546648408e-08
1.653216477e-08
1.757399212e-08
1.859584128e-08
1.959467068e-08
2.060436031e-08
2.160765344e-08
2.254955588e-08
2.340038026e-08
2.412317705e-08
2.326628556e-08
2.013613901e-08
-7.885234547e-09
-3.481730868e-08
-3.683754662e-08
-3.875902411e-08
-3.947483814e-08
)


101
(
2.813520073e-16
4.994614898e-15
7.797529607e-15
-1.105886895e-13
-6.822097232e-13
-2.200994629e-12
-5.82320128e-12
-1.392726524e-11
-3.082552144e-11
-6.38658912e-11
-1.243132389e-10
-2.268539339e-10
-3.89576041e-10
-6.351132321e-10
-9.866906475e-10
-1.463685416e-09
-2.081772587e-09
-2.859227472e-09
-3.792066016e-09
-4.880647869e-09
-6.126684431e-09
-7.491676884e-09
-8.953502052e-09
-1.049739361e-08
-1.208646857e-08
-1.368605211e-08
-1.526705063e-08
-1.679616357e-08
-1.825113882e-08
-1.961669491e-08
-2.087988995e-08
-2.205023435e-08
-2.304432573e-08
-2.389156482e-08
-2.464592542e-08
-2.5257384e-08
-2.574916814e-08
-2.610778301e-08
-2.631110608e-08
-2.638845511e-08