/*--------------------------------*- C++ -*----------------------------------*\
| =========                 |                                                 |
| \\      /  F ield         | OpenFOAM: The Open Source CFD Toolbox           |
|  \\    /   O peration     | Version:  2.3.1                                 |
|   \\  /    A nd           | Web:      www.OpenFOAM.org                      |
|    \\/     M anipulation  |                                                 |
\*---------------------------------------------------------------------------*/
FoamFile
{
    version     2.0;
    format      ascii;
    class       dictionary;
    location    "constant";
    object      GRPSI48;
}
// * * * * * * * * * * * * * * * * * * * * * * * * * * * * * * * * * * * * * //

GRPSI48_table
101
(

101
(
-6.695064397e-22
-2.066359518e-15
-6.075899913e-14
-3.745733836e-13
-1.190378558e-12
-2.66366442e-12
-4.857246263e-12
-7.882739042e-12
-1.173062806e-11
-1.642987512e-11
-2.19833776e-11
-2.842065104e-11
-3.574961724e-11
-4.401545282e-11
-5.321590695e-11
-6.33546939e-11
-7.440551032e-11
-8.621799616e-11
-9.898223835e-11
-1.120260677e-10
-1.256852319e-10
-1.398106958e-10
-1.534126563e-10
-1.663844142e-10
-1.783235082e-10
-1.885153042e-10
-1.96241083e-10
-2.008638685e-10
-2.013162086e-10
-1.972547848e-10
-1.881644481e-10
-1.743020262e-10
-1.576491853e-10
-1.321702344e-10
-1.049803948e-10
-7.528982553e-11
-6.464814653e-10
-1.646692743e-09
-1.543077194e-09
-1.445127183e-09
-1.342757376e-09
-1.238195848e-09
-1.127152748e-09
-1.01375251e-09
-9.018642287e-10
-7.908218634e-10
-6.837359881e-10
-5.812859242e-10
-4.847795467e-10
-3.949884499e-10
-3.127326267e-10
-2.379434014e-10
-1.706798224e-10
-1.11327504e-10
-5.909911681e-11
-1.279702417e-11
2.781745482e-11
6.340595097e-11
9.465703389e-11
1.221759722e-10
1.46308863e-10
1.680608589e-10
1.875580344e-10
2.051205645e-10
2.209627218e-10
2.36131068e-10
2.501422787e-10
2.631340584e-10
2.752736091e-10
2.865158765e-10
2.96824975e-10
3.062338559e-10
3.146421586e-10
3.215899691e-10
2.060084525e-10
1.354902858e-10
1.653941254e-10
1.908637717e-10
2.121574182e-10
2.293568042e-10
2.427280476e-10
2.521539643e-10
2.580647404e-10
1.652806496e-10
1.07261697e-10
1.41107387e-10
1.64382824e-10
1.784382276e-10
1.842842006e-10
9.718530989e-11
1.107514084e-10
1.278768605e-10
1.292508559e-10
9.517340272e-11
7.458843007e-11
6.561035646e-11
4.093702348e-11
1.915799506e-10
7.121655382e-10
2.216965438e-09
5.546599337e-09
)


101
(
-6.695064382e-22
-1.415619524e-15
-3.395186148e-14
-1.913290504e-13
-5.758236833e-13
-1.236766791e-12
-2.176540619e-12
-3.417849946e-12
-4.919193934e-12
-6.652447248e-12
-8.567772319e-12
-1.061694453e-11
-1.273341316e-11
-1.482998783e-11
-1.67990865e-11
-1.85077296e-11
-1.976529433e-11
-2.025470319e-11
-1.997842235e-11
-1.80810941e-11
-1.463345897e-11
-9.308605631e-12
-9.291038598e-13
1.084743956e-11
2.652209425e-11
4.682118399e-11
7.240162026e-11
1.037359802e-10
1.416074184e-10
1.860163403e-10
2.370842475e-10
2.941495082e-10
3.546983088e-10
4.244529594e-10
4.948752656e-10
5.661175699e-10
3.401989501e-10
-9.048700144e-11
4.407814483e-11
1.69067567e-10
2.842806322e-10
3.893307351e-10
4.936777341e-10
5.952443067e-10
6.901506656e-10
7.811261093e-10
8.649583883e-10
9.422210366e-10
1.011356657e-09
1.072937604e-09
1.125829814e-09
1.170958951e-09
1.208922969e-09
1.239593737e-09
1.26319057e-09
1.281074765e-09
1.295399064e-09
1.305010724e-09
1.312867885e-09
1.318255087e-09
1.322774743e-09
1.326443696e-09
1.329248869e-09
1.332245943e-09
1.335644808e-09
1.340091837e-09
1.344697176e-09
1.349728267e-09
1.355696671e-09
1.361376497e-09
1.367194291e-09
1.372386421e-09
1.377966166e-09
1.381770507e-09
1.322528208e-09
1.283638406e-09
1.29319376e-09
1.29856083e-09
1.299540711e-09
1.295500009e-09
1.286092587e-09
1.270843749e-09
1.249505847e-09
1.1739397e-09
1.110144667e-09
1.08709437e-09
1.054782851e-09
1.013974159e-09
9.64075034e-10
8.626260879e-10
8.056203273e-10
7.4485975e-10
6.727869823e-10
5.780412115e-10
4.839096995e-10
3.883391477e-10
2.763441448e-10
9.698903751e-10
2.867019658e-09
7.551477384e-09
1.598353864e-08
)


101
(
-6.695064382e-22
-6.352053127e-16
-4.27538053e-15
3.168066763e-15
6.343314754e-14
2.334556076e-13
5.753818499e-13
1.164641604e-12
2.087985676e-12
3.449432033e-12
5.376843333e-12
8.030107901e-12
1.159372836e-11
1.635004424e-11
2.259069195e-11
3.06858695e-11
4.112630349e-11
5.458326192e-11
7.142486357e-11
9.302899308e-11
1.198956602e-10
1.528835799e-10
1.939540518e-10
2.442689514e-10
3.050590276e-10
3.778002127e-10
4.638897962e-10
5.644417286e-10
6.809140375e-10
8.137346729e-10
9.634232728e-10
1.129524119e-09
1.308578254e-09
1.509550034e-09
1.719241208e-09
1.930881145e-09
2.167064434e-09
2.427749412e-09
2.731568561e-09
3.048395203e-09
3.348251679e-09
3.620911744e-09
3.885504409e-09
4.143273447e-09
4.389065215e-09
4.631016654e-09
4.862088786e-09
5.085402265e-09
5.293931045e-09
5.490896303e-09
5.669849376e-09
5.833414639e-09
5.982282067e-09
6.114939528e-09
6.229835138e-09
6.330091163e-09
6.415583765e-09
6.482408533e-09
6.541020205e-09
6.584928942e-09
6.622169062e-09
6.650711651e-09
6.669752559e-09
6.683139718e-09
6.691533096e-09
6.694876071e-09
6.694198215e-09
6.686384498e-09
6.683609614e-09
6.678186975e-09
6.671233675e-09
6.659517201e-09
6.652317099e-09
6.642428074e-09
6.626726617e-09
6.604002674e-09
6.574346131e-09
6.536319276e-09
6.491822425e-09
6.438960864e-09
6.37418591e-09
6.291106806e-09
6.189078012e-09
6.06449752e-09
5.913913088e-09
5.734592081e-09
5.527257956e-09
5.298260429e-09
5.04339219e-09
4.761554409e-09
4.446730953e-09
4.102443421e-09
3.73009223e-09
3.335103263e-09
2.909938548e-09
2.438024838e-09
1.911812503e-09
5.413862595e-09
1.354173699e-08
3.25165442e-08
6.374674355e-08
)


101
(
-6.695064381e-22
-4.754140491e-16
-1.127623461e-15
1.50748252e-14
9.02700065e-14
2.850206066e-13
6.722047348e-13
1.347126258e-12
2.425995485e-12
4.054670387e-12
6.418878594e-12
9.757418243e-12
1.435866072e-11
2.065456351e-11
2.913043364e-11
4.040893986e-11
5.532434488e-11
7.502651951e-11
1.003834315e-10
1.336552654e-10
1.761977887e-10
2.299084345e-10
2.983980579e-10
3.845387297e-10
4.915339952e-10
6.231857543e-10
7.835156142e-10
9.764519852e-10
1.206835427e-09
1.478219053e-09
1.79432851e-09
2.158092866e-09
2.566346407e-09
3.040198181e-09
3.561590305e-09
4.124330962e-09
4.739701489e-09
5.4234599e-09
6.211333701e-09
7.094136089e-09
8.021499261e-09
8.946115507e-09
9.891070738e-09
1.085679795e-08
1.183428681e-08
1.284482738e-08
1.387065599e-08
1.491943529e-08
1.596871062e-08
1.702844098e-08
1.807105975e-08
1.909635825e-08
2.010021917e-08
2.107931401e-08
2.201761588e-08
2.290572075e-08
2.376513478e-08
2.454912965e-08
2.529282389e-08
2.593654626e-08
2.652890034e-08
2.706525281e-08
2.75176943e-08
2.791669661e-08
2.825559698e-08
2.848037746e-08
2.863576209e-08
2.870862602e-08
2.873350276e-08
2.87245447e-08
2.85923305e-08
2.840918997e-08
2.818882837e-08
2.794990472e-08
2.765217678e-08
2.730948424e-08
2.688553436e-08
2.645481552e-08
2.599044419e-08
2.552456051e-08
2.506638281e-08
2.454449905e-08
2.399662546e-08
2.341194003e-08
2.277082321e-08
2.204982603e-08
2.12533365e-08
2.040483437e-08
1.949574516e-08
1.85128218e-08
1.742707457e-08
1.62631833e-08
1.500690305e-08
1.367705046e-08
1.226873307e-08
1.067025622e-08
8.845357327e-09
2.232837538e-08
5.039129559e-08
1.15920006e-07
1.98695619e-07
)


101
(
-6.695065005e-22
-4.364431426e-16
-8.643635234e-16
1.567897484e-14
9.357895803e-14
3.006701705e-13
7.237214538e-13
1.480826976e-12
2.723617197e-12
4.649374607e-12
7.517867305e-12
1.167185515e-11
1.754171651e-11
2.576537763e-11
3.710577669e-11
5.255915647e-11
7.347567539e-11
1.017335198e-10
1.390304624e-10
1.890125688e-10
2.545103337e-10
3.393190846e-10
4.498843224e-10
5.922392352e-10
7.734771229e-10
1.002121567e-09
1.28771165e-09
1.640503548e-09
2.073087798e-09
2.59707556e-09
3.225315392e-09
3.969273763e-09
4.832442968e-09
5.862099019e-09
7.041112027e-09
8.377713697e-09
9.862716676e-09
1.153552621e-08
1.346358971e-08
1.568677581e-08
1.816680191e-08
2.081508458e-08
2.365888349e-08
2.669624617e-08
2.991080456e-08
3.33595979e-08
3.702380344e-08
4.095031665e-08
4.510345114e-08
4.951497067e-08
5.411255313e-08
5.88810459e-08
6.38080638e-08
6.892139096e-08
7.419364209e-08
7.949432745e-08
8.490344797e-08
9.030630515e-08
9.588524813e-08
1.011293267e-07
1.060802714e-07
1.111422896e-07
1.156780743e-07
1.200599745e-07
1.243103985e-07
1.278945484e-07
1.309597665e-07
1.33416942e-07
1.349899013e-07
1.368075832e-07
1.3731128e-07
1.371271476e-07
1.36140627e-07
1.348255272e-07
1.328039755e-07
1.301652898e-07
1.26941023e-07
1.232166591e-07
1.185798317e-07
1.13884819e-07
1.091877642e-07
1.047152934e-07
9.968891972e-08
9.482644748e-08
8.982678196e-08
8.484384395e-08
7.9553572e-08
7.459636466e-08
6.978005595e-08
6.520348098e-08
6.05499585e-08
5.585077948e-08
5.133460057e-08
4.679003144e-08
4.231643775e-08
3.731540391e-08
3.177779393e-08
7.97211289e-08
1.681582502e-07
4.264703631e-07
7.418330977e-07
)


101
(
-6.695064397e-22
-4.234498285e-16
-9.293397229e-16
1.551503728e-14
9.584567044e-14
3.155985505e-13
7.76770859e-13
1.623428465e-12
3.049081078e-12
5.313953697e-12
8.771278968e-12
1.389879335e-11
2.131650784e-11
3.194180025e-11
4.692475538e-11
6.779734759e-11
9.666253206e-11
1.364731886e-10
1.902301934e-10
2.636960395e-10
3.621003015e-10
4.924590431e-10
6.659329251e-10
8.940475711e-10
1.190940341e-09
1.574008378e-09
2.063465969e-09
2.682296941e-09
3.459080933e-09
4.423290169e-09
5.608948749e-09
7.049100366e-09
8.76709394e-09
1.086465706e-08
1.334442683e-08
1.625063126e-08
1.960388922e-08
2.345562736e-08
2.794785731e-08
3.324387616e-08
3.939840054e-08
4.633866515e-08
5.417460299e-08
6.297500458e-08
7.275795748e-08
8.370200632e-08
9.587235292e-08
1.095874409e-07
1.249250213e-07
1.419811684e-07
1.608123455e-07
1.811670006e-07
2.031031477e-07
2.268054092e-07
2.52680744e-07
2.797148597e-07
3.078764108e-07
3.375096272e-07
3.685933088e-07
3.996380246e-07
4.307653508e-07
4.629070619e-07
4.936725043e-07
5.229532682e-07
5.520665324e-07
5.792466824e-07
6.037619667e-07
6.256434276e-07
6.431084876e-07
6.586127363e-07
6.702283515e-07
6.779295218e-07
6.807485455e-07
6.798957174e-07
6.744199082e-07
6.642730658e-07
6.512492928e-07
6.33304306e-07
6.097600845e-07
5.831826668e-07
5.541348968e-07
5.264072313e-07
4.954651501e-07
4.63685514e-07
4.317638266e-07
3.989157133e-07
3.648627587e-07
3.311001723e-07
2.999914322e-07
2.721424858e-07
2.441225172e-07
2.168354448e-07
1.929309213e-07
1.703390303e-07
1.506064653e-07
1.285518603e-07
1.060111122e-07
3.093584764e-07
6.306946089e-07
1.439757909e-06
2.322361857e-06
)


101
(
-6.695064382e-22
-4.161143177e-16
-1.033472969e-15
1.526534948e-14
9.798302535e-14
3.307607767e-13
8.323007619e-13
1.776159956e-12
3.404952847e-12
6.055061334e-12
1.019611089e-11
1.6478205e-11
2.577003377e-11
3.936092488e-11
5.892918423e-11
8.67550182e-11
1.26011452e-10
1.811969473e-10
2.572734885e-10
3.63150306e-10
5.077924259e-10
7.033848224e-10
9.686570175e-10
1.324232142e-09
1.796236893e-09
2.417720575e-09
3.228359216e-09
4.274987295e-09
5.616767974e-09
7.319363274e-09
9.46116848e-09
1.21258255e-08
1.538685974e-08
1.945618962e-08
2.441207899e-08
3.041743084e-08
3.760715347e-08
4.614474907e-08
5.638522401e-08
6.880384731e-08
8.379688351e-08
1.015427007e-07
1.226384543e-07
1.475526639e-07
1.76619651e-07
2.104870786e-07
2.494600258e-07
2.946403395e-07
3.468383041e-07
4.06366388e-07
4.738969246e-07
5.47967951e-07
6.294364196e-07
7.186049027e-07
8.16164507e-07
9.1977479e-07
1.029361775e-06
1.143707731e-06
1.263289649e-06
1.383803973e-06
1.505163412e-06
1.629748549e-06
1.752247973e-06
1.871464405e-06
1.987031454e-06
2.097255877e-06
2.197440464e-06
2.292036325e-06
2.373566993e-06
2.44463377e-06
2.505199026e-06
2.54942018e-06
2.577830314e-06
2.59079941e-06
2.589757094e-06
2.570018022e-06
2.538273349e-06
2.490380936e-06
2.426616812e-06
2.34623046e-06
2.248233327e-06
2.143351858e-06
2.035127102e-06
1.915446037e-06
1.794831302e-06
1.668417985e-06
1.533774731e-06
1.394940335e-06
1.262474805e-06
1.138970852e-06
1.020530196e-06
8.964132816e-07
7.890416275e-07
6.889317881e-07
5.983693488e-07
5.024975035e-07
3.950415116e-07
1.106021709e-06
2.045748075e-06
3.910897153e-06
5.802242619e-06
)


101
(
-6.695064382e-22
-4.097719481e-16
-1.142904691e-15
1.497510898e-14
1.000195222e-13
3.461531089e-13
8.903339495e-13
1.939408809e-12
3.793044549e-12
6.878877371e-12
1.180973885e-11
1.945280369e-11
3.099761498e-11
4.822053436e-11
7.350661001e-11
1.10158438e-10
1.628351211e-10
2.382076433e-10
3.440948824e-10
4.939624287e-10
7.024023073e-10
9.895500472e-10
1.385833502e-09
1.926432203e-09
2.656920295e-09
3.636545919e-09
4.938900412e-09
6.653693189e-09
8.89618053e-09
1.180188434e-08
1.553950121e-08
2.030429018e-08
2.629598256e-08
3.395912714e-08
4.360570372e-08
5.573036377e-08
7.083729294e-08
8.95384423e-08
1.129007593e-07
1.421794455e-07
1.78783631e-07
2.238625093e-07
2.790783763e-07
3.459860269e-07
4.259123395e-07
5.207737151e-07
6.313383176e-07
7.597269654e-07
9.086848315e-07
1.077858444e-06
1.266955749e-06
1.47475251e-06
1.702933447e-06
1.947665821e-06
2.213460283e-06
2.497104826e-06
2.792096794e-06
3.095991506e-06
3.410748095e-06
3.7277692e-06
4.045178463e-06
4.365436139e-06
4.676406154e-06
4.982916921e-06
5.27890029e-06
5.564433166e-06
5.83027152e-06
6.075219584e-06
6.292853786e-06
6.475094399e-06
6.635518845e-06
6.759871291e-06
6.861735594e-06
6.92742069e-06
6.952791943e-06
6.938873244e-06
6.890280658e-06
6.804881356e-06
6.684887884e-06
6.523874881e-06
6.326009042e-06
6.087867843e-06
5.842598907e-06
5.563286377e-06
5.276975108e-06
4.96186277e-06
4.637644075e-06
4.284937935e-06
3.935851933e-06
3.594823269e-06
3.263408205e-06
2.913854188e-06
2.603245148e-06
2.310327481e-06
2.028761108e-06
1.743393514e-06
1.355925749e-06
3.064454259e-06
5.036104654e-06
8.244258057e-06
1.144444916e-05
)


101
(
-6.695065629e-22
-4.033125943e-16
-1.253418354e-15
1.464652342e-14
1.019432671e-13
3.617323181e-13
9.508452049e-13
2.113507067e-12
4.215103842e-12
7.791623676e-12
1.363025311e-11
2.286826673e-11
3.710318994e-11
5.874010702e-11
9.109344583e-11
1.388365897e-10
2.086519611e-10
3.102028721e-10
4.553580073e-10
6.640424169e-10
9.590760687e-10
1.372399685e-09
1.951911896e-09
2.755573769e-09
3.859343056e-09
5.364818474e-09
7.402621902e-09
1.01373918e-08
1.378553899e-08
1.861564414e-08
2.497925441e-08
3.332055775e-08
4.415631484e-08
5.844056156e-08
7.708793835e-08
1.014490526e-07
1.330385901e-07
1.737037885e-07
2.263321952e-07
2.936741129e-07
3.790235937e-07
4.851331169e-07
6.15759673e-07
7.738675695e-07
9.621992393e-07
1.184454429e-06
1.441659588e-06
1.737026252e-06
2.0725081e-06
2.446039744e-06
2.856371028e-06
3.303528751e-06
3.785218342e-06
4.29474384e-06
4.835913238e-06
5.400720389e-06
5.98728911e-06
6.57704643e-06
7.182703197e-06
7.791567262e-06
8.393188983e-06
8.993429832e-06
9.572691215e-06
1.013820891e-05
1.06823214e-05
1.120149429e-05
1.169105588e-05
1.213414041e-05
1.253334444e-05
1.287868518e-05
1.3179816e-05
1.342802743e-05
1.362315635e-05
1.376531369e-05
1.384640374e-05
1.38683378e-05
1.381886195e-05
1.370846712e-05
1.354651691e-05
1.331268537e-05
1.301097994e-05
1.264749512e-05
1.223847448e-05
1.178967507e-05
1.129628112e-05
1.075322005e-05
1.019664362e-05
9.575971252e-06
8.937440489e-06
8.292399986e-06
7.644257296e-06
6.983423901e-06
6.351945696e-06
5.748909036e-06
5.147561521e-06
4.514900069e-06
3.683792789e-06
6.648102426e-06
9.754399843e-06
1.392104333e-05
1.792351696e-05
)


101
(
-6.695065629e-22
-3.964653972e-16
-1.3642717e-15
1.427928967e-14
1.037422435e-13
3.774519872e-13
1.013780574e-12
2.298704388e-12
4.672860538e-12
8.799705771e-12
1.567658699e-11
2.677302535e-11
4.419880654e-11
7.115992263e-11
1.121749212e-10
1.737242294e-10
2.651964469e-10
4.003031759e-10
5.965208096e-10
8.827433399e-10
1.293555282e-09
1.878012644e-09
2.709506523e-09
3.880627833e-09
5.514090084e-09
7.778800383e-09
1.089965391e-08
1.517089254e-08
2.099202381e-08
2.888941222e-08
3.95846658e-08
5.405116778e-08
7.353134028e-08
1.000893833e-07
1.359270012e-07
1.841839086e-07
2.485037383e-07
3.331042006e-07
4.436639366e-07
5.850272802e-07
7.629637087e-07
9.814961552e-07
1.247055148e-06
1.563043568e-06
1.933006028e-06
2.361767199e-06
2.848380824e-06
3.395088149e-06
3.998926485e-06
4.65815824e-06
5.370024295e-06
6.133861425e-06
6.941418749e-06
7.785012343e-06
8.650756659e-06
9.542633601e-06
1.046509763e-05
1.138272559e-05
1.230762539e-05
1.322999128e-05
1.413212116e-05
1.501567106e-05
1.587595955e-05
1.670093819e-05
1.748384435e-05
1.821871415e-05
1.891979831e-05
1.955719154e-05
2.013804145e-05
2.065016155e-05
2.108941891e-05
2.145958897e-05
2.174994707e-05
2.196840826e-05
2.211467963e-05
2.217672522e-05
2.214607345e-05
2.203756935e-05
2.185449474e-05
2.158633745e-05
2.121915718e-05
2.077661712e-05
2.024324732e-05
1.966241697e-05
1.900298543e-05
1.827179133e-05
1.750097752e-05
1.666047784e-05
1.575765435e-05
1.484793737e-05
1.388396068e-05
1.291972689e-05
1.19528236e-05
1.101230558e-05
1.007621605e-05
8.996562485e-06
7.624692405e-06
1.170338687e-05
1.56224469e-05
1.969652138e-05
2.316389415e-05
)


101
(
-6.694941607e-22
-3.891631506e-16
-1.475168682e-15
1.387263632e-14
1.054037704e-13
3.932633709e-13
1.079074927e-12
2.49521139e-12
5.167988495e-12
9.909718359e-12
1.796850891e-11
3.121841217e-11
5.24049261e-11
8.574215922e-11
1.372883816e-10
2.158705303e-10
3.344353905e-10
5.12085545e-10
7.739174745e-10
1.161058495e-09
1.724644513e-09
2.538132551e-09
3.711866318e-09
5.389690869e-09
7.767356179e-09
1.111988471e-08
1.582606213e-08
2.240627803e-08
3.159602008e-08
4.44170747e-08
6.230965726e-08
8.726662538e-08
1.219252551e-07
1.704872778e-07
2.373486343e-07
3.284659856e-07
4.50642202e-07
6.111896158e-07
8.185976022e-07
1.079533001e-06
1.401912956e-06
1.78976121e-06
2.250636461e-06
2.787385423e-06
3.402171093e-06
4.097905594e-06
4.86776827e-06
5.710546504e-06
6.62089018e-06
7.596849225e-06
8.630210348e-06
9.716861549e-06
1.084916036e-05
1.201355282e-05
1.318540632e-05
1.438745597e-05
1.559868481e-05
1.680692068e-05
1.799625602e-05
1.917487799e-05
2.032346402e-05
2.142724838e-05
2.249595061e-05
2.351050233e-05
2.4469804e-05
2.536177488e-05
2.619732419e-05
2.697205153e-05
2.767732387e-05
2.829883688e-05
2.883017805e-05
2.927601082e-05
2.963908976e-05
2.99118527e-05
3.009701128e-05
3.018356603e-05
3.017637301e-05
3.008037897e-05
2.987979081e-05
2.960154693e-05
2.922705133e-05
2.874725394e-05
2.816727479e-05
2.751000705e-05
2.676730711e-05
2.593328627e-05
2.502624251e-05
2.407520473e-05
2.302737243e-05
2.194194051e-05
2.078942758e-05
1.961706896e-05
1.841093004e-05
1.722284733e-05
1.606157099e-05
1.465614968e-05
1.284794036e-05
1.722081143e-05
2.107348325e-05
2.402018862e-05
2.605723788e-05
)


101
(
-6.694514333e-22
-3.81389577e-16
-1.585843616e-15
1.342568931e-14
1.069129578e-13
4.091085389e-13
1.146642886e-12
2.703207319e-12
5.70201937e-12
1.112803993e-11
2.052625542e-11
3.625840509e-11
6.185081642e-11
1.027732258e-10
1.670293083e-10
2.664509981e-10
4.185925191e-10
6.49624844e-10
9.948483699e-10
1.51189785e-09
2.274831999e-09
3.39151037e-09
5.025355331e-09
7.39486316e-09
1.080840507e-08
1.571080391e-08
2.273844057e-08
3.280594297e-08
4.72508606e-08
6.798348742e-08
9.770194587e-08
1.401186786e-07
2.001030399e-07
2.850939203e-07
4.024237025e-07
5.613978614e-07
7.719980866e-07
1.043930716e-06
1.38725817e-06
1.810321167e-06
2.320573566e-06
2.920467693e-06
3.61555952e-06
4.406539264e-06
5.291429432e-06
6.269520334e-06
7.32908338e-06
8.4633798e-06
9.66339468e-06
1.092686635e-05
1.223981282e-05
1.359401912e-05
1.498312524e-05
1.639320012e-05
1.780673869e-05
1.922536905e-05
2.063050493e-05
2.202042431e-05
2.337516963e-05
2.470023777e-05
2.59882095e-05
2.721563164e-05
2.838526892e-05
2.948681522e-05
3.052172372e-05
3.148660639e-05
3.236267004e-05
3.317146621e-05
3.390284705e-05
3.454780382e-05
3.509929077e-05
3.555676861e-05
3.591855681e-05
3.618586733e-05
3.636178946e-05
3.644544857e-05
3.643134895e-05
3.632081823e-05
3.610668613e-05
3.58100525e-05
3.543176432e-05
3.49463263e-05
3.436438405e-05
3.368889052e-05
3.293055938e-05
3.20918837e-05
3.115094357e-05
3.017648616e-05
2.91233309e-05
2.797572147e-05
2.678740871e-05
2.556590131e-05
2.429329949e-05
2.300892587e-05
2.177388406e-05
2.027582445e-05
1.834059847e-05
2.192567292e-05
2.46141238e-05
2.548415633e-05
2.549229622e-05
)


101
(
-6.694208616e-22
-3.731409147e-16
-1.695987711e-15
1.293783512e-14
1.082554845e-13
4.249246507e-13
1.216357896e-12
2.922766647e-12
6.27652393e-12
1.246123382e-11
2.337026376e-11
4.194913594e-11
7.267317862e-11
1.225595001e-10
2.020437353e-10
3.267603504e-10
5.201710507e-10
8.176002935e-10
1.267838703e-09
1.950535168e-09
2.970978848e-09
4.485083933e-09
6.731941266e-09
1.004055194e-08
1.489230364e-08
2.200361421e-08
3.244208031e-08
4.778739454e-08
7.038233028e-08
1.035456452e-07
1.518538185e-07
2.214747176e-07
3.202702751e-07
4.594640086e-07
6.491644641e-07
9.015483845e-07
1.228569693e-06
1.640609394e-06
2.147385608e-06
2.758572663e-06
3.477658259e-06
4.303295631e-06
5.236990938e-06
6.275494983e-06
7.410738489e-06
8.638801198e-06
9.947545006e-06
1.132435834e-05
1.27547741e-05
1.423538195e-05
1.574413625e-05
1.727374675e-05
1.882097513e-05
2.037231567e-05
2.191550843e-05
2.342611846e-05
2.49172661e-05
2.636805621e-05
2.777740514e-05
2.912675591e-05
3.042785435e-05
3.165804382e-05
3.281539806e-05
3.389376841e-05
3.489144374e-05
3.58120821e-05
3.663752782e-05
3.737488905e-05
3.802656256e-05
3.859327694e-05
3.90670914e-05
3.944577341e-05
3.972659237e-05
3.991302733e-05
4.00103339e-05
4.002355422e-05
3.994302539e-05
3.976830076e-05
3.950672316e-05
3.916025101e-05
3.874460377e-05
3.82451253e-05
3.765875127e-05
3.698805629e-05
3.624518887e-05
3.5446431e-05
3.455141714e-05
3.360883811e-05
3.262804009e-05
3.156150795e-05
3.044704586e-05
2.9311298e-05
2.814523617e-05
2.693814052e-05
2.578528321e-05
2.439015896e-05
2.261269133e-05
2.448109847e-05
2.510915116e-05
2.325019231e-05
2.050861491e-05
)


101
(
-6.694211125e-22
-3.644171599e-16
-1.805341292e-15
1.240845672e-14
1.094167048e-13
4.406468119e-13
1.288074592e-12
3.153893275e-12
6.892935101e-12
1.391589376e-11
2.652075932e-11
4.834926829e-11
8.501653404e-11
1.45426965e-10
2.430271533e-10
3.982151556e-10
6.419797285e-10
1.02142315e-09
1.603009086e-09
2.495998567e-09
3.847004109e-09
5.878891485e-09
8.938426907e-09
1.352230124e-08
2.038013761e-08
3.065180817e-08
4.608659232e-08
6.92828361e-08
1.040617531e-07
1.556909339e-07
2.311415589e-07
3.393949683e-07
4.914112254e-07
7.019716345e-07
9.827456405e-07
1.347428059e-06
1.80821013e-06
2.374474343e-06
3.054031602e-06
3.854461207e-06
4.774827905e-06
5.809403478e-06
6.954382855e-06
8.200485335e-06
9.533954763e-06
1.094822095e-05
1.243217167e-05
1.39700186e-05
1.554540978e-05
1.714834049e-05
1.875496902e-05
2.035820768e-05
2.195640872e-05
2.353611626e-05
2.50887611e-05
2.65893999e-05
2.80477557e-05
2.945052779e-05
3.079312707e-05
3.205807083e-05
3.325518363e-05
3.43715254e-05
3.540254881e-05
3.634727357e-05
3.720312767e-05
3.79667017e-05
3.863508707e-05
3.920669152e-05
3.968056544e-05
4.006880447e-05
4.036596238e-05
4.056844118e-05
4.068074645e-05
4.070171959e-05
4.063825093e-05
4.049865798e-05
4.027424029e-05
3.997201031e-05
3.959509483e-05
3.914612465e-05
3.864684311e-05
3.808757961e-05
3.746335813e-05
3.678091745e-05
3.60453935e-05
3.527632636e-05
3.444921232e-05
3.358434421e-05
3.269356698e-05
3.177104446e-05
3.081764884e-05
2.984325514e-05
2.887225007e-05
2.787622585e-05
2.6922628e-05
2.578578116e-05
2.436185245e-05
2.37591484e-05
2.182721501e-05
1.752549933e-05
1.211911619e-05
)


101
(
-6.694213604e-22
-3.552200488e-16
-1.913695545e-15
1.183716803e-14
1.103807327e-13
4.562003048e-13
1.361632214e-12
3.396534808e-12
7.552427406e-12
1.54982415e-11
2.999884443e-11
5.551885485e-11
9.903303838e-11
1.717260129e-10
2.907406328e-10
4.823889346e-10
7.871536166e-10
1.267220544e-09
2.012038169e-09
3.17032385e-09
4.943616873e-09
7.649164228e-09
1.178967466e-08
1.811156116e-08
2.777317068e-08
4.254704793e-08
6.516184947e-08
9.958019333e-08
1.514854271e-07
2.284704843e-07
3.402193203e-07
4.982982503e-07
7.156062266e-07
1.009658106e-06
1.391894534e-06
1.87593031e-06
2.472567498e-06
3.188869108e-06
4.029700073e-06
4.997083238e-06
6.087559989e-06
7.289015246e-06
8.593252775e-06
9.986509079e-06
1.145151877e-05
1.297618623e-05
1.454839284e-05
1.615643805e-05
1.778097318e-05
1.940554881e-05
2.101635194e-05
2.260004004e-05
2.414693061e-05
2.565275857e-05
2.711298511e-05
2.850706093e-05
2.982843168e-05
3.107996491e-05
3.225179294e-05
3.333431328e-05
3.432765654e-05
3.523070012e-05
3.604015686e-05
3.675147297e-05
3.736350007e-05
3.787924784e-05
3.829701847e-05
3.861454495e-05
3.882750452e-05
3.894954808e-05
3.898372876e-05
3.892461982e-05
3.878526694e-05
3.855921617e-05
3.825712239e-05
3.789492926e-05
3.745772578e-05
3.696179738e-05
3.640096721e-05
3.579677309e-05
3.515973501e-05
3.448482709e-05
3.378179259e-05
3.304426987e-05
3.228231796e-05
3.152172112e-05
3.07389747e-05
2.995395168e-05
2.915603026e-05
2.836729546e-05
2.76070329e-05
2.682563956e-05
2.60720887e-05
2.532869162e-05
2.462169184e-05
2.380734281e-05
2.279484095e-05
1.96101638e-05
1.534259462e-05
9.631346046e-06
3.88936597e-06
)


101
(
-6.694208616e-22
-3.455508858e-16
-2.021281594e-15
1.122366111e-14
1.111320672e-13
4.715045686e-13
1.436836128e-12
3.650533647e-12
8.256187887e-12
1.72146285e-11
3.382618051e-11
6.351776043e-11
1.148798505e-10
2.01832882e-10
3.460228403e-10
5.810537678e-10
9.592376277e-10
1.561868386e-09
2.508154978e-09
3.99812966e-09
6.30912811e-09
9.891699465e-09
1.547905616e-08
2.417062244e-08
3.772081266e-08
5.878482206e-08
9.132433204e-08
1.408862657e-07
2.151860937e-07
3.24149983e-07
4.799432358e-07
6.960211077e-07
9.856268202e-07
1.367251763e-06
1.85058703e-06
2.447911492e-06
3.167337401e-06
4.01245643e-06
4.984757093e-06
6.080970558e-06
7.292292451e-06
8.602677653e-06
1.000215974e-05
1.147288668e-05
1.299567041e-05
1.455407515e-05
1.613409739e-05
1.772757156e-05
1.931236326e-05
2.087278956e-05
2.240137218e-05
2.388012987e-05
2.529182865e-05
2.663879262e-05
2.791752213e-05
2.911536884e-05
3.022008044e-05
3.123431424e-05
3.215638378e-05
3.29765201e-05
3.369058437e-05
3.430099317e-05
3.480956197e-05
3.52076321e-05
3.550421051e-05
3.569110638e-05
3.578207162e-05
3.577611894e-05
3.566502302e-05
3.546243253e-05
3.516726886e-05
3.478906533e-05
3.43362929e-05
3.38073621e-05
3.321286406e-05
3.25736759e-05
3.18935604e-05
3.115210211e-05
3.037422901e-05
2.957883976e-05
2.876273372e-05
2.794061826e-05
2.713611234e-05
2.631457472e-05
2.550180433e-05
2.472189897e-05
2.396417337e-05
2.323253442e-05
2.252935237e-05
2.185568359e-05
2.125857855e-05
2.066849554e-05
2.01132165e-05
1.960448028e-05
1.913055581e-05
1.86168012e-05
1.799898411e-05
1.286418163e-05
7.179668926e-06
1.369316412e-06
-3.709997067e-06
)


101
(
-6.694208616e-22
-3.354181997e-16
-2.125568007e-15
1.05676151e-14
1.116553358e-13
4.864801804e-13
1.513469504e-12
3.915642418e-12
9.005202859e-12
1.907167326e-11
3.802385918e-11
7.240628385e-11
1.327176961e-10
2.361481658e-10
4.098037059e-10
6.962543369e-10
1.162453082e-09
1.91378942e-09
3.10795617e-09
5.009240009e-09
8.005079235e-09
1.273047639e-08
2.025354303e-08
3.214076803e-08
5.094042724e-08
8.042680434e-08
1.259406566e-07
1.946210651e-07
2.961040688e-07
4.422034712e-07
6.464986084e-07
9.232304771e-07
1.285157157e-06
1.74936084e-06
2.322861174e-06
3.01599429e-06
3.833359129e-06
4.773894063e-06
5.834801385e-06
7.009415542e-06
8.283890322e-06
9.642208416e-06
1.107017298e-05
1.254779329e-05
1.405566255e-05
1.557681422e-05
1.709536329e-05
1.859980257e-05
2.007253043e-05
2.149901332e-05
2.287081691e-05
2.417234635e-05
2.538500876e-05
2.650691811e-05
2.753652076e-05
2.847104332e-05
2.929611815e-05
3.001304753e-05
3.062304138e-05
3.112230823e-05
3.150390643e-05
3.176935141e-05
3.191810244e-05
3.195124849e-05
3.188266366e-05
3.169112533e-05
3.14110875e-05
3.103643972e-05
3.056767933e-05
3.000050488e-05
2.934673264e-05
2.862824517e-05
2.783911322e-05
2.699535157e-05
2.610575406e-05
2.517638271e-05
2.422738879e-05
2.32529978e-05
2.227029668e-05
2.128137909e-05
2.029253202e-05
1.934718664e-05
1.843277999e-05
1.754404787e-05
1.669742524e-05
1.590416699e-05
1.517768264e-05
1.449673428e-05
1.388595262e-05
1.332428481e-05
1.28488007e-05
1.24338203e-05
1.205492129e-05
1.173507301e-05
1.146267045e-05
1.11979315e-05
1.091772576e-05
4.977058307e-06
-8.614501199e-07
-5.655740815e-06
-9.962542949e-06
)


101
(
-6.694213604e-22
-3.248344044e-16
-2.227857186e-15
9.868964273e-15
1.119345111e-13
5.010401671e-13
1.591284421e-12
4.191514778e-12
9.799497292e-12
2.107339539e-11
4.261326823e-11
8.224846391e-11
1.527191482e-10
2.750875587e-10
4.830218801e-10
8.300305539e-10
1.401186345e-09
2.332406401e-09
3.831673105e-09
6.247156778e-09
1.011928706e-08
1.633429377e-08
2.640746921e-08
4.250489657e-08
6.811094224e-08
1.082806584e-07
1.697239564e-07
2.608903844e-07
3.92901814e-07
5.785667551e-07
8.314097766e-07
1.165255211e-06
1.59214407e-06
2.125764478e-06
2.769663825e-06
3.531653099e-06
4.413006333e-06
5.408216609e-06
6.510090933e-06
7.709562956e-06
8.990926939e-06
1.033688068e-05
1.172991069e-05
1.315129871e-05
1.458215185e-05
1.600429412e-05
1.740023698e-05
1.875585243e-05
2.005997608e-05
2.129652992e-05
2.245505969e-05
2.35235814e-05
2.448739831e-05
2.533798734e-05
2.607394251e-05
2.669705181e-05
2.719717435e-05
2.757875735e-05
2.783576622e-05
2.797186397e-05
2.799256866e-05
2.788205247e-05
2.764597569e-05
2.72953702e-05
2.68370365e-05
2.626224893e-05
2.559746622e-05
2.484338262e-05
2.400922878e-05
2.308243726e-05
2.209671773e-05
2.104769881e-05
1.994240735e-05
1.881233671e-05
1.766341011e-05
1.648921426e-05
1.53182742e-05
1.417048947e-05
1.302585441e-05
1.190204446e-05
1.081959125e-05
9.808705516e-06
8.8350213e-06
7.92811506e-06
7.113225383e-06
6.353470259e-06
5.692230208e-06
5.103518844e-06
4.604126563e-06
4.169956447e-06
3.827510364e-06
3.564318932e-06
3.362987988e-06
3.205829136e-06
3.100303898e-06
3.034879142e-06
3.037054613e-06
-2.466485323e-06
-7.346589034e-06
-1.051432633e-05
-1.301922176e-05
)

