/*--------------------------------*- C++ -*----------------------------------*\
| =========                 |                                                 |
| \\      /  F ield         | OpenFOAM: The Open Source CFD Toolbox           |
|  \\    /   O peration     | Version:  2.3.1                                 |
|   \\  /    A nd           | Web:      www.OpenFOAM.org                      |
|    \\/     M anipulation  |                                                 |
\*---------------------------------------------------------------------------*/
FoamFile
{
    version     2.0;
    format      ascii;
    class       dictionary;
    location    "constant";
    object      GRPSI4;
}
// * * * * * * * * * * * * * * * * * * * * * * * * * * * * * * * * * * * * * //

GRPSI4_table
101
(

101
(
0.03416227347
0.03009982314
0.024012375
0.02097292491
0.01951023712
0.01888409239
0.01864477152
0.01856673346
0.0185269886
0.01845001651
0.01829775063
0.01805597665
0.01770933707
0.01725941325
0.01672471306
0.01610597246
0.01539963754
0.01466675238
0.01386825231
0.01303218658
0.01223971588
0.01139648646
0.01053457893
0.009716394679
0.008918106163
0.008134064672
0.007371903919
0.006623081349
0.00589079844
0.00518255471
0.004500409673
0.003879237889
0.003202281991
0.002522398279
0.001932065017
0.001350607821
0.0008076088987
0.0002735374291
-0.0002886315611
-0.0008438061884
-0.001327838997
-0.001793846146
-0.002272968188
-0.002705671181
-0.003129654499
-0.003546276911
-0.003948785241
-0.004342288805
-0.004721153037
-0.00508629928
-0.005431634438
-0.005769624301
-0.006092879086
-0.006400275922
-0.006693935476
-0.006994709842
-0.007272704639
-0.007534736982
-0.007795984599
-0.008041350849
-0.008280381715
-0.008503890218
-0.008720767653
-0.008929436188
-0.009129012753
-0.009319277014
-0.009498988495
-0.009674231516
-0.009840373197
-0.00999635906
-0.01014676185
-0.01029269738
-0.01042817398
-0.01054903161
-0.01066134284
-0.01077471773
-0.0108854682
-0.01098275201
-0.01107081862
-0.01115236409
-0.01123208989
-0.01130517028
-0.01136954441
-0.01143005791
-0.01148423475
-0.01153240148
-0.01157542961
-0.01161383485
-0.01164755575
-0.01167728234
-0.01170265642
-0.01172337925
-0.01174082483
-0.011754557
-0.01176520609
-0.01176854406
-0.005883483019
5.001437687e-11
-2.819511903e-20
-2.107279293e-21
5.639023805e-20
)


101
(
0.03387845465
0.0298771173
0.02385821856
0.02081883403
0.01933596015
0.01868616059
0.01842594297
0.01833200696
0.0182835488
0.0182043984
0.01805644838
0.01782535134
0.01749432024
0.01706510738
0.0165557181
0.01596457105
0.0152891382
0.01458467386
0.01381949906
0.01301433293
0.012244007
0.01143406443
0.01060298507
0.00980510302
0.009028455554
0.008266642854
0.007524443779
0.006796644081
0.006083968083
0.005392419361
0.004724754308
0.004105223401
0.003465961833
0.002813287903
0.002215037672
0.001643470384
0.001102044829
0.0005785425189
4.52304146e-05
-0.0004904775428
-0.0009875767651
-0.001452897241
-0.001913843056
-0.002352980378
-0.002773077956
-0.003182777929
-0.00358090603
-0.003968784062
-0.004344798382
-0.004708234289
-0.005056261157
-0.005391987069
-0.00571631385
-0.006027439075
-0.006325055483
-0.00661668403
-0.006900356304
-0.007169494328
-0.007429023167
-0.007679511769
-0.007920379905
-0.008151170743
-0.00837186626
-0.00858441926
-0.008788899938
-0.008985070752
-0.009172328752
-0.009351659645
-0.009524301783
-0.00968878921
-0.009845122945
-0.009994848662
-0.01013773859
-0.01027158121
-0.01039651222
-0.01051596009
-0.01063172754
-0.01074126019
-0.01084184112
-0.01093473983
-0.0110221911
-0.01110485392
-0.01118137733
-0.01125263573
-0.01131929234
-0.01138016203
-0.01143501156
-0.01148468916
-0.01152920924
-0.01157053936
-0.01160809473
-0.01163973907
-0.01166740609
-0.01169130116
-0.01170065706
-0.01168491487
-0.005556441838
0.0005590957822
0.0005702890689
0.0005802838088
0.0005802837539
)


101
(
0.03359410001
0.02965363332
0.02370354661
0.02066510058
0.01916270411
0.01848962732
0.01820869396
0.01809882387
0.01804136679
0.01795959006
0.01781532174
0.01759406375
0.01727781322
0.01686826631
0.01638303946
0.01581857116
0.01517288932
0.01449667371
0.01376317005
0.01298875125
0.0122418378
0.01146202943
0.01066141507
0.009885976115
0.009130434709
0.008390121917
0.007668023425
0.006960515103
0.00626741535
0.005593116688
0.004940389456
0.004326985976
0.003712145944
0.003087557326
0.002495271874
0.001930031866
0.001392715084
0.0008762742856
0.0003623036733
-0.0001530091099
-0.0006481686425
-0.001114657331
-0.001566062364
-0.002002433819
-0.002420777672
-0.002825756313
-0.00321917989
-0.003602071343
-0.003974231211
-0.004335048415
-0.004683079647
-0.005018066307
-0.005342074051
-0.005654838917
-0.00595542575
-0.006244968662
-0.006528715464
-0.006801960503
-0.007063557358
-0.007316753759
-0.007560332106
-0.007795460725
-0.008020655441
-0.008237202037
-0.008445957921
-0.008647123244
-0.008840452031
-0.00902526553
-0.00920350463
-0.009374875534
-0.009538187005
-0.009693803377
-0.009842732646
-0.009984862638
-0.01011978132
-0.01024821907
-0.01037153512
-0.01049040274
-0.01060205142
-0.01070609143
-0.01080363295
-0.01089595829
-0.01098295371
-0.01106500075
-0.0111427621
-0.01121610159
-0.01128402964
-0.01134593427
-0.01140150115
-0.01145425635
-0.0115030011
-0.01154610097
-0.01158534215
-0.01161842812
-0.01162515433
-0.01158781459
-0.005221568697
0.001118186226
0.001140579161
0.001160576658
0.001160575842
)


101
(
0.03330920388
0.02942936211
0.02354834215
0.02051170716
0.0189904583
0.01829449296
0.01799303364
0.01786720899
0.01780048643
0.01771565429
0.01757445624
0.01736222874
0.01705993675
0.01666905062
0.0162068585
0.0156681285
0.01505109286
0.01440277706
0.01369960205
0.01295547088
0.01223292947
0.01148112383
0.01071002356
0.009958447595
0.009224101039
0.008504712978
0.007802606994
0.007114893037
0.006441162535
0.005784502152
0.005147207878
0.004542922718
0.003945574901
0.00334575138
0.00276724755
0.002210218002
0.001678582977
0.001168128625
0.0006673170641
0.0001696254528
-0.0003161764097
-0.0007802758598
-0.001226061405
-0.001657413937
-0.002072795109
-0.002474146878
-0.002863321334
-0.003241644623
-0.003609652707
-0.003967221877
-0.00431369297
-0.004647746346
-0.004970991717
-0.005284006155
-0.005586191874
-0.005875989859
-0.006159448899
-0.006434375955
-0.006698244545
-0.006953812244
-0.007199975162
-0.007438374664
-0.007667451825
-0.007887872283
-0.008100558974
-0.008306077011
-0.008504495811
-0.008694693742
-0.008878337644
-0.009055613322
-0.009225421124
-0.009387533975
-0.009542745159
-0.009691756408
-0.009834644654
-0.009971545576
-0.01010300576
-0.01023050234
-0.01035212254
-0.01046692929
-0.01057513093
-0.01067757436
-0.01077469543
-0.01086728605
-0.01095564923
-0.01104020848
-0.01112086579
-0.01119617429
-0.0112635474
-0.01132779771
-0.01138760143
-0.01144124452
-0.01149225808
-0.01153489985
-0.01153706726
-0.01147556682
-0.004878517496
0.001677256887
0.00171087991
0.001740907874
0.00174090674
)


101
(
0.0330237603
0.02920429437
0.02339258789
0.02035863568
0.01881921156
0.01810075748
0.01777897069
0.01763718611
0.01756095062
0.01747265279
0.0173339361
0.01712995926
0.01684081267
0.01646761742
0.0160273568
0.01551340576
0.01492394639
0.01430304406
0.01362906823
0.01291458797
0.01221707058
0.01149185363
0.0107491001
0.01002215854
0.009309365942
0.00861056469
0.007928233202
0.007259914245
0.006605265498
0.005966454838
0.00534507162
0.00475199994
0.004168755572
0.00358966433
0.003028279968
0.002482414471
0.001958354824
0.001454287552
0.0009632039055
0.0004796800314
5.74508964e-06
-0.0004522164054
-0.0008928348485
-0.001318785416
-0.001730046357
-0.002127728923
-0.002513005095
-0.002887138986
-0.003250988295
-0.003604926442
-0.003948883134
-0.004281399709
-0.004603510645
-0.004915956201
-0.005218566644
-0.005508921191
-0.005792387438
-0.006067952422
-0.006333355125
-0.006590865623
-0.006839320102
-0.007080436311
-0.007312804895
-0.007536743524
-0.007753023099
-0.007962377648
-0.008165137845
-0.008360212338
-0.008548977844
-0.008731610802
-0.00890725909
-0.009075601539
-0.009237049091
-0.00939248561
-0.009542416616
-0.009687021608
-0.009826268635
-0.009961793699
-0.01009236448
-0.01021722729
-0.01033618051
-0.01044905195
-0.01055629924
-0.01065920743
-0.01075794376
-0.01085326014
-0.01094537193
-0.01103378178
-0.01111409842
-0.01119030021
-0.01126100123
-0.01132456555
-0.01138707424
-0.01143957329
-0.01143532793
-0.01134699411
-0.004526873645
0.002236389891
0.002281187468
0.002321191619
0.00232118764
)


101
(
0.03273776328
0.02897842061
0.02323626616
0.02020586755
0.01864895214
0.01790842013
0.01756651322
0.01740877797
0.01732280105
0.01723064598
0.01709384411
0.0168973661
0.01662056314
0.01626412057
0.01584471527
0.01535457143
0.01479164487
0.01419756332
0.01355179919
0.01286623849
0.01219411565
0.01149455813
0.0107789814
0.010076931
0.009386088983
0.008707749435
0.00804497011
0.007395693458
0.006759797585
0.006138890665
0.005533822475
0.004953490624
0.004382944987
0.003821161407
0.003277292002
0.002744991002
0.002230770407
0.001734228631
0.001251423642
0.0007792882231
0.0003172215464
-0.0001322882151
-0.000566772517
-0.0009869357504
-0.001393283456
-0.001786812033
-0.002168166223
-0.002538321334
-0.00289811551
-0.003248227991
-0.003589044576
-0.003919372565
-0.004239907342
-0.004551252754
-0.004853464593
-0.005143999189
-0.005427465358
-0.005703212956
-0.00596944092
-0.006228264474
-0.006478528359
-0.006721873987
-0.006957023881
-0.007184096332
-0.007403651258
-0.007616405882
-0.007822863835
-0.008022167705
-0.008215601842
-0.00840316667
-0.008584112642
-0.008758178622
-0.008925495778
-0.009086935466
-0.00924332707
-0.009395109587
-0.009541738627
-0.009684710692
-0.00982329892
-0.009957161424
-0.01008640963
-0.01020987672
-0.01032737601
-0.01044050429
-0.01054932668
-0.01065504967
-0.01075805968
-0.01085841106
-0.01095163972
-0.0110407595
-0.01112242671
-0.01119569157
-0.01126881085
-0.01133083673
-0.01131910191
-0.01120149641
-0.004166282567
0.002795614399
0.002851509783
0.002901430791
0.002901434911
)


101
(
0.03245120684
0.02875173128
0.0230793591
0.0200533838
0.01847966785
0.0177174797
0.01735566897
0.01718200649
0.01708607849
0.01698969336
0.01685426194
0.01666455846
0.01639931093
0.01605871172
0.01565911405
0.01519179924
0.01465438243
0.01408644677
0.01346799664
0.01281057962
0.01216398185
0.01148946136
0.01079999578
0.01012272692
0.009454138108
0.008796278937
0.008152886141
0.007522339636
0.006904845634
0.006301756194
0.005713293262
0.00514686456
0.004588704515
0.004041803482
0.003514481842
0.002996871643
0.002494410522
0.002006970142
0.00153237355
0.001069942768
0.0006188448559
0.0001787292227
-0.0002485552607
-0.0006623225617
-0.00106308839
-0.001451853854
-0.001828987057
-0.002195163919
-0.002550982047
-0.002897176699
-0.003234425688
-0.003561970244
-0.003880408705
-0.004190181557
-0.0044914001
-0.00478164458
-0.005064879079
-0.005340482963
-0.00560699822
-0.005866485601
-0.00611794147
-0.006362932924
-0.006600318943
-0.006830101403
-0.007052631606
-0.0072684559
-0.00747808675
-0.007680955471
-0.007878437432
-0.008070441581
-0.008256220963
-0.008435526503
-0.0086082404
-0.00877517436
-0.008937440719
-0.00909586225
-0.009249497281
-0.009399519433
-0.009545452184
-0.009687286969
-0.009825820729
-0.009959515631
-0.0100873612
-0.01021074836
-0.01032954857
-0.01044534778
-0.01055871572
-0.01067009121
-0.01077557796
-0.01087792168
-0.01097097474
-0.01105385189
-0.01113677796
-0.01120793452
-0.01118768612
-0.0110384486
-0.00379643939
0.003354712997
0.003421819991
0.00348175287
0.003481755073
)


101
(
0.03216408431
0.02852421635
0.0229218484
0.01990116476
0.01831134567
0.017527934
0.01714644481
0.01695689233
0.0168508223
0.01674985289
0.0166152696
0.0164316434
0.01617717858
0.01585154011
0.01547073163
0.01502526707
0.01451235342
0.0139698262
0.01337784576
0.01274777857
0.01212664027
0.01147671629
0.01081244212
0.01015960876
0.009513421883
0.008876124165
0.008252026354
0.007639958429
0.00704051998
0.006455049811
0.005883327464
0.00533165453
0.004786163916
0.004252721756
0.003740569305
0.003237695235
0.002748207332
0.002271406568
0.00180573941
0.001352373701
0.0009113623043
0.0004807470674
6.135153138e-05
-0.0003454037757
-0.0007399781014
-0.001123334278
-0.00149575364
-0.001857743431
-0.002209589526
-0.002551863422
-0.002885283595
-0.00320950617
-0.003525268025
-0.003832958466
-0.004132649207
-0.004422104769
-0.004704828114
-0.004980046487
-0.005246429456
-0.005506016176
-0.0057580123
-0.006003970753
-0.00624293515
-0.006474892407
-0.006700051173
-0.006918695597
-0.007131137788
-0.007336985651
-0.007537820403
-0.007733644764
-0.007923736378
-0.008107801964
-0.008285461545
-0.008457390453
-0.008624915558
-0.008789341671
-0.008949520861
-0.009106246125
-0.00925902715
-0.009408053671
-0.009554829954
-0.009697883827
-0.009835738489
-0.009969324647
-0.01009804436
-0.01022387076
-0.01034724155
-0.01046893524
-0.01058555177
-0.0107009053
-0.01080584951
-0.01089819485
-0.0109903184
-0.01107004707
-0.01104041779
-0.01085725666
-0.003416831608
0.003913739039
0.003992061671
0.004061983222
0.004061962747
)


101
(
0.03187638947
0.0282958659
0.02276371559
0.01974919047
0.01814397225
0.01733978041
0.01693884734
0.01673345555
0.01661707102
0.01651118169
0.01637694601
0.01619872638
0.01595428856
0.01564275344
0.0152797452
0.01485515639
0.01436575348
0.01384784959
0.01328152387
0.0126780086
0.01208210397
0.01145643129
0.01081657836
0.01018770008
0.009563900882
0.008947243267
0.008342410522
0.007748636592
0.007166938438
0.006598818618
0.006043828031
0.005507491039
0.004975185032
0.004454580251
0.003956395369
0.00346766571
0.002991577174
0.002526534139
0.002070814562
0.001626681438
0.001195302553
0.0007740106448
0.0003628097439
-3.64964465e-05
-0.0004243952266
-0.000801757961
-0.001168876175
-0.001526251605
-0.00187392927
-0.002212269837
-0.002541802849
-0.00286235556
-0.003174855879
-0.003479866256
-0.003777475086
-0.004065611583
-0.004347423083
-0.004621995787
-0.004887978489
-0.005147259947
-0.005399221688
-0.005645457027
-0.005885251738
-0.006118683771
-0.006345963347
-0.006567145679
-0.006782183282
-0.006990615616
-0.007194143669
-0.007393031327
-0.007586796212
-0.007775127064
-0.007957305885
-0.008133778689
-0.008305988694
-0.00847571691
-0.008641820079
-0.008804817827
-0.008964020364
-0.009119590799
-0.009273730415
-0.009425219016
-0.009572438588
-0.009715906905
-0.00985430071
-0.009990074214
-0.01012320807
-0.01025472324
-0.01038152592
-0.01050916589
-0.01062621905
-0.01072796668
-0.01082885401
-0.01091649385
-0.01087615542
-0.01065766825
-0.003027692992
0.004472845612
0.004562370461
0.004642298466
0.004642281722
)


101
(
0.03158811531
0.02806666938
0.02260494155
0.01959744014
0.01797753332
0.01715301531
0.01673288217
0.01651171481
0.01638486159
0.01627373519
0.01613936826
0.01596591067
0.01573076263
0.01543249747
0.0150863297
0.01468165068
0.01421477922
0.01372067847
0.01317920458
0.01260144527
0.01203042443
0.01142869227
0.01081261944
0.01020715958
0.009605590691
0.009009601259
0.008424038273
0.007848441058
0.007284218936
0.006733148472
0.006194749939
0.005674080374
0.005155511894
0.004647666375
0.004162656477
0.003687286552
0.00322442005
0.002771704129
0.002326836787
0.001892516444
0.001470813675
0.001058743248
0.0006558500132
0.0002642762553
-0.0001165989497
-0.0004875200635
-0.0008487886488
-0.001201027941
-0.001544160325
-0.001878371418
-0.002203955547
-0.002520729979
-0.002829599732
-0.003131324574
-0.003426217304
-0.003712427935
-0.003992809315
-0.004266389677
-0.00453172932
-0.004790427895
-0.005041946758
-0.005287891097
-0.005527775206
-0.005761849185
-0.005990509711
-0.006213765701
-0.006431181837
-0.006642000568
-0.006847798157
-0.007049029806
-0.00724565906
-0.007437580178
-0.007623799796
-0.007804432988
-0.007980858497
-0.008155209079
-0.008326469872
-0.008495173524
-0.008660419479
-0.008821991644
-0.008982636976
-0.009141643241
-0.009297520649
-0.009450386889
-0.009597977425
-0.009743367547
-0.009886194795
-0.01002710242
-0.01016332604
-0.01030236677
-0.01043129866
-0.01054257279
-0.01065180693
-0.01074656594
-0.01069438339
-0.01043924855
-0.002628735564
0.005032015677
0.00513272973
0.00522264297
0.005222623163
)


101
(
0.03129925526
0.02783661659
0.02244550731
0.01944589284
0.0178120144
0.01696763485
0.0165285549
0.01629168838
0.0161542302
0.01603756814
0.01590261271
0.01573329834
0.01550672237
0.01522091708
0.01489065883
0.01450493564
0.01405962913
0.01358848631
0.01307106392
0.01251826681
0.01197167991
0.01139357436
0.01080074502
0.01021816038
0.009638552364
0.009063182219
0.008496894483
0.007939412753
0.00739246878
0.006858154323
0.006336120079
0.005831226768
0.005326843464
0.004831983972
0.00435979893
0.003897136362
0.003447003333
0.003006640071
0.002573173408
0.002149342218
0.001737727916
0.00133502501
0.0009405506893
0.0005568834722
0.0001832483948
-0.0001809214093
-0.0005358663289
-0.0008824132144
-0.001220529054
-0.001550290303
-0.001871742577
-0.002184625084
-0.002489702557
-0.002787757346
-0.003079318784
-0.003362927802
-0.0036412529
-0.003913351241
-0.004177722876
-0.004435599613
-0.004686395198
-0.004931639821
-0.005171018156
-0.005404929736
-0.00563405871
-0.005858633463
-0.006078033523
-0.006291085001
-0.006498942064
-0.0067020116
-0.006900707879
-0.007095393014
-0.007285013287
-0.007469355517
-0.007649580073
-0.007828011762
-0.008003701157
-0.008177309022
-0.008348061481
-0.008515287122
-0.008681720277
-0.008847224651
-0.009010913105
-0.009172726685
-0.009329012103
-0.009483315294
-0.009635687987
-0.009785775924
-0.009930682653
-0.01008002703
-0.01022048457
-0.01034151054
-0.01045860331
-0.01055963463
-0.01049463246
-0.01020157604
-0.002219744222
0.005591198606
0.00570309241
0.005803052878
0.005803104455
)


101
(
0.03100980205
0.02760569656
0.02228539307
0.01929452673
0.01764740001
0.01678363406
0.01632587005
0.01607339313
0.01592521127
0.01580273345
0.0156667537
0.0155009892
0.01528228799
0.01500815522
0.01469290403
0.01432519761
0.0139005028
0.01345145542
0.01295728143
0.0124286551
0.01190597371
0.01135115255
0.01078110283
0.01022087329
0.009662884383
0.009108002219
0.008560965035
0.008021569126
0.007491772718
0.006973961799
0.00646801697
0.005978839048
0.005488922092
0.005007374642
0.004548007824
0.004097671923
0.003659747181
0.003231423881
0.002809497801
0.002396633501
0.001995629449
0.001602708737
0.001216921011
0.0008413480875
0.0004751395279
0.0001178984167
-0.0002304490811
-0.0005708094268
-0.0009033365554
-0.001228191168
-0.001545226183
-0.001854063371
-0.002155212131
-0.002449384
-0.002737196764
-0.003017576267
-0.003293133069
-0.003563105724
-0.003826053617
-0.00408280207
-0.004332637063
-0.004576910756
-0.004815368708
-0.005048480948
-0.005277195692
-0.005502100803
-0.005722732117
-0.00593768202
-0.006147489206
-0.006352178881
-0.006552361299
-0.006748926086
-0.006941085281
-0.007128516442
-0.00731211189
-0.007494207266
-0.007673751644
-0.007851436752
-0.008026872135
-0.008199324137
-0.008371087432
-0.008542090799
-0.008712502242
-0.008882657487
-0.009047369426
-0.009209840993
-0.009371136633
-0.0095304271
-0.009683391955
-0.009841963432
-0.009993342644
-0.01012399458
-0.01024862472
-0.01035511418
-0.01027642496
-0.009944332044
-0.001800615658
0.006150387558
0.006273417758
0.006383316625
0.006383371171
)


101
(
0.03071974836
0.02737389825
0.02212457883
0.01914331952
0.01748367414
0.01660100738
0.01612483167
0.01585684512
0.01569783814
0.01556928288
0.01543186423
0.01526908128
0.01505757881
0.01479435363
0.01449323485
0.01414262336
0.01373760086
0.0133097764
0.01283804189
0.01233279553
0.01183343165
0.01130151114
0.01075382034
0.01021546011
0.009678706984
0.009144107033
0.008616245575
0.008094909986
0.007582186689
0.00708069051
0.006590560303
0.006116907317
0.005641561087
0.005173619186
0.004727258255
0.004289166063
0.003863095185
0.003446373647
0.003035756571
0.002634022219
0.002244084735
0.001861487556
0.001484829976
0.001117624705
0.0007590370026
0.0004088973945
6.734115954e-05
-0.0002665376405
-0.0005929991569
-0.0009123864519
-0.001224543842
-0.001529052808
-0.001826138495
-0.002116285772
-0.002400089572
-0.002676780817
-0.002948914174
-0.003216033716
-0.003476918979
-0.00373210807
-0.003980697605
-0.004223763867
-0.004461034909
-0.004692917218
-0.004920512654
-0.0051447683
-0.005365602407
-0.005581734675
-0.005793224435
-0.005999451833
-0.006200833254
-0.006398589492
-0.00659234821
-0.006782013646
-0.006968394047
-0.007153714965
-0.007336661015
-0.007517799091
-0.007697039662
-0.00787397125
-0.008050678599
-0.008226489613
-0.008402350531
-0.008579818673
-0.008752798018
-0.008923024265
-0.009092221569
-0.009260417937
-0.009421214394
-0.009587953245
-0.009749411168
-0.009889503371
-0.01002135755
-0.01013250055
-0.01003919046
-0.009667216977
-0.00137133434
0.006709580338
0.006843628093
0.006963389591
0.006963487536
)


101
(
0.03042908652
0.02714121031
0.0219630442
0.01899224835
0.0173208201
0.01641974853
0.01592544317
0.01564205943
0.01547214275
0.01533726686
0.01519801581
0.01503767069
0.01483271293
0.01457965288
0.01429181893
0.01395739931
0.01357112418
0.01316364538
0.01271353656
0.01223087973
0.01175419696
0.01124474636
0.01071901307
0.01020206941
0.009686151202
0.009171569978
0.008662753656
0.00815943205
0.007663739514
0.007178433673
0.006703885641
0.006245514027
0.005784678994
0.005330506118
0.004897392704
0.004471682733
0.004057352229
0.003651871943
0.003252175235
0.002861415655
0.002482717154
0.002110916473
0.001743988868
0.001385616398
0.001034926634
0.0006920570364
0.000357409561
3.02222911e-05
-0.0002897938081
-0.0006032310758
-0.0009100076824
-0.001209747026
-0.001502485223
-0.001788476905
-0.00206811329
-0.002340795128
-0.002609012195
-0.002872590561
-0.003130668623
-0.003383703912
-0.003630623399
-0.003872182156
-0.004108041689
-0.004338458291
-0.004564482815
-0.004787274164
-0.005007226677
-0.005223510716
-0.005436054401
-0.005643614554
-0.005846097567
-0.006044672377
-0.006239240968
-0.006430135858
-0.006618414852
-0.006806380485
-0.006992344817
-0.007176477294
-0.00735875573
-0.007539245334
-0.007720328531
-0.007900514229
-0.008080764272
-0.008264135378
-0.008444819985
-0.008622754747
-0.008799012561
-0.008975164283
-0.009143733909
-0.009318007277
-0.009488299272
-0.009637372666
-0.0097762106
-0.00989133026
-0.009782527263
-0.009369882943
-0.0009318156556
0.007268638514
0.007413558013
0.007542980383
0.007543062725
)


101
(
0.03013780851
0.02690762097
0.02180076825
0.01884128963
0.01715882039
0.01623985033
0.01572770718
0.01542905009
0.01524815564
0.01510673421
0.01496527813
0.01480685144
0.01460780684
0.01436419182
0.01408882182
0.0137697114
0.01340127408
0.0130132633
0.01258396182
0.01212310427
0.01166843045
0.01118096997
0.01067679069
0.01018083778
0.009685353505
0.009190487039
0.008700528124
0.008215134787
0.007736439229
0.007267256319
0.006808117165
0.006364770944
0.005918287479
0.005477909887
0.00505821833
0.004645123815
0.004242645976
0.00384827317
0.003459116667
0.003078934763
0.002711359516
0.002350627522
0.001994005771
0.001645069883
0.001302685417
0.0009673386757
0.0006397718289
0.0003193741459
6.019712058e-06
-0.0003010152297
-0.0006018990296
-0.0008964105962
-0.001184402401
-0.0014659856
-0.001741320035
-0.00200978515
-0.002273700845
-0.002533168063
-0.002787729575
-0.00303789886
-0.003282585041
-0.003522219807
-0.003756362208
-0.00398509696
-0.004209301643
-0.004430124164
-0.004648286627
-0.004863566787
-0.005076161022
-0.005284525389
-0.005487960692
-0.005687219645
-0.005882138658
-0.006073356855
-0.006262430636
-0.006452120915
-0.006640575877
-0.006827393354
-0.007012185675
-0.007195278419
-0.007379834707
-0.007563994163
-0.007748013038
-0.007935857281
-0.008123081355
-0.008308638456
-0.008491571165
-0.008674496671
-0.008850402625
-0.009031780711
-0.00920976832
-0.009367189347
-0.009512659163
-0.009631091335
-0.009506027699
-0.009052014067
-0.0004820044359
0.007827405549
0.007982960279
0.008121781945
0.008121819545
)


101
(
0.02984590643
0.02667311847
0.02163772987
0.01869041938
0.01699765702
0.01606130506
0.01553162589
0.01521783057
0.01502590637
0.0148777325
0.01473371964
0.01457671594
0.01438297555
0.01414810788
0.01388440733
0.01357974533
0.01322825297
0.0128588362
0.01244952171
0.01200967248
0.01157630539
0.01111030685
0.0106272618
0.01015189209
0.00967644982
0.009200970297
0.008729633694
0.008262034301
0.007800283574
0.007347190381
0.006903359928
0.006474825423
0.006042471417
0.005615785546
0.005209576426
0.004809313851
0.004418929916
0.004035752301
0.003656937963
0.003286922216
0.002930081684
0.002580360119
0.002234445884
0.001895616498
0.001562154243
0.001234668013
0.000914357833
0.0006009067407
0.0002943485132
-6.038034896e-06
-0.0003005446774
-0.0005892863589
-0.0008720951246
-0.001148909893
-0.00141974326
-0.001683863812
-0.001943213064
-0.002198111054
-0.002448492249
-0.002695036475
-0.002936831707
-0.00317403704
-0.003406048471
-0.003632788349
-0.003854954025
-0.004073529337
-0.004289309691
-0.004502589747
-0.004714051614
-0.004922285074
-0.005126234462
-0.005326053347
-0.005521156035
-0.005712147301
-0.005900962215
-0.006091126295
-0.006281165442
-0.006470312212
-0.006657353214
-0.006842304325
-0.007029214688
-0.007216615182
-0.00740405113
-0.007595350191
-0.007787547281
-0.007980159841
-0.008169719877
-0.00835838373
-0.008540755793
-0.008728851318
-0.008913535378
-0.009078630437
-0.009230333205
-0.009351305129
-0.009209349874
-0.008713426349
-2.192153915e-05
0.008385675047
0.008551527113
0.008699832526
0.008700208865
)


101
(
0.02955337228
0.02643769093
0.02147390768
0.01853961311
0.0168373114
0.01588410433
0.01533720093
0.01500841357
0.01480542338
0.01465030793
0.01450340721
0.01434735481
0.0141583324
0.01393153684
0.01367873731
0.01338768597
0.01305226386
0.01270057366
0.01231042612
0.01189079419
0.01147800853
0.01103289916
0.01057054028
0.01011535097
0.009659571766
0.009203143469
0.008750159636
0.008300168794
0.007855270037
0.007418238744
0.006989673792
0.006575807984
0.00615737254
0.00574418469
0.005351381822
0.00496407228
0.004586053428
0.004214332126
0.00384589529
0.003485744444
0.003139154892
0.002800117021
0.002465002798
0.002136796999
0.001812954816
0.001493893461
0.001181146208
0.0008747814128
0.000575133331
0.000281578855
-6.232288881e-06
-0.0002887073417
-0.0005657942399
-0.0008374190071
-0.001103437566
-0.00136305659
-0.001617726055
-0.001867724175
-0.002113348772
-0.002355537071
-0.002593695109
-0.002827844522
-0.003057226469
-0.003281562359
-0.003501389674
-0.003717501359
-0.003930549369
-0.004141104534
-0.004350359276
-0.00455731177
-0.004760927831
-0.004960926106
-0.005156118904
-0.005346712775
-0.005534585062
-0.00572394436
-0.005914226817
-0.00610492018
-0.006294031286
-0.006480534084
-0.006668762755
-0.006858243293
-0.007048585053
-0.007242736043
-0.007438405294
-0.007636943732
-0.007833075462
-0.008026814251
-0.008214478107
-0.008408858704
-0.008599313834
-0.008771291223
-0.008928914021
-0.009051576221
-0.008891999672
-0.008353902479
0.0004482045018
0.008943082302
0.009118844314
0.009275855779
0.009276140323
)


101
(
0.02926019648
0.02620132461
0.02130927908
0.01838884544
0.01667776342
0.01570823814
0.01514443234
0.01480081002
0.01458673293
0.01442450404
0.01427440482
0.01411885565
0.0139339879
0.01371461181
0.01347197045
0.0131937159
0.01287350864
0.01253868645
0.01216688828
0.01176668376
0.01137373867
0.01094890707
0.01050675152
0.01007133107
0.009634843041
0.009197132175
0.008762212309
0.008329602598
0.007901412499
0.007480391564
0.007067081958
0.006667814816
0.006263142523
0.005863232875
0.0054836515
0.005109287974
0.004743818099
0.004383858744
0.0040260603
0.00367572925
0.003338989825
0.003010125232
0.002685547878
0.002368207491
0.002054656763
0.001744738275
0.0014400087
0.001140966218
0.0008483505339
0.0005617237509
0.0002808503728
5.065030885e-06
-0.0002657895861
-0.0005317161865
-0.0007925435252
-0.001047411349
-0.001297254086
-0.001542205506
-0.001782689557
-0.002019854076
-0.002253567954
-0.002483937669
-0.002710098148
-0.002931534112
-0.003148632052
-0.003361992443
-0.00357206374
-0.003779440205
-0.003985632119
-0.004190172235
-0.004392345355
-0.004591741688
-0.004786697261
-0.004976869046
-0.005163622579
-0.005351293374
-0.005540291521
-0.005731188919
-0.005921834974
-0.006109822976
-0.00629880049
-0.006489065069
-0.006681357809
-0.006877948939
-0.007075933562
-0.007278818553
-0.007481148323
-0.007679695485
-0.007871454777
-0.008071468735
-0.008266862594
-0.00844473959
-0.008607959282
-0.0087316194
-0.008553786151
-0.007973331159
0.0009283123788
0.009499285591
0.009684491211
0.009849804096
0.009849984376
)


101
(
0.02896637044
0.02596400739
0.02114382174
0.0182380901
0.01651899294
0.01553369641
0.01495332023
0.014595031
0.01436986119
0.01420036374
0.01404677537
0.01389130479
0.01371005164
0.01349746549
0.01326426507
0.01299801759
0.01269218957
0.0123733873
0.0120191225
0.01163755808
0.01126370471
0.01085851034
0.01043603833
0.01001995285
0.009602382436
0.009183060229
0.008765911837
0.008350427934
0.007938750977
0.007533640249
0.007135575283
0.00675089585
0.006359912098
0.005973095391
0.005606485513
0.005244918746
0.004892057708
0.004544141776
0.004197344256
0.003857024721
0.003529952162
0.003210769577
0.00289624238
0.002589634728
0.002286773443
0.001986755895
0.001690749615
0.001399391393
0.001113965767
0.0008343774589
0.0005605494364
0.0002917529144
2.764033606e-05
-0.0002320421322
-0.000487189085
-0.0007369891263
-0.0009818756146
-0.001221666233
-0.001456751319
-0.001688387945
-0.001916925838
-0.002142712573
-0.002364962181
-0.002582940393
-0.002796808314
-0.003007016451
-0.003213829466
-0.003417710969
-0.003620252667
-0.003821428412
-0.004021001686
-0.00421870772
-0.004412685265
-0.004602202686
-0.004787927885
-0.004973635707
-0.005160177424
-0.005349600131
-0.005540571825
-0.005729736007
-0.005919365368
-0.006109474292
-0.006302326907
-0.006500705126
-0.006700351794
-0.006905959184
-0.007113489571
-0.007316772421
-0.007511681021
-0.007716354399
-0.007915978858
-0.008098668266
-0.008266978418
-0.008391158873
-0.008194400562
-0.00757148804
0.001418195891
0.01005381173
0.01024797462