/*--------------------------------*- C++ -*----------------------------------*\
| =========                 |                                                 |
| \\      /  F ield         | OpenFOAM: The Open Source CFD Toolbox           |
|  \\    /   O peration     | Version:  2.3.1                                 |
|   \\  /    A nd           | Web:      www.OpenFOAM.org                      |
|    \\/     M anipulation  |                                                 |
\*---------------------------------------------------------------------------*/
FoamFile
{
    version     2.0;
    format      ascii;
    class       dictionary;
    location    "constant";
    object      GRPSI33;
}
// * * * * * * * * * * * * * * * * * * * * * * * * * * * * * * * * * * * * * //

GRPSI33_table
101
(

101
(
-1.434125934e-05
-0.0002981600824
-0.0004597529409
-0.0006064729626
-0.0007679347031
-0.0009550268896
-0.0011637983
-0.001392683988
-0.0016332513
-0.001879563573
-0.002124487525
-0.002362168086
-0.00258573815
-0.002792201761
-0.002974349897
-0.003130191686
-0.003257152716
-0.003351190367
-0.003421309756
-0.00344869687
-0.003457017056
-0.003440114627
-0.003381861116
-0.003303302335
-0.003204444433
-0.003082603553
-0.002939288068
-0.002777523834
-0.002592162603
-0.002391184549
-0.0021724333
-0.001942495279
-0.001720462276
-0.001415135594
-0.001138683026
-0.0008491902834
-0.0005529578997
-0.0002603184222
5.705227998e-05
0.0004074055292
0.0007637095711
0.001087929993
0.001445607382
0.001806180257
0.002150988988
0.002519333344
0.002877986952
0.003255091766
0.003624996438
0.004007801076
0.004381126419
0.004758547637
0.005136400882
0.005511678109
0.005882074577
0.006249438095
0.0066381262
0.006994134765
0.007368611508
0.007728057628
0.00809228967
0.008448061248
0.00879772862
0.009145864034
0.009487762477
0.009826089665
0.010156175
0.01047940915
0.01080131874
0.01111155198
0.01141645844
0.01171482978
0.01201215587
0.01229570056
0.01256705667
0.01282536179
0.01308457195
0.01333284311
0.01356755559
0.01379079811
0.01400280412
0.01421059569
0.01440343684
0.01458692985
0.0147582812
0.01491681468
0.01506276009
0.01519765077
0.01532105147
0.0154343438
0.01553453742
0.01562346719
0.0157018178
0.01577030466
0.01582832949
0.01589940271
0.01599558788
0.01655348507
0.01711377934
0.01769406321
0.01827434696
)


101
(
-1.434125931e-05
-0.0002984279875
-0.0004605310739
-0.0006072563707
-0.0007683554082
-0.0009547893839
-0.001162820476
-0.001390866946
-0.001630730067
-0.001876488756
-0.002121156516
-0.00235891765
-0.002583069418
-0.002790441504
-0.002974216361
-0.003132115107
-0.003261617669
-0.003358863327
-0.003431696342
-0.003463945591
-0.00347513167
-0.003461823668
-0.003409588702
-0.003334987523
-0.003240007266
-0.003122658977
-0.00298395002
-0.002826539471
-0.002646516266
-0.002449922562
-0.002235954287
-0.002009942779
-0.0017882062
-0.001500078825
-0.001223047153
-0.0009368719683
-0.0006436231077
-0.0003517657834
-4.088625119e-05
0.0002991694509
0.0006499108273
0.0009788398055
0.001329099642
0.001685745629
0.002032337005
0.002394622456
0.002752857604
0.003124227807
0.003493075066
0.003871149633
0.004244325931
0.004619704424
0.004995883925
0.005370509458
0.005741320929
0.006109019185
0.006491062109
0.00685300836
0.007223838588
0.007585435601
0.007948435678
0.008305485211
0.008656865171
0.009005597422
0.009349099323
0.009688652255
0.01002125309
0.01034718872
0.01067021908
0.01098405729
0.0112917026
0.01159263213
0.0118905966
0.01217807346
0.01245476558
0.01271963497
0.01298126424
0.01323356805
0.0134736135
0.01370233524
0.01391988617
0.01413079218
0.01432909817
0.01451738288
0.01469415532
0.01485885552
0.01501045521
0.01515025549
0.01527835579
0.0153963101
0.01550138178
0.01559596542
0.01567866006
0.0157514481
0.01581478895
0.01589149986
0.01599551843
0.01655341418
0.0171137046
0.01769399334
0.01827428126
)


101
(
-1.434125931e-05
-0.0002989666408
-0.0004620964478
-0.0006088430482
-0.0007692233249
-0.0009543449037
-0.00116089095
-0.001387254231
-0.001625688919
-0.001870316602
-0.002114433026
-0.002352308742
-0.002577555622
-0.002786692231
-0.002973612382
-0.00313555183
-0.003270054936
-0.003373597165
-0.003451951737
-0.003493494178
-0.00351081379
-0.003504571708
-0.003463754389
-0.003397533221
-0.003310409814
-0.003201887736
-0.003072339691
-0.002923724521
-0.002754090734
-0.002566530069
-0.002362007943
-0.002144076499
-0.001924308626
-0.001664463432
-0.001391845149
-0.001112253553
-0.0008250975315
-0.0005357154053
-0.000235511425
8.637124414e-05
0.0004245915706
0.0007577715995
0.001097212952
0.00144555325
0.001792779393
0.002145836097
0.002501410444
0.002863420793
0.003228549883
0.003598566468
0.003969562295
0.004341134655
0.004713803017
0.005086456788
0.005457235937
0.005825320398
0.006197930108
0.006566227803
0.006933048481
0.007297006426
0.007658748005
0.008017411169
0.008371544085
0.008721825604
0.009068091062
0.009410166567
0.009747084803
0.01007799951
0.01040405071
0.01072396365
0.01103722659
0.01134366547
0.01164454128
0.0119386589
0.01222436609
0.01250052646
0.0127687806
0.01302924825
0.01327953846
0.01351896682
0.013747349
0.01396602699
0.01417462856
0.01437270889
0.01455997824
0.01473635199
0.01489993179
0.01505049776
0.01518844666
0.01531615959
0.01543118832
0.01553665289
0.01562968286
0.0157118009
0.01578608416
0.0158753907
0.01599543221
0.01655331505
0.01711359331
0.01769390589
0.01827421738
)


101
(
-1.434125931e-05
-0.0002995111159
-0.00046368021
-0.0006104698355
-0.0007701451122
-0.000953962377
-0.001159014955
-0.00138368564
-0.00162065271
-0.00186410181
-0.002107589988
-0.002345487452
-0.002571694473
-0.002782488002
-0.002972343359
-0.003138170663
-0.003277508752
-0.003387113589
-0.003471138407
-0.003521215407
-0.003545301695
-0.003545982631
-0.003515477497
-0.0034582976
-0.003379295073
-0.003279366368
-0.0031588523
-0.003019156591
-0.002859453159
-0.002681306443
-0.002486115009
-0.00227662428
-0.002061101045
-0.001820014652
-0.001558994041
-0.001287006558
-0.001006611436
-0.0007213668175
-0.0004285981697
-0.0001204665853
0.0002040909716
0.0005334471468
0.0008665318971
0.001206674662
0.0015501803
0.001897405977
0.002248207689
0.002603580772
0.002963140046
0.003326823688
0.003693262019
0.0040610202
0.004429928616
0.004799583606
0.005168811333
0.005536442712
0.005904858804
0.006272770738
0.006638866885
0.007002972971
0.007364755021
0.007723984975
0.008079779435
0.008431835522
0.008780237948
0.009124770343
0.009464983544
0.00980008453
0.01013003674
0.01045461132
0.01077330147
0.01108553923
0.01139150331
0.01169122279
0.01198388033
0.01226858749
0.0125450778
0.01281385398
0.01307368685
0.01332354093
0.01356255098
0.01379099337
0.01400945732
0.01421764785
0.01441525065
0.01460246619
0.0147780921
0.0149411239
0.01509024459
0.01522852663
0.01535420073
0.0154705265
0.01557573614
0.01566879442
0.01575459097
0.01585862081
0.01599541144
0.01655331586
0.01711361511
0.01769392417
0.01827423007
)


101
(
-1.434126065e-05
-0.0003000615635
-0.0004652827568
-0.0006121375518
-0.0007711223666
-0.0009536437074
-0.001157195196
-0.001380164129
-0.001615626214
-0.001857849515
-0.002100634525
-0.002338461643
-0.002565497168
-0.002777835248
-0.002970427215
-0.003139978474
-0.003283984283
-0.003399426467
-0.003489198022
-0.003547229323
-0.003578430414
-0.003586043145
-0.003564996123
-0.00351708531
-0.003446512716
-0.003355097366
-0.003243476259
-0.00311273425
-0.002962675838
-0.002794099199
-0.002608287325
-0.002407484602
-0.002197719419
-0.001970114516
-0.001722309392
-0.001460070064
-0.001187536393
-0.0009078826342
-0.0006214363871
-0.0003237760565
-1.177361679e-05
0.0003096218996
0.0006362140279
0.0009689107872
0.001306692215
0.00164842244
0.00199402706
0.002343577551
0.002697350349
0.003055114748
0.003416344236
0.003779763142
0.004144718017
0.004510847517
0.004877471419
0.005243574797
0.005609462089
0.005975558338
0.006340625088
0.006704361963
0.007066172858
0.007425808765
0.007782673535
0.008136236709
0.008486449485
0.008833144426
0.009176120614
0.009514776402
0.009848646651
0.0101775122
0.0105010933
0.01081882069
0.01113044866
0.01143607007
0.0117352696
0.01202738765
0.01231170559
0.01258865478
0.01285749723
0.01311747841
0.01336726509
0.0136061997
0.01383496274
0.01405351913
0.0142617445
0.01445984167
0.01464690331
0.01482264779
0.01498466655
0.01513455548
0.01527170475
0.01539973019
0.0155172577
0.01562317743
0.01572132083
0.01584114278
0.01599539124
0.01655337771
0.01711374875
0.01769400758
0.01827427167
)


101
(
-1.434125934e-05
-0.0003006179923
-0.0004669043496
-0.0006138467875
-0.000772156226
-0.0009533905024
-0.001155434001
-0.001376692231
-0.001610613627
-0.001851564353
-0.002093573055
-0.002331238507
-0.002558973856
-0.002772740242
-0.002967879565
-0.003140982986
-0.00328948609
-0.003410546942
-0.003506083377
-0.003571618536
-0.003610091727
-0.003624707262
-0.003612483998
-0.003573811584
-0.003511915618
-0.003429039418
-0.003326201371
-0.003204386479
-0.00306377598
-0.002904806343
-0.002728474624
-0.002536584701
-0.002333610004
-0.002116635758
-0.001881470852
-0.001630433884
-0.00136701368
-0.001094378185
-0.0008143310905
-0.0005252085405
-0.0002240683539
8.789122585e-05
0.0004068772742
0.0007321708137
0.001063340128
0.001399128781
0.001739215197
0.00208314682
0.002431190264
0.002783153067
0.003138940008
0.003497610514
0.003858369473
0.004220712454
0.004584144117
0.004947878997
0.005311420728
0.005675387357
0.006038890187
0.006401744261
0.006763270209
0.007123122894
0.007480773597
0.007835608845
0.008187415718
0.008536000338
0.008881337465
0.009223051433
0.009560594332
0.009893591845
0.01022176355
0.01054462997
0.01086183859
0.01117343866
0.01147914984
0.01177841456
0.0120703092
0.01235518591
0.01263258346
0.01290209821
0.01316252379
0.01341245799
0.0136520601
0.01388139602
0.01410051917
0.01430979121
0.01450843152
0.01469644742
0.01487212209
0.01503496787
0.01518450063
0.01532499435
0.01545521429
0.01557529063
0.01568685306
0.01582293244
0.01599539857
0.01655336669
0.01711372168
0.01769399921
0.01827428293
)


101
(
-1.434125931e-05
-0.0003011807449
-0.0004685455228
-0.0006155985025
-0.0007732483042
-0.0009532049745
-0.001153734442
-0.001373273385
-0.001605620082
-0.001845252131
-0.002086413175
-0.002323826641
-0.002552135876
-0.002767211203
-0.00296471634
-0.003141194842
-0.003294020704
-0.00342048629
-0.003521757823
-0.003594439721
-0.003640217745
-0.003661915096
-0.00365805958
-0.00362845437
-0.003575381822
-0.00350112147
-0.003407007093
-0.003294065225
-0.003162742122
-0.00301334283
-0.002846582976
-0.002663837841
-0.00246841907
-0.002260618912
-0.002036858721
-0.001797341609
-0.001544154488
-0.001279904684
-0.001006976551
-0.000725588916
-0.0004338910727
-0.0001314481581
0.0001791442097
0.0004966758903
0.0008206761844
0.001149981245
0.001484153939
0.001822393828
0.002164731841
0.002510919811
0.00286109641
0.003214680792
0.003570962805
0.00392932011
0.004289257093
0.004650135495
0.005011151513
0.005372772739
0.005734317982
0.006095784204
0.00645656628
0.006816300264
0.007174469515
0.007530388995
0.00788367344
0.00823398908
0.008581383725
0.008925715127
0.009266565779
0.009603496565
0.009936087685
0.01026387283
0.01058646434
0.01090390706
0.01121600936
0.01152231857
0.01182177727
0.01211453634
0.01240024184
0.01267880811
0.01294934959
0.01321038779
0.01346134248
0.01370202531
0.01393252212
0.01415330763
0.01436370103
0.01456412576
0.01475317685
0.01493021371
0.01509303104
0.01524679092
0.01539052776
0.01552528336
0.01565131742
0.01580396748
0.01599555718
0.01655341844
0.01711368182
0.01769397033
0.01827423425
)


101
(
-1.434125931e-05
-0.0003017499434
-0.0004702066363
-0.0006173934547
-0.00077439997
-0.0009530890507
-0.001152099258
-0.001369910676
-0.0016006502
-0.001838918148
-0.002079161868
-0.002316234081
-0.002544993946
-0.00276125645
-0.002960952218
-0.003140625298
-0.003297595064
-0.003429254253
-0.003536192246
-0.003615727017
-0.003668763262
-0.003697604905
-0.003701793327
-0.003681022324
-0.00363682017
-0.00357125955
-0.003485855839
-0.003381735169
-0.003259558883
-0.003119642365
-0.002962496458
-0.002789107597
-0.002601869979
-0.00240262708
-0.00218909321
-0.001960713552
-0.001718299143
-0.0014635469
-0.001198735146
-0.0009251058885
-0.0006419964761
-0.0003486481918
-4.671505399e-05
0.0002627168128
0.0005791110612
0.0009014099762
0.001229206955
0.001561520858
0.001898119269
0.002238573635
0.00258302613
0.002931196475
0.003282640814
0.0036367493
0.003992956115
0.004350674314
0.004708989112
0.00506813031
0.005427476288
0.005787150041
0.006146701942
0.006505869823
0.006864177839
0.007220937028
0.007575595471
0.007927605287
0.008276905692
0.008623508755
0.008967245548
0.009307802518
0.009644655802
0.009977227268
0.01030505524
0.01062816178
0.01094645091
0.01125961381
0.01156659625
0.01186729101
0.01216129786
0.01244872283
0.01272899403
0.01300081315
0.01326329064
0.01351573576
0.01375813209
0.01399098362
0.01421340566
0.01442649128
0.01462877363
0.01482054332
0.01499752942
0.01516529901
0.01532341463
0.01547322296
0.0156148553
0.01578475367
0.01599563565
0.01655350007
0.01711376827
0.01769405054
0.01827431386
)


101
(
-1.434126198e-05
-0.0003023257605
-0.0004718882269
-0.000619232614
-0.0007756128534
-0.0009530449689
-0.001150531538
-0.001366607605
-0.001595709064
-0.00183256832
-0.002071826766
-0.002308469663
-0.002537559495
-0.002754885614
-0.002956602136
-0.003139287548
-0.003300218523
-0.00343686175
-0.003549366261
-0.003635502935
-0.003695699557
-0.003731718782
-0.003743723577
-0.003731541461
-0.003696172756
-0.003639372654
-0.003562695662
-0.003467360734
-0.003354213033
-0.003223661778
-0.003076114373
-0.002912239303
-0.002733688529
-0.002542891326
-0.00233874391
-0.002120804155
-0.001889152592
-0.001644591437
-0.001388855031
-0.00112349406
-0.0008487122885
-0.0005640426888
-0.0002707161081
3.045579294e-05
0.0003389639229
0.0006538349447
0.0009747781377
0.001300799936
0.001631493628
0.001966229137
0.002304985632
0.002647557186
0.002993761823
0.003343225479
0.003695395716
0.004049657382
0.004405072549
0.004761676181
0.005118729359
0.005476376317
0.00583431764
0.006192441858
0.006550397295
0.006907601803
0.007263440517
0.007617143265
0.007968370413
0.008317099215
0.008663355495
0.009007121462
0.009347970454
0.00968519878
0.01001819224
0.01034686053
0.0106711497
0.01099091759
0.0113052823
0.01161396858
0.0119163549
0.01221257625
0.01250241692
0.01278476923
0.01305865751
0.01332298707
0.01357759527
0.013823054
0.01405809848
0.01428410075
0.0144999313
0.01470632648
0.01489846983
0.01508087733
0.0152540919
0.0154193888
0.01557757303
0.01576542321
0.01599558113
0.01655351925
0.01711385777
0.01769418731
0.01827451752
)


101
(
-1.434126198e-05
-0.0003029083647
-0.0004735905789
-0.0006211166456
-0.0007768882106
-0.0009530745023
-0.001149033772
-0.001363366939
-0.001590800935
-0.001826207761
-0.002064414483
-0.002300541062
-0.002529842522
-0.00274810726
-0.002951678883
-0.003137193634
-0.003301899637
-0.003443317982
-0.003561262916
-0.003653777939
-0.003721004706
-0.003764201993
-0.003783861641
-0.003780035332
-0.003753401335
-0.003705383849
-0.003637462383
-0.003550899888
-0.003446686222
-0.003325369545
-0.003187350517
-0.003033077497
-0.002863614788
-0.002681419066
-0.002486211067
-0.002278015505
-0.002056740415
-0.001822589346
-0.001576634484
-0.0013202305
-0.001053973703
-0.0007778051368
-0.0004929593376
-0.0002000641914
0.0001004205812
0.00040757943
0.0007212571329
0.001040589276
0.001365095523
0.001693989492
0.002027075058
0.002364049764
0.002704805534
0.003049203086
0.003396914444
0.003747359388
0.004099598225
0.004453529571
0.00480824277
0.005163785184
0.005519903105
0.005876611674
0.00623372031
0.006590845257
0.006947474345
0.007302749895
0.007655986561
0.008006899654
0.008355517176
0.008702101258
0.009046536903
0.009388189592
0.009726270952
0.01006048219
0.01039069412
0.01071689081
0.01103839927
0.01135500973
0.01166590808
0.01197096862
0.01227021176
0.01256297875
0.01284820612
0.01312450424
0.01339138634
0.01364979284
0.01389814526
0.01413731293
0.01436709258
0.01458815619
0.01479623144
0.01499389067
0.01518268757
0.01536414137
0.01553954679
0.01574566432
0.015995639
0.01655361309
0.017113992
0.01769433504
0.01827474641
)


101
(
-1.434125783e-05
-0.0003034978878
-0.0004753140808
-0.000623046364
-0.0007782274931
-0.0009531796731
-0.001147608744
-0.001360191795
-0.00158593042
-0.001819842108
-0.002056932154
-0.002292456661
-0.002521853622
-0.0027409313
-0.002946195869
-0.003134356972
-0.003302648941
-0.00344863339
-0.003571871986
-0.003670556542
-0.003744662155
-0.003795007256
-0.003822201872
-0.003826523871
-0.003808488166
-0.003769230178
-0.003710087206
-0.003632303416
-0.003536959138
-0.003424749634
-0.003296145811
-0.003151482604
-0.002991387136
-0.002818072406
-0.00263167887
-0.002432721058
-0.002221293499
-0.001997393927
-0.001761573747
-0.001514732913
-0.001257456689
-0.0009899171394
-0.0007134912004
-0.0004288461418
-0.0001364193682
0.0001628923358
0.000468999112
0.0007812319036
0.001099217626
0.001422055673
0.001749397876
0.002080785037
0.002416064484
0.002755172638
0.003098005057
0.003444193178
0.003792856725
0.004143869423
0.004496140678
0.004849545126
0.005203766503
0.005558854821
0.005914746844
0.006271261318
0.006628115081
0.006984575337
0.007339779979
0.007693025058
0.008044098528
0.008393334008
0.008740949453
0.00908663177
0.009429603544
0.009769346284
0.01010552009
0.01043809289
0.0107665219
0.01109081112
0.01141025868
0.01172435846
0.01203292618
0.01233590801
0.01263247863
0.01292092641
0.01320020803
0.01347153441
0.01373373458
0.01398659258
0.0142304099
0.01446652666
0.01469081324
0.01490448267
0.01510939145
0.01530766489
0.0155008432
0.01572562331
0.01599575971
0.01655374322
0.01711413159
0.01769443125
0.01827480525
)


101
(
-1.434126186e-05
-0.0003040947127
-0.0004770596031
-0.0006250231933
-0.000779632916
-0.0009533634495
-0.001146260385
-0.001357086686
-0.001581103653
-0.00181347875
-0.002049388913
-0.002284227228
-0.002513605973
-0.002733370786
-0.00294016943
-0.00313079477
-0.003302481704
-0.003452823039
-0.003581191609
-0.003685845071
-0.003766662886
-0.003824093334
-0.003858726106
-0.003871018016
-0.003861426376
-0.003830863396
-0.003780501563
-0.003711512304
-0.00362500433
-0.003521794395
-0.003402468143
-0.003267354171
-0.003116787594
-0.002952636549
-0.002775152379
-0.002585177223
-0.002383122678
-0.002169085371
-0.001943389102
-0.001706502209
-0.001458709101
-0.00120014539
-0.0009322465557
-0.0006558661038
-0.0003715053225
-8.007749591e-05
0.0002183134813
0.0005231299925
0.0008341890552
0.001150659889
0.001472092906
0.001797858624
0.002127665182
0.002461422686
0.002799136756
0.003140651899
0.003485283741
0.003832990624
0.004182601266
0.004533794521
0.004886092808
0.005239492114
0.005593968762
0.005949475361
0.006305981281
0.006663021417
0.007019846444
0.007375452534
0.00772919677
0.008081170162
0.008431756537
0.008781044788
0.009128560059
0.009473709865
0.009815901931
0.01015489589
0.01049019873
0.01082193603
0.01114970866
0.01147295785
0.01179102453
0.01210399953
0.01241175957
0.0127125621
0.01300466758
0.01328877619
0.01356495861
0.01383224261
0.0140903166
0.01434171086
0.01458239039
0.01481278427
0.01503439756
0.01525003003
0.01546153163
0.01570547204
0.0159958907
0.01655388192
0.01711427243
0.0176944176
0.01827460914
)


101
(
-1.434126477e-05
-0.0003046990301
-0.0004788275111
-0.0006270479042
-0.0007811058831
-0.0009536278091
-0.001144991409
-0.001354054688
-0.001576325112
-0.001807123212
-0.002041791704
-0.0022758611
-0.002505110209
-0.002725436159
-0.002933612553
-0.003126521257
-0.003301410846
-0.003455899875
-0.003589220892
-0.003699644741
-0.003786996258
-0.003851421496
-0.003893402448
-0.00391351125
-0.003912206323
-0.003890244432
-0.003848638564
-0.00378845581
-0.00371077564
-0.003616489014
-0.003506303766
-0.003380620343
-0.003239628788
-0.003084863441
-0.002916497312
-0.002735478561
-0.002542486503
-0.002337873514
-0.002122038441
-0.00189519608
-0.001657256287
-0.001408108374
-0.00114904855
-0.0008810405165
-0.0006047802397
-0.0003212534101
-3.062161996e-05
0.000266605232
0.000570410098
0.0008801479794
0.001195370191
0.00151536648
0.001839686536
0.002168093388
0.002500593631
0.002837176863
0.00317737477
0.003521297737
0.003867889933
0.004216682731
0.004566988092
0.004918696395
0.005271716691
0.005626023414
0.005981739349
0.006338736291
0.006696565987
0.00705424173
0.007410737291
0.007765676535
0.008119301618
0.008471940266
0.008823555327
0.00917378458
0.009521935912
0.009867481618
0.01020976269
0.01054888845
0.01088472215
0.01121700485
0.01154480095
0.01186776375
0.01218637752
0.01249950172
0.01280489963
0.01310205116
0.01339198588
0.01367417523
0.01394724869
0.01421383328
0.01447120485
0.01471887665
0.01495782676
0.01519129077
0.01542161069
0.01568518847
0.01599605979
0.01655398847
0.01711431075
0.01769412873
0.0182739745
)


101
(
-1.434127014e-05
-0.0003053111954
-0.0004806185458
-0.0006291217727
-0.0007826484358
-0.0009539755235
-0.001143805489
-0.001351100014
-0.00157160051
-0.00180078251
-0.002034149182
-0.002267368607
-0.002496379025
-0.002717140577
-0.002926540835
-0.003121553603
-0.003299452794
-0.00345788038
-0.003595965893
-0.003711960446
-0.003805657155
-0.00387696165
-0.003926198326
-0.003953991302
-0.003960820662
-0.003947344781
-0.003914440656
-0.003863062232
-0.003794215855
-0.003708809692
-0.003607650047
-0.00349125283
-0.00335978642
-0.003214526437
-0.003055495718
-0.002883566362
-0.002699537966
-0.002504015571
-0.002297638443
-0.002080655475
-0.0018527259
-0.001613380694
-0.001363585934
-0.001104204899
-0.0008361407559
-0.0005605564846
-0.0002776994747
1.187418478e-05
0.0003082123117
0.0006108930537
0.0009195835339
0.001233537866
0.001552225746
0.00187527396
0.002202525918
0.002534043497
0.002869521586
0.003209256826
0.003552387239
0.00389844623
0.004246596449
0.004596558794
0.00494814051
0.005301231495
0.005655960768
0.006012442506
0.006370604904
0.006729758285
0.007088772791
0.007446821698
0.007803699235
0.00815969426
0.008515069081
0.008869903812
0.009223725872
0.009575867223
0.009925319921
0.01027195236
0.01061572566
0.01095680635
0.01129441849
0.01162765024
0.01195691394
0.01228198773
0.01260087533
0.0129117044
0.01321526114
0.0135123548
0.0138011824
0.01408316657
0.01435735494
0.01462280942
0.01487966896
0.0151315078
0.01538107818
0.01566467056
0.01599628109
0.01655400047
0.0171141063
0.01769333265
0.01827249866
)


101
(
-1.434127545e-05
-0.0003059313189
-0.0004824331168
-0.0006312456496
-0.0007842620868
-0.0009544087302
-0.001142705563
-0.001348226017
-0.001566934419
-0.001794462398
-0.002026468778
-0.002258758577
-0.002487423536
-0.002708495956
-0.002918968537
-0.003115907558
-0.003296622522
-0.003458778767
-0.003601431695
-0.003722793614
-0.003822638949
-0.003900685183
-0.003957078466
-0.003992436454
-0.004007255788
-0.004002137836
-0.003977855468
-0.003935257799
-0.003875253217
-0.003798713739
-0.003706496509
-0.003599239452
-0.003477185112
-0.003341447028
-0.003191905684
-0.003029263306
-0.002854274567
-0.002667685619
-0.002470394208
-0.002262922891
-0.002044887647
-0.001815558361
-0.001575444002
-0.001325101346
-0.001065443902
-0.0007978737368
-0.0005228329249
-0.0002409254649
4.785152466e-05
0.0003432168564
0.0006450445655
0.0009526798615
0.001265505232
0.00158306996
0.001905072244
0.00223143999
0.00256200356
0.002897239121
0.003236483068
0.003579415495
0.003925150505
0.004273207188
0.004623295621
0.004975200405
0.005328965563
0.005684729195
0.006042710391
0.006402646181
0.006763631359
0.007124648969
0.007484960839
0.007844512074
0.008203579869
0.008562597008
0.008921568426
0.009280049645
0.009636822616
0.00999122902
0.0103429877
0.01069263154
0.01103992871
0.01138374538
0.01172382775
0.01206045852
0.01239261294
0.01271773122
0.01303520785
0.01334702391
0.0136519884
0.01395000202
0.01424114436
0.01452476592
0.01479988659
0.01507064331
0.01533991172
0.0156438207
0.01599636831
0.01655371482
0.01711340485
0.01769168392
0.01827025699
)


101
(
-1.434126477e-05
-0.0003065593817
-0.0004842713044
-0.0006334199521
-0.0007859478286
-0.0009549289445
-0.001141693825
-0.001345435189
-0.001562330349
-0.001788167444
-0.002018756629
-0.00225003837
-0.002478253257
-0.002699512808
-0.002910908232
-0.00310959732
-0.00329293367
-0.003458607543
-0.00360562331
-0.00373214324
-0.00383793339
-0.003922565156
-0.003986004195
-0.004028815561
-0.004051491001
-0.004054597301
-0.004038834571
-0.004004965789
-0.003953800563
-0.003886134982
-0.003802818138
-0.003704578355
-0.003591781099
-0.003465493294
-0.003325506296
-0.003172329802
-0.003006557832
-0.00282892235
-0.002640498876
-0.002442143727
-0.002233689194
-0.002014348351
-0.001784199695
-0.001543351324
-0.00129247258
-0.001033081925
-0.0007659177946
-0.0004917075457
-0.0002105105276
7.740607326e-05
0.000372083557
0.000673072814
0.0009797868115
0.001291680975
0.001608353404
0.001929563445
0.002255081964
0.002585538235
0.002920525852
0.003259919037
0.00360288764
0.003948808969
0.004297262925
0.004647944708
0.005000797525
0.005355856677
0.00571342033
0.006073593936
0.006435882583
0.006799395682
0.007163096202
0.007526428543
0.007889389742
0.008252448297
0.008616033822
0.008980293871
0.009344210377
0.009706642931
0.01006668355
0.01042479732
0.01078142789
0.01113586927
0.01148717876
0.01183529726
0.01218029999
0.01251997332
0.01285199472
0.01317846902
0.01349967714
0.01381439354
0.01412259915
0.01442484803
0.01471849727
0.01500859317
0.01529801238
0.0156226212
0.01599612397
0.01655283013
0.01711180072
0.01768871417
0.01826587456
)


101
(
-1.434126477e-05
-0.0003071962439
-0.0004861351277
-0.0006356470363
-0.0007877090679
-0.0009555406348
-0.001140775986
-0.00134273418
-0.001557796532
-0.001781907615
-0.002011024998
-0.002241222427
-0.002468885286
-0.002690210082
-0.002902381353
-0.003102646962
-0.003288410779
-0.003457391294
-0.003608560535
-0.003740024723
-0.003851549259
-0.003942591443
-0.004012949034
-0.004063101728
-0.004093510052
-0.004104708507
-0.004097348174
-0.004072129891
-0.004029779878
-0.003971000967
-0.003896578695
-0.003807278937
-0.003703589302
-0.003586607831
-0.003456141972
-0.003312532757
-0.003156167849
-0.002987644573
-0.002808061407
-0.002618522237
-0.002419254373
-0.002209614095
-0.00198948926
-0.001758512101
-0.001516898267
-0.001266009581
-0.001006828005
-0.0007403587144
-0.0004667685276
-0.0001863566937
0.0001009932582
0.0003950383565
0.0006953446481
0.001001343895
0.001312538355
0.00162854363
0.001948990818
0.002274502608
0.002604896365
0.0029403053
0.003280078764
0.003623569052
0.003970178135
0.004319519376
0.004671432372
0.005025841348
0.005382969265
0.0057430873
0.006106118807
0.006471506795
0.006838231645
0.007205395902
0.007572543304
0.007939854676
0.008307821558
0.008677194312
0.00904765448
0.009418068233
0.009786777773
0.01015358647
0.01051925912
0.01088400067
0.01124680924
0.01160669399
0.01196421049
0.01231830771
0.01266555178
0.01300687927
0.01334424002
0.01367618028
0.0140016226
0.01432285307
0.01463551345
0.01494522699
0.01525519918
0.01560079071
0.01599529437
0.01655102463
0.01710890491
0.01768398873
0.01825887648
)


101
(
-1.434127545e-05
-0.0003078421922
-0.0004880248154
-0.0006379281331
-0.0007895478209
-0.0009562465912
-0.001139955747
-0.001340127289
-0.001553338321
-0.001775689486
-0.002003282513
-0.002232321319
-0.00245933254
-0.002680602085
-0.002893403887
-0.003095074325
-0.00328307226
-0.003455148619
-0.003610258626
-0.003746452245
-0.003863494732
-0.003960756069
-0.004037883551
-0.004095258021
-0.004133281672
-0.00415244735
-0.004153364912
-0.004136695149
-0.004103105772
-0.004053214209
-0.003987704266
-0.003907312717
-0.0038126164
-0.003704773159
-0.003583705699
-0.003449669468
-0.003302859233
-0.003143665188
-0.002973049582
-0.002792216222
-0.002601769305
-0.002401418952
-0.002191116749
-0.00197017937
-0.00173827902
-0.001496360742
-0.001245416586
-0.0009867573364
-0.000720806605
-0.0004479249004
-0.000168008001
0.0001188568249
0.0004124522551
0.0007122914009
0.00101782913
0.001328539882
0.001643896594
0.001964390323
0.002289954535
0.002620987776
0.002957103662
0.003297757047
0.003642235611
0.003990021335
0.004340857577
0.004694602695
0.005051342485
0.005411322598
0.005774736051
0.006141429207
0.006510619409
0.006881355352
0.007252837795
0.007624788991
0.007997347885
0.008371446167
0.008747656538
0.009125495561
0.009502976587
0.009878955022
0.01025377466
0.01062835241
0.01100254366
0.01137461055
0.01174457458
0.01211266405
0.01247555913
0.01283224995
0.01318560096
0.01353504703
0.01387810526
0.01421838201
0.01455072822
0.01488031761
0.01521114557
0.01557791672
0.01599356001
0.01654790811
0.01710428944
0.01767703841
0.01825008354
)


101
(
-1.43412648e-05
-0.0003084968861
-0.00048993954
-0.0006402630871
-0.0007914644199
-0.0009570475712
-0.001139234402
-0.001337615986
-0.001548957801
-0.001769515836
-0.001995533426
-0.002223340832
-0.002449602712
-0.002670697649
-0.00288398611
-0.003086890985
-0.003276930342
-0.003451891352
-0.003610725965
-0.003751433128
-0.003873771964
-0.003977048506
-0.004060774921
-0.004125238907
-0.004170759179
-0.004197772833
-0.004206845296
-0.004198607347
-0.004173692654
-0.004132659943
-0.00407608316
-0.004004611047
-0.003918844398
-0.003819996098
-0.003708151349
-0.003583595862
-0.003446390639
-0.003296708999
-0.003135285429
-0.002963246758
-0.002781420697
-0.002589953877
-0.002389064355
-0.002178053197
-0.001956163573
-0.001723727799
-0.001481452323
-0.001230784408
-0.0009725153203
-0.0007071806438
-0.0004347425973
-0.0001552262588
0.0001313614169
0.0004247384246
0.0007243833742
0.00102969442
0.001339939353
0.001655407825
0.001976011176
0.00230233352
0.002634346052
0.002971689793
0.003313681621
0.003659636456
0.004009174913
0.004362129043
0.004718458939
0.005078306647
0.005441933159
0.005809497774
0.006180560629
0.00655436607
0.006930009278
0.007306852921
0.007684482888
0.008063460006
0.008444859384
0.008829234058
0.009215076786
0.009600520243
0.009984939525
0.01036917896
0.01075431817
0.01113882144
0.01152150805
0.01190315426
0.01228167165
0.0126543848
0.01302365837
0.01339071026
0.01375187585
0.01411118433
0.01446367693
0.01481351361