/*--------------------------------*- C++ -*----------------------------------*\
| =========                 |                                                 |
| \\      /  F ield         | OpenFOAM: The Open Source CFD Toolbox           |
|  \\    /   O peration     | Version:  2.3.1                                 |
|   \\  /    A nd           | Web:      www.OpenFOAM.org                      |
|    \\/     M anipulation  |                                                 |
\*---------------------------------------------------------------------------*/
FoamFile
{
    version     2.0;
    format      ascii;
    class       dictionary;
    location    "constant";
    object      GRPSI11;
}
// * * * * * * * * * * * * * * * * * * * * * * * * * * * * * * * * * * * * * //

GRPSI11_table
101
(

101
(
0.0002364305166
0.0002490535646
0.0002628119629
0.0002606190191
0.0002524847657
0.0002422209185
0.0002305258368
0.0002181549682
0.000205822119
0.0001932877105
0.0001807054909
0.0001683650953
0.0001561276307
0.000144118781
0.0001324714754
0.0001206732088
0.0001080448064
9.48248241e-05
7.928842571e-05
6.148653316e-05
4.28463227e-05
2.158865862e-05
-6.072573993e-07
-2.096560288e-05
-3.898734081e-05
-5.401798669e-05
-6.545153744e-05
-7.333779387e-05
-7.798175292e-05
-7.98127641e-05
-7.95001111e-05
-7.782992875e-05
-7.452923801e-05
-7.004974002e-05
-6.511219542e-05
-5.765236053e-05
-4.990823617e-05
-5.194391179e-05
-5.538579466e-05
-5.241323497e-05
-4.99774499e-05
-4.780637018e-05
-4.572870022e-05
-4.400844551e-05
-4.246977462e-05
-4.108500427e-05
-3.990622359e-05
-3.890158151e-05
-3.806923059e-05
-3.739481131e-05
-3.68918931e-05
-3.652432917e-05
-3.630433211e-05
-3.620687913e-05
-3.621672281e-05
-3.636497247e-05
-3.662088137e-05
-3.69836868e-05
-3.74563376e-05
-3.802940085e-05
-3.86389845e-05
-3.930834395e-05
-4.008314504e-05
-4.086313999e-05
-4.163705689e-05
-4.245034533e-05
-4.33073007e-05
-4.414410202e-05
-4.491021728e-05
-4.5621717e-05
-4.623406218e-05
-4.666525591e-05
-4.668569626e-05
-4.377480612e-05
-4.367475071e-05
-5.014569589e-05
-5.421617323e-05
-5.466271769e-05
-5.498435728e-05
-5.502573277e-05
-5.464996612e-05
-5.361423052e-05
-5.006710861e-05
-5.150448001e-05
-5.690661911e-05
-5.761101817e-05
-5.652170876e-05
-5.472642362e-05
-4.969082037e-05
-5.041182604e-05
-5.394616135e-05
-4.995923185e-05
-4.736406072e-05
-4.54585641e-05
-4.528186378e-05
-4.663686818e-05
-2.295905339e-05
5.689010763e-13
-1.484413551e-22
-3.417981501e-23
2.968827101e-22
)


101
(
0.0002340411422
0.0002465550201
0.0002602493257
0.000258159565
0.0002501357294
0.0002399994571
0.0002284741844
0.0002162884838
0.0002041549044
0.0001918619178
0.000179531026
0.0001674374806
0.0001554649507
0.0001437256107
0.0001323727256
0.0001209634169
0.0001088886288
9.628405777e-05
8.175843548e-05
6.506114876e-05
4.732685533e-05
2.735435555e-05
6.105816476e-06
-1.409265249e-05
-3.231154533e-05
-4.788717964e-05
-6.021760421e-05
-6.915364711e-05
-7.488823355e-05
-7.777904185e-05
-7.83850883e-05
-7.743034017e-05
-7.487666406e-05
-7.106148024e-05
-6.658132485e-05
-6.033289649e-05
-5.31760526e-05
-5.128926266e-05
-5.305924568e-05
-5.245962146e-05
-5.056049467e-05
-4.845247488e-05
-4.632843648e-05
-4.444076308e-05
-4.276772547e-05
-4.128373623e-05
-4.000289158e-05
-3.890110436e-05
-3.796925546e-05
-3.719395915e-05
-3.658097141e-05
-3.610998469e-05
-3.579245224e-05
-3.560657038e-05
-3.55153843e-05
-3.552193429e-05
-3.565829816e-05
-3.590735842e-05
-3.62563798e-05
-3.671633155e-05
-3.724581845e-05
-3.784013134e-05
-3.851802699e-05
-3.925207195e-05
-3.998449485e-05
-4.073619464e-05
-4.154599121e-05
-4.238192798e-05
-4.318765312e-05
-4.394823107e-05
-4.467562972e-05
-4.532910089e-05
-4.577710795e-05
-4.489351437e-05
-4.383746617e-05
-4.562703207e-05
-4.914159205e-05
-5.188025907e-05
-5.339957315e-05
-5.397963664e-05
-5.404933282e-05
-5.377531701e-05
-5.22118542e-05
-5.093467713e-05
-5.266291598e-05
-5.546763702e-05
-5.650187665e-05
-5.582853312e-05
-5.361433303e-05
-5.112473451e-05
-5.148803194e-05
-5.218028737e-05
-4.972495622e-05
-4.735663874e-05
-4.650256646e-05
-4.75344269e-05
-1.961643831e-05
9.786388582e-06
1.02277474e-05
1.061036105e-05
1.059875867e-05
)


101
(
0.0002316516661
0.000244056143
0.0002576848106
0.0002556963389
0.0002477816548
0.0002377701672
0.000226409907
0.0002144054954
0.0002024673953
0.0001904102246
0.0001783284509
0.000166481177
0.0001547707476
0.0001432991294
0.0001322343451
0.0001211936997
0.0001096351248
9.762416673e-05
8.401610601e-05
6.838957441e-05
5.159692159e-05
3.281892382e-05
1.259348925e-05
-7.219446881e-06
-2.549062328e-05
-4.147489907e-05
-5.455969155e-05
-6.44585359e-05
-7.123780332e-05
-7.517036153e-05
-7.671748865e-05
-7.653434017e-05
-7.470937713e-05
-7.158640056e-05
-6.765568961e-05
-6.227140124e-05
-5.580991468e-05
-5.197530605e-05
-5.165571381e-05
-5.155478892e-05
-5.049321893e-05
-4.877062692e-05
-4.674718852e-05
-4.478961202e-05
-4.298617781e-05
-4.137424625e-05
-3.997950866e-05
-3.877488554e-05
-3.774273388e-05
-3.686623145e-05
-3.614509805e-05
-3.555995315e-05
-3.511642752e-05
-3.481246182e-05
-3.462295551e-05
-3.452352106e-05
-3.454290626e-05
-3.467041433e-05
-3.489684745e-05
-3.52328337e-05
-3.565483741e-05
-3.616016348e-05
-3.673196145e-05
-3.735831313e-05
-3.802186923e-05
-3.872902882e-05
-3.948785962e-05
-4.027414932e-05
-4.107389808e-05
-4.185433935e-05
-4.262305825e-05
-4.336704046e-05
-4.405451982e-05
-4.419351667e-05
-4.365943349e-05
-4.37300714e-05
-4.530987081e-05
-4.792169982e-05
-5.046259377e-05
-5.203855247e-05
-5.264945348e-05
-5.281997091e-05
-5.246825812e-05
-5.14636757e-05
-5.100544996e-05
-5.246254247e-05
-5.472581161e-05
-5.5495607e-05
-5.451164138e-05
-5.285261279e-05
-5.129054937e-05
-5.138115292e-05
-5.112779299e-05
-4.829051435e-05
-4.751559041e-05
-5.058830187e-05
-1.512281163e-05
2.254801463e-05
2.4023269e-05
2.534412065e-05
2.534845295e-05
)


101
(
0.0002292620915
0.0002415569439
0.0002551184776
0.0002532295046
0.0002454228893
0.000235533728
0.0002243341138
0.0002125074298
0.0002007613914
0.0001889348543
0.0001770998513
0.000165498179
0.0001540471087
0.0001428408698
0.0001320578214
0.0001213667225
0.00011028837
9.884386742e-05
8.607168887e-05
7.146609763e-05
5.563108348e-05
3.798156801e-05
1.881284923e-05
-4.359018624e-07
-1.860127268e-05
-3.485437923e-05
-4.855385905e-05
-5.931382574e-05
-6.70790278e-05
-7.202719376e-05
-7.452507404e-05
-7.515402337e-05
-7.406032986e-05
-7.163340162e-05
-6.834980647e-05
-6.368929626e-05
-5.789154063e-05
-5.324284255e-05
-5.119249574e-05
-5.055581932e-05
-4.989882025e-05
-4.866005371e-05
-4.692138965e-05
-4.503242187e-05
-4.315386644e-05
-4.141552075e-05
-3.989070605e-05
-3.85720795e-05
-3.743794662e-05
-3.64619502e-05
-3.563854827e-05
-3.494369295e-05
-3.438377958e-05
-3.395732006e-05
-3.364558276e-05
-3.343356804e-05
-3.33441838e-05
-3.335247804e-05
-3.345669056e-05
-3.366854315e-05
-3.396840781e-05
-3.436186736e-05
-3.48274e-05
-3.535313172e-05
-3.593264631e-05
-3.656605703e-05
-3.726223025e-05
-3.798813259e-05
-3.873512077e-05
-3.949552506e-05
-4.025745845e-05
-4.101012977e-05
-4.176887765e-05
-4.236723318e-05
-4.250874144e-05
-4.242790246e-05
-4.285421707e-05
-4.43656056e-05
-4.677992699e-05
-4.910965125e-05
-5.053093301e-05
-5.113053173e-05
-5.131219283e-05
-5.109396585e-05
-5.052404603e-05
-5.051662034e-05
-5.21554149e-05
-5.411055764e-05
-5.437652657e-05
-5.340330726e-05
-5.193459822e-05
-5.083856906e-05
-5.076703393e-05
-4.911133342e-05
-4.864762942e-05
-5.33495249e-05
-1.029748238e-05
3.633766391e-05
3.844008723e-05
4.037072855e-05
4.042645054e-05
)


101
(
0.0002268724217
0.0002390574327
0.0002525503823
0.0002507592132
0.0002430597467
0.0002332907423
0.0002222477677
0.0002105954707
0.0001990382971
0.0001874374408
0.000175846549
0.0001644894615
0.0001532948519
0.0001423510049
0.000131843142
0.0001214835332
0.0001108510494
9.994230486e-05
8.793304922e-05
7.428892101e-05
5.9409358e-05
4.283745818e-05
2.473315288e-05
6.183984811e-06
-1.171948056e-05
-2.809732917e-05
-4.227111276e-05
-5.377874601e-05
-6.245642932e-05
-6.838321972e-05
-7.183032166e-05
-7.3300211e-05
-7.295118437e-05
-7.121074549e-05
-6.853997173e-05
-6.463548188e-05
-5.957001849e-05
-5.4664637e-05
-5.142800424e-05
-4.988637963e-05
-4.910017588e-05
-4.81691974e-05
-4.677933393e-05
-4.509370683e-05
-4.324648745e-05
-4.142718674e-05
-3.977785157e-05
-3.833567718e-05
-3.709081529e-05
-3.601250591e-05
-3.508986247e-05
-3.429194043e-05
-3.362151554e-05
-3.30793588e-05
-3.265555875e-05
-3.232051255e-05
-3.21082545e-05
-3.200194542e-05
-3.199028386e-05
-3.208434785e-05
-3.225874317e-05
-3.252950456e-05
-3.287751351e-05
-3.329234892e-05
-3.377928298e-05
-3.432840368e-05
-3.493407144e-05
-3.558365609e-05
-3.627166622e-05
-3.699926084e-05
-3.773883826e-05
-3.846426028e-05
-3.919817141e-05
-3.992068208e-05
-4.047063653e-05
-4.073900371e-05
-4.09048655e-05
-4.154031478e-05
-4.317444978e-05
-4.553972686e-05
-4.767054452e-05
-4.889402702e-05
-4.941885489e-05
-4.965417224e-05
-4.960009377e-05
-4.937453953e-05
-4.993780055e-05
-5.177819886e-05
-5.316845139e-05
-5.302235524e-05
-5.204640966e-05
-5.080247396e-05
-5.038011165e-05
-4.927592885e-05
-4.921153109e-05
-5.43881185e-05
-4.464728682e-06
4.963834793e-05
5.194694786e-05
5.39881473e-05
5.397256178e-05
)


101
(
0.0002244826594
0.000236557618
0.0002499805764
0.0002482856031
0.0002406925082
0.0002310417426
0.0002201516993
0.0002086705909
0.0001972991848
0.0001859191405
0.0001745692669
0.000163455246
0.0001525138995
0.0001418288039
0.0001315893511
0.000121544212
0.0001113251123
0.0001009192451
8.960672974e-05
7.685942764e-05
6.291723256e-05
4.737980413e-05
3.033141487e-05
1.25794922e-05
-4.918267069e-06
-2.127523429e-05
-3.578117356e-05
-4.79139401e-05
-5.741606704e-05
-6.426871513e-05
-6.865160842e-05
-7.09815652e-05
-7.139614754e-05
-7.035009035e-05
-6.831195218e-05
-6.510808299e-05
-6.076933003e-05
-5.601637147e-05
-5.208979706e-05
-4.964181081e-05
-4.837037092e-05
-4.745322989e-05
-4.632925205e-05
-4.4913177e-05
-4.320871837e-05
-4.138890552e-05
-3.964359789e-05
-3.807311474e-05
-3.670937928e-05
-3.552840568e-05
-3.451060916e-05
-3.361627548e-05
-3.284213752e-05
-3.218827436e-05
-3.1654631e-05
-3.120822516e-05
-3.08778786e-05
-3.064837134e-05
-3.051634192e-05
-3.050071139e-05
-3.055611792e-05
-3.07041729e-05
-3.093420831e-05
-3.122774551e-05
-3.160245185e-05
-3.20543032e-05
-3.256908524e-05
-3.313712521e-05
-3.374003577e-05
-3.439878461e-05
-3.510606769e-05
-3.581093327e-05
-3.65102986e-05
-3.72212709e-05
-3.790829751e-05
-3.845782458e-05
-3.8794679e-05
-3.914557456e-05
-4.003901884e-05
-4.185015447e-05
-4.417296911e-05
-4.604653277e-05
-4.7055797e-05
-4.757014099e-05
-4.787776432e-05
-4.796151797e-05
-4.817981156e-05
-4.939265038e-05
-5.115448278e-05
-5.191093296e-05
-5.141119263e-05
-5.039654507e-05
-4.986001469e-05
-4.896265527e-05
-4.921420136e-05
-5.458957633e-05
1.198837711e-06
6.170217974e-05
6.600886426e-05
6.995942688e-05
7.009467477e-05
)


101
(
0.0002220928094
0.0002340575098
0.0002474091094
0.000245808803
0.000238321428
0.0002287872008
0.0002180466315
0.0002067335964
0.0001955448737
0.0001843807519
0.0001732682952
0.0001623952007
0.0001517034953
0.0001412728342
0.0001312947116
0.0001215479389
0.0001117116737
0.0001017747119
9.109809181e-05
7.918080866e-05
6.614481517e-05
5.160114888e-05
3.558951056e-05
1.870105119e-05
1.734238793e-06
-1.445960342e-05
-2.915434444e-05
-4.178272487e-05
-5.200845909e-05
-5.97207808e-05
-6.500895234e-05
-6.820262233e-05
-6.939950196e-05
-6.90579812e-05
-6.76614886e-05
-6.512713994e-05
-6.149754413e-05
-5.713493189e-05
-5.293563559e-05
-4.977255555e-05
-4.786375288e-05
-4.668515394e-05
-4.564421618e-05
-4.446673714e-05
-4.297433514e-05
-4.124477145e-05
-3.946242492e-05
-3.777988856e-05
-3.629053855e-05
-3.499608517e-05
-3.387936096e-05
-3.289319646e-05
-3.202202468e-05
-3.125937822e-05
-3.061561799e-05
-3.006542424e-05
-2.962577834e-05
-2.928098419e-05
-2.902875756e-05
-2.888973472e-05
-2.882612305e-05
-2.885765469e-05
-2.89780423e-05
-2.916053885e-05
-2.941611519e-05
-2.975903811e-05
-3.017648636e-05
-3.065617648e-05
-3.118273372e-05
-3.175821916e-05
-3.239218874e-05
-3.306043376e-05
-3.37356234e-05
-3.441859895e-05
-3.511717886e-05
-3.578271021e-05
-3.632625635e-05
-3.675142954e-05
-3.729279778e-05
-3.845457273e-05
-4.044917851e-05
-4.266329608e-05
-4.424252225e-05
-4.509445904e-05
-4.563488027e-05
-4.602361087e-05
-4.632789572e-05
-4.70917335e-05
-4.872496617e-05
-5.015433273e-05
-5.027787477e-05
-4.952119474e-05
-4.89231063e-05
-4.821271994e-05
-4.892301111e-05
-5.43342419e-05
8.006779094e-06
7.507570099e-05
8.015435956e-05
8.470370912e-05
8.478321457e-05
)


101
(
0.0002197028732
0.0002315571138
0.0002448360242
0.0002433289282
0.0002359467298
0.0002265275254
0.0002159331803
0.0002047851513
0.0001937759825
0.0001828227903
0.0001719435993
0.0001613085994
0.0001508624063
0.0001406811922
0.0001309569705
0.0001214932373
0.000112011177
0.0001025089592
9.241176103e-05
8.125745693e-05
6.9086272e-05
5.549466304e-05
4.049279148e-05
2.45082739e-05
8.175979075e-06
-7.721183818e-06
-2.246235088e-05
-3.545134533e-05
-4.628842643e-05
-5.477989299e-05
-6.092787797e-05
-6.497412974e-05
-6.696454753e-05
-6.733854459e-05
-6.658764223e-05
-6.469972066e-05
-6.175526685e-05
-5.791500101e-05
-5.376197257e-05
-5.015106881e-05
-4.762182513e-05
-4.599562199e-05
-4.482257987e-05
-4.376499222e-05
-4.248174045e-05
-4.090807193e-05
-3.91620287e-05
-3.740716603e-05
-3.579326282e-05
-3.436948961e-05
-3.313984151e-05
-3.205233009e-05
-3.107904793e-05
-3.020997886e-05
-2.945422346e-05
-2.879027515e-05
-2.824383463e-05
-2.779349843e-05
-2.742985001e-05
-2.717680611e-05
-2.699518719e-05
-2.69080682e-05
-2.691502342e-05
-2.699354697e-05
-2.714546869e-05
-2.738739326e-05
-2.770438947e-05
-2.809030234e-05
-2.854261008e-05
-2.904185264e-05
-2.960925373e-05
-3.023653911e-05
-3.088911331e-05
-3.15510382e-05
-3.223622261e-05
-3.29305506e-05
-3.358418159e-05
-3.415982848e-05
-3.467827727e-05
-3.545657478e-05
-3.693874023e-05
-3.905386191e-05
-4.105658394e-05
-4.235378891e-05
-4.312099648e-05
-4.373683171e-05
-4.425047359e-05
-4.48733942e-05
-4.620297075e-05
-4.790325069e-05
-4.866293853e-05
-4.832703783e-05
-4.7742278e-05
-4.718091125e-05
-4.804697626e-05
-5.305462639e-05
1.553054828e-05
8.874299957e-05
9.472643925e-05
0.0001000508472
0.0001001718589
)


101
(
0.0002173128561
0.000229056439
0.0002422613639
0.000240846088
0.0002335686174
0.0002242630769
0.0002138118758
0.0002028258042
0.0001919929727
0.0001812455592
0.0001705949101
0.000160194442
0.0001499890755
0.0001400516581
0.000130573526
0.0001213781601
0.0001122235313
0.0001031223347
9.355185448e-05
8.309459264e-05
7.173911292e-05
5.90550811e-05
4.502978959e-05
2.996877677e-05
1.435223522e-05
-1.127717196e-06
-1.577742297e-05
-2.898929123e-05
-4.031601924e-05
-4.949234866e-05
-5.643922419e-05
-6.131144583e-05
-6.409636279e-05
-6.519483609e-05
-6.509226934e-05
-6.383152851e-05
-6.154175014e-05
-5.828530945e-05
-5.440176288e-05
-5.061093253e-05
-4.758626105e-05
-4.543734166e-05
-4.39457891e-05
-4.283673014e-05
-4.168200339e-05
-4.027369566e-05
-3.861756894e-05
-3.683570468e-05
-3.511006775e-05
-3.35487098e-05
-3.218533467e-05
-3.097309233e-05
-2.989016833e-05
-2.890950368e-05
-2.802735941e-05
-2.724559998e-05
-2.659453038e-05
-2.603774046e-05
-2.556699843e-05
-2.520915177e-05
-2.492127219e-05
-2.473650452e-05
-2.464387348e-05
-2.461979234e-05
-2.467352794e-05
-2.48195376e-05
-2.505889459e-05
-2.537896132e-05
-2.578684344e-05
-2.623759888e-05
-2.674575555e-05
-2.731398861e-05
-2.792752034e-05
-2.860079146e-05
-2.93007554e-05
-3.000961678e-05
-3.071958285e-05
-3.141471873e-05
-3.204878164e-05
-3.271743044e-05
-3.380432898e-05
-3.557129758e-05
-3.770169303e-05
-3.943171024e-05
-4.051915796e-05
-4.13222087e-05
-4.203069616e-05
-4.272283932e-05
-4.380149807e-05
-4.554285437e-05
-4.681524204e-05
-4.686575398e-05
-4.637034823e-05
-4.594142615e-05
-4.68710369e-05
-5.171678358e-05
2.337386332e-05
0.0001031297168
0.0001096503
0.0001155057775
0.0001157305165
)


101
(
0.0002149227588
0.000226555489
0.0002396851641
0.0002383603783
0.0002311872689
0.0002219941707
0.000211683175
0.0002008560028
0.0001901961759
0.0001796492009
0.0001692217915
0.0001590515392
0.0001490817146
0.0001393817891
0.0001301415333
0.000121200406
0.0001123482019
0.0001036152476
9.452209666e-05
8.469791279e-05
7.4103764e-05
6.22792879e-05
4.91919163e-05
3.505693133e-05
2.021573517e-05
5.257332431e-06
-9.171173641e-06
-2.246860812e-05
-3.415650045e-05
-4.391111734e-05
-5.158070634e-05
-5.723619736e-05
-6.080347428e-05
-6.262959043e-05
-6.317626013e-05
-6.252417747e-05
-6.085159221e-05
-5.818972809e-05
-5.471229122e-05
-5.09692377e-05
-4.763016018e-05
-4.498195587e-05
-4.304408795e-05
-4.169946772e-05
-4.053130522e-05
-3.92335937e-05
-3.768273887e-05
-3.591736106e-05
-3.411037382e-05
-3.240755407e-05
-3.088533278e-05
-2.952707274e-05
-2.831891926e-05
-2.722143766e-05
-2.622670516e-05
-2.532362261e-05
-2.456774942e-05
-2.391579718e-05
-2.333806791e-05
-2.289165692e-05
-2.251561861e-05
-2.22452386e-05
-2.207583024e-05
-2.19746589e-05
-2.195994014e-05
-2.203619381e-05
-2.221857161e-05
-2.249485195e-05
-2.285707748e-05
-2.327204716e-05
-2.37488092e-05
-2.430685861e-05
-2.49175328e-05
-2.558395051e-05
-2.629752648e-05
-2.705051298e-05
-2.781715894e-05
-2.857694092e-05
-2.933587024e-05
-3.009353169e-05
-3.099943642e-05
-3.240489221e-05
-3.43991455e-05
-3.641615162e-05
-3.78900161e-05
-3.889392281e-05
-3.978382739e-05
-4.063405598e-05
-4.160333104e-05
-4.326490336e-05
-4.484958593e-05
-4.528732815e-05
-4.49815397e-05
-4.465293661e-05
-4.556283502e-05
-4.995826858e-05
3.156933842e-05
0.0001173800741
0.0001236260588
0.0001291281522
0.0001292685433
)


101
(
0.0002125325888
0.0002240542737
0.0002371074649
0.0002358718936
0.0002288028495
0.000219721091
0.0002095474834
0.0001988761156
0.0001883858172
0.0001780337437
0.0001678237124
0.0001578786039
0.0001481384123
0.000138669028
0.0001296580095
0.0001209574285
0.0001123842904
0.0001039880896
9.532596116e-05
8.607338593e-05
7.61827296e-05
6.516619216e-05
5.297327682e-05
3.975271106e-05
2.572602215e-05
1.137554551e-05
-2.713176006e-06
-1.596232128e-05
-2.787884723e-05
-3.809469973e-05
-4.639569984e-05
-5.277476343e-05
-5.709697897e-05
-5.964345022e-05
-6.083524303e-05
-6.077328848e-05
-5.967605538e-05
-5.758411653e-05
-5.457573833e-05
-5.104456041e-05
-4.757685568e-05
-4.452527519e-05
-4.209398327e-05
-4.036143516e-05
-3.901081517e-05
-3.771549895e-05
-3.624640335e-05
-3.453152903e-05
-3.268432839e-05
-3.085697678e-05
-2.916967718e-05
-2.764869612e-05
-2.63028348e-05
-2.510337541e-05
-2.400845517e-05
-2.29796826e-05
-2.211782162e-05
-2.138354511e-05
-2.072302523e-05
-2.020631052e-05
-1.977498229e-05
-1.943769719e-05
-1.920704389e-05
-1.906902256e-05
-1.902440976e-05
-1.904585759e-05
-1.917486204e-05
-1.941883748e-05
-1.976190634e-05
-2.01804027e-05
-2.065704447e-05
-2.120651086e-05
-2.181817372e-05
-2.250365274e-05
-2.326307788e-05
-2.408000914e-05
-2.489872822e-05
-2.572399553e-05
-2.65848524e-05
-2.746558893e-05
-2.837715893e-05
-2.956724338e-05
-3.132115801e-05
-3.34210579e-05
-3.525394495e-05
-3.65352617e-05
-3.758751467e-05
-3.860923473e-05
-3.956642492e-05
-4.112662745e-05
-4.290610895e-05
-4.368527691e-05
-4.361332069e-05
-4.334789995e-05
-4.423206547e-05
-4.825520789e-05
3.947050945e-05
0.0001309061369
0.000135612899
0.0001396519141
0.0001396604555
)


101
(
0.000210142348
0.0002215527966
0.0002345282975
0.0002333807154
0.000226415502
0.0002174440837
0.0002074051486
0.0001968864418
0.0001865620418
0.0001763991306
0.0001664000804
0.0001566743023
0.0001471572089
0.000137910789
0.0001291199279
0.0001206465469
0.000112330647
0.0001042411967
9.596669479e-05
8.722715335e-05
7.798025377e-05
6.771655459e-05
5.637028615e-05
4.404091083e-05
3.084930388e-05
1.717474262e-05
3.530924354e-06
-9.54279013e-06
-2.155460036e-05
-3.210655284e-05
-4.093353547e-05
-4.795822013e-05
-5.298986017e-05
-5.623518982e-05
-5.805927293e-05
-5.856716969e-05
-5.800249215e-05
-5.643380302e-05
-5.390054612e-05
-5.067974347e-05
-4.724479128e-05
-4.392814388e-05
-4.103722486e-05
-3.882950164e-05
-3.714461754e-05
-3.57189097e-05
-3.427143536e-05
-3.261603541e-05
-3.077192378e-05
-2.886381098e-05
-2.703795033e-05
-2.53584894e-05
-2.38713702e-05
-2.256905898e-05
-2.137065423e-05
-2.024530017e-05
-1.930193634e-05
-1.849888318e-05
-1.77755109e-05
-1.71922544e-05
-1.672621271e-05
-1.636073264e-05
-1.609978337e-05
-1.593165892e-05
-1.586853712e-05
-1.589187211e-05
-1.599662499e-05
-1.620887286e-05
-1.654748613e-05
-1.697769474e-05
-1.747668184e-05
-1.804673695e-05
-1.868087022e-05
-1.939777337e-05
-2.020805108e-05
-2.109392245e-05
-2.198065851e-05
-2.28980478e-05
-2.385482204e-05
-2.483179953e-05
-2.584198767e-05
-2.697509092e-05
-2.851516205e-05
-3.056473027e-05
-3.265219968e-05
-3.424577931e-05
-3.546664282e-05
-3.66399512e-05
-3.770886044e-05
-3.919440702e-05
-4.104094923e-05
-4.213622118e-05
-4.230785161e-05
-4.208349102e-05
-4.285996357e-05
-4.646500454e-05
4.626615228e-05
0.0001420612906
0.000144551783
0.0001465090729
0.0001463474499
)


101
(
0.0002077520407
0.0002190510632
0.0002319476925
0.0002308869196
0.0002240253555
0.0002151633672
0.0002052564741
0.0001948872264
0.0001847249394
0.0001747452576
0.0001649502842
0.0001554373067
0.0001461361609
0.0001371045273
0.000128524299
0.0001202650213
0.0001121859105
0.0001043748399
9.64472891e-05
8.816539409e-05
7.95022179e-05
6.993355232e-05
5.938243022e-05
4.791199303e-05
3.555984944e-05
2.261015702e-05
9.499997511e-06
-3.281226774e-06
-1.525724928e-05
-2.60145483e-05
-3.524979321e-05
-4.282468325e-05
-4.849976275e-05
-5.240401022e-05
-5.483547255e-05
-5.588946801e-05
-5.58175953e-05
-5.47196647e-05
-5.263328058e-05
-4.976545244e-05
-4.648493621e-05
-4.305475518e-05
-3.980679957e-05
-3.712288954e-05
-3.500651281e-05
-3.331618756e-05
-3.179275743e-05
-3.017613836e-05
-2.837369612e-05
-2.644251669e-05
-2.452570833e-05
-2.271444152e-05
-2.109355495e-05
-1.967970854e-05
-1.840049163e-05
-1.720597599e-05
-1.619576401e-05
-1.533742281e-05
-1.456810225e-05
-1.394046906e-05
-1.344575235e-05
-1.306869261e-05
-1.280149155e-05
-1.263512367e-05
-1.255965981e-05
-1.258872446e-05
-1.271580609e-05
-1.292626894e-05
-1.327153796e-05
-1.372360034e-05
-1.425046318e-05
-1.486647068e-05
-1.554729424e-05
-1.630089608e-05
-1.715341714e-05
-1.811496413e-05
-1.910741874e-05
-2.011952646e-05
-2.117121828e-05
-2.22610933e-05
-2.339123471e-05
-2.456949072e-05
-2.600295724e-05
-2.793382396e-05
-3.013346119e-05
-3.204251216e-05
-3.349477765e-05
-3.480464747e-05
-3.601821259e-05
-3.75014051e-05
-3.934614946e-05
-4.066557101e-05
-4.110195564e-05
-4.094519864e-05
-4.15700665e-05
-4.474858632e-05
5.146726645e-05
0.0001500349102
0.0001497746122
0.0001494157562
0.0001492893788
)


101
(
0.0002053616713
0.0002165490784
0.0002293656779
0.0002283905753
0.0002216325246
0.0002128791341
0.0002031017253
0.0001928786649
0.0001828745476
0.0001730720039
0.0001634737375
0.0001541663384
0.000145073413
0.0001362478235
0.000127868249
0.0001198100706
0.0001119484086
0.0001043889924
9.67704642e-05
8.889449851e-05
8.075619397e-05
7.182323548e-05
6.201228364e-05
5.136037468e-05
3.983792936e-05
2.764434772e-05
1.513948423e-05
2.755055658e-06
-9.059723895e-06
-1.988910063e-05
-2.940509665e-05
-3.741914263e-05
-4.365225518e-05
-4.815626457e-05
-5.115640302e-05
-5.272883857e-05
-5.31164704e-05
-5.244298681e-05
-5.076204036e-05
-4.825141242e-05
-4.520532684e-05
-4.180220591e-05
-3.833875706e-05
-3.525417609e-05
-3.268440043e-05
-3.063128395e-05
-2.892227771e-05
-2.728357406e-05
-2.552940658e-05
-2.363439555e-05
-2.169573371e-05
-1.979281814e-05
-1.80553117e-05
-1.654130523e-05
-1.51971239e-05
-1.394192673e-05
-1.287375337e-05
-1.197234449e-05
-1.117450057e-05
-1.052450428e-05
-1.001450041e-05
-9.643887738e-06
-9.382080517e-06
-9.219478304e-06
-9.156521209e-06
-9.214472168e-06
-9.374203354e-06
-9.621956553e-06
-9.99008399e-06
-1.046365224e-05
-1.103259669e-05
-1.170571007e-05
-1.245377589e-05
-1.32642521e-05
-1.416930034e-05
-1.520199099e-05
-1.629615516e-05
-1.74340473e-05
-1.860291468e-05
-1.980012622e-05
-2.105699282e-05
-2.234662237e-05
-2.377956465e-05
-2.56092369e-05
-2.782611946e-05
-2.998636366e-05
-3.170849167e-05
-3.318283836e-05
-3.453945928e-05
-3.608096062e-05
-3.792692138e-05
-3.938196262e-05
-4.006118385e-05
-4.00131464e-05
-4.048613061e-05
-4.320676984e-05
5.471122902e-05
0.0001542254156
0.0001511431811
0.0001482138733
0.0001479028407
)


101
(
0.0002029712427
0.0002140468448
0.0002267822771
0.0002258917434
0.0002192371095
0.0002105915513
0.0002009411318
0.0001908609169
0.000181010868
0.0001713792408
0.0001619698987
0.000152860195
0.0001439672267
0.0001353384242
0.0001271490775
0.0001192789774
0.0001116162825
0.0001042833921
9.693847593e-05
8.942056153e-05
8.175081426e-05
7.339391993e-05
6.426541833e-05
5.438459587e-05
4.366951446e-05
3.224699013e-05
2.040257826e-05
8.505774972e-06
-3.030889135e-06
-1.380137871e-05
-2.346542654e-05
-3.179538162e-05
-3.848450215e-05
-4.351252636e-05
-4.703023533e-05
-4.908900142e-05
-4.990898359e-05
-4.962532305e-05
-4.831298283e-05
-4.614606933e-05
-4.337536636e-05
-4.010847358e-05
-3.657969226e-05
-3.322378495e-05
-3.02525864e-05
-2.77960622e-05
-2.580748408e-05
-2.406346191e-05
-2.23326452e-05
-2.050379761e-05
-1.859820997e-05
-1.66604455e-05
-1.484299526e-05
-1.324099596e-05
-1.183078279e-05
-1.053184417e-05
-9.42103921e-06
-8.48981159e-06
-7.678520174e-06
-7.014906747e-06
-6.500827855e-06
-6.149265808e-06
-5.907428781e-06
-5.756437594e-06
-5.720674735e-06
-5.813183963e-06
-6.02203649e-06
-6.324792093e-06
-6.736487115e-06
-7.260539633e-06
-7.884190542e-06
-8.619613217e-06
-9.442708406e-06
-1.03305676e-05
-1.130494674e-05
-1.241190427e-05
-1.361384277e-05
-1.489037257e-05
-1.619631399e-05
-1.75205634e-05
-1.891140913e-05
-2.033790311e-05
-2.184790118e-05
-2.364769709e-05
-2.58463169e-05
-2.817778289e-05
-3.016654209e-05
-3.184897772e-05
-3.336870531e-05
-3.499374602e-05
-3.686509747e-05
-3.841895541e-05
-3.929428158e-05
-3.938857382e-05
-3.973380956e-05
-4.198293241e-05
5.589626494e-05
0.0001546769374
0.0001492507881
0.000143655599
0.0001426422121
)


101
(
0.0002005807618
0.0002115443684
0.0002241975148
0.000223390482
0.0002168392014
0.0002083007685
0.0001987748974
0.0001888341164
0.0001791338781
0.0001696668295
0.000160438308
0.0001515178076
0.0001428159795
0.0001343742178
0.0001263642365
0.0001186692283
0.0001111878534
0.0001040579937
9.69543935e-05
8.975035359e-05
8.249495278e-05
7.465422435e-05
6.614873686e-05
5.698696069e-05
4.704628551e-05
3.639485127e-05
2.52503898e-05
1.391785484e-05
2.765156856e-06
-7.822101617e-06
-1.7501846e-05
-2.601729665e-05
-3.304874843e-05
-3.85123355e-05
-4.248576276e-05
-4.499397134e-05
-4.622353909e-05
-4.63080824e-05
-4.533914127e-05
-4.349728021e-05
-4.101802108e-05
-3.796395411e-05
-3.449996213e-05
-3.101568607e-05
-2.774802113e-05
-2.491742248e-05
-2.259604152e-05
-2.065912245e-05
-1.889578149e-05
-1.712514224e-05
-1.528537289e-05
-1.337415788e-05
-1.152585852e-05
-9.855721196e-06
-8.385779365e-06
-7.052781081e-06
-5.912738016e-06
-4.958168027e-06
-4.140478956e-06
-3.481942312e-06
-2.973727618e-06
-2.637783703e-06
-2.424231624e-06
-2.304312055e-06
-2.307755559e-06
-2.443154138e-06
-2.702724296e-06
-3.070500557e-06
-3.554601784e-06
-4.150117837e-06
-4.846712549e-06
-5.66013874e-06
-6.567919405e-06
-7.54739724e-06
-8.610034472e-06
-9.805852014e-06
-1.111723939e-05
-1.253613504e-05
-1.40038597e-05
-1.54778637e-05
-1.701271656e-05
-1.859344107e-05
-2.023535087e-05
-2.207740548e-05
-2.426467518e-05
-2.671865952e-05
-2.895110788e-05
-3.085971626e-05
-3.257818167e-05
-3.431140134e-05
-3.622837995e-05
-3.788487257e-05
-3.891815961e-05
-3.916789369e-05
-3.941428856e-05
-4.121123273e-05
5.517939665e-05
0.0001519420218
0.0001451803766
0.0001393606496
0.0001392130116
)


101
(
0.0001981902377
0.0002090416567
0.0002216114151
0.0002208868453
0.0002144388824
0.0002060069185
0.0001966032038
0.0001867983766
0.0001772435357
0.0001679346298
0.0001588786051
0.0001501382688
0.00014161818
0.0001333532431
0.0001255113479
0.0001179785259
0.0001106617938
0.000103713084
9.682184566e-05
8.989093242e-05
8.299765227e-05
7.561356083e-05
6.76707412e-05
5.917320215e-05
4.996556227e-05
4.007212381e-05
2.965197263e-05
1.894454289e-05
8.267828737e-06
-2.020776142e-06
-1.158801764e-05
-2.015887439e-05
-2.741409026e-05
-3.32166116e-05
-3.757565082e-05
-4.049029077e-05
-4.210653669e-05
-4.254593425e-05
-4.19075583e-05
-4.037977491e-05
-3.819542195e-05
-3.539527985e-05
-3.20934655e-05
-2.861884752e-05
-2.5186458e-05
-2.205727635e-05
-1.94004355e-05
-1.720982856e-05
-1.534022514e-05
-1.358529857e-05
-1.181847102e-05
-9.978588803e-06
-8.150030043e-06
-6.448571358e-06
-4.936481225e-06
-3.572419774e-06
-2.410172955e-06
-1.440549481e-06
-6.205482613e-07
2.97808204e-08
5.232373686e-07
8.378233857e-07
1.015540734e-06
1.085767785e-06
1.035843388e-06
8.528727883e-07
5.3354146e-07
9.116694153e-08
-4.788671752e-07
-1.161248278e-06
-1.951097656e-06
-2.862094938e-06
-3.871264177e-06
-4.959415095e-06
-6.126591834e-06
-7.422241819e-06
-8.846920429e-06
-1.041264098e-05
-1.205786558e-05
-1.371129388e-05
-1.54099018e-05
-1.714796327e-05
-1.895653181e-05
-2.090862535e-05
-2.311775359e-05
-2.566500098e-05
-2.812088824e-05
-3.025537179e-05
-3.218770301e-05
-3.408064929e-05
-3.605604067e-05
-3.7825793e-05
-3.901125404e-05
-3.940256798e-05
-3.960252157e-05
-4.106518693e-05
5.306491305e-05
0.0001472641744
0.0001401753554
0.000133880837
0.0001334839323
)


101
(
0.000195799669
0.0002065387156
0.0002190239881
0.0002183808608
0.0002120362142
0.0002037101073
0.0001944262025
0.0001847537931
0.000175339786
0.0001661824862
0.0001572905039
0.0001487208422
0.0001403725202
0.0001322737646
0.000124588292
0.0001172047761
0.000110036829
0.0001032487358
9.654434602e-05
8.984925309e-05
8.326804201e-05
7.628283998e-05
6.884251501e-05
6.095322941e-05
5.243165139e-05
4.327082477e-05
3.358295198e-05
2.354411467e-05
1.341939937e-05
3.533089037e-06
-5.800802516e-06
-1.430230118e-05
-2.166400706e-05
-2.77050557e-05
-3.237344476e-05