/*--------------------------------*- C++ -*----------------------------------*\
| =========                 |                                                 |
| \\      /  F ield         | OpenFOAM: The Open Source CFD Toolbox           |
|  \\    /   O peration     | Version:  2.3.1                                 |
|   \\  /    A nd           | Web:      www.OpenFOAM.org                      |
|    \\/     M anipulation  |                                                 |
\*---------------------------------------------------------------------------*/
FoamFile
{
    version     2.0;
    format      ascii;
    class       dictionary;
    location    "constant";
    object      GRPSI53;
}
// * * * * * * * * * * * * * * * * * * * * * * * * * * * * * * * * * * * * * //

GRPSI53_table
101
(

101
(
-1.458815128e-11
-1.049853176e-06
-6.705479217e-06
-2.073699056e-05
-4.257455586e-05
-6.927444712e-05
-9.836350559e-05
-0.0001293500033
-0.0001592225284
-0.0001873183936
-0.0002125817869
-0.0002342955614
-0.0002518841797
-0.0002647923781
-0.0002728372659
-0.000276016448
-0.0002740864312
-0.0002666649694
-0.0002566197042
-0.0002391481817
-0.0002205495947
-0.0001991716339
-0.0001721666826
-0.000144158441
-0.0001153138159
-8.543691729e-05
-5.509708928e-05
-2.500013484e-05
5.231612771e-06
3.437970245e-05
6.260081975e-05
8.925494301e-05
0.0001131501287
0.0001412018408
0.0001645924539
0.0001869929338
0.0002090056131
0.0002294254714
0.0002471165944
0.0002657407635
0.0002833569219
0.0002986317648
0.0003140362856
0.0003284681526
0.0003415467486
0.0003543776266
0.0003661790317
0.0003775768662
0.0003880939783
0.0003981058911
0.0004073033666
0.000415921792
0.0004239450055
0.0004313778726
0.0004382404822
0.0004445689842
0.0004504654241
0.0004557720077
0.0004606551207
0.0004650927588
0.0004691182689
0.0004727626538
0.0004760461436
0.0004789841808
0.0004816309971
0.0004839759702
0.0004860821591
0.0004879676279
0.0004896071898
0.0004911177079
0.0004924688864
0.0004936950898
0.0004947503197
0.0004958535668
0.0004974599249
0.0004982205846
0.0004981828704
0.0004986373068
0.0004994261979
0.0005003741029
0.0005014176012
0.0005024832204
0.0005038201269
0.0005056468643
0.0005061529751
0.0005069521843
0.000508330375
0.0005099334046
0.000511737229
0.0005143432228
0.0005149460808
0.000516419361
0.0005186655515
0.0005198903457
0.0005216599646
0.0005222880581
0.000523669025
0.0005342178404
0.0005446444807
0.0005540552522
0.0005634697101
)


101
(
-1.458815125e-11
-1.034950415e-06
-6.645291334e-06
-2.058551283e-05
-4.230919542e-05
-6.891167352e-05
-9.793147822e-05
-0.0001288479199
-0.000158741407
-0.0001868948732
-0.000212281674
-0.0002341840731
-0.0002520316877
-0.0002652754084
-0.0002737192258
-0.0002773494121
-0.0002759430467
-0.0002691364445
-0.0002594812001
-0.0002429224461
-0.0002246469815
-0.0002037397999
-0.0001776250562
-0.0001499954689
-0.0001214391899
-9.187517613e-05
-6.177464857e-05
-3.179447356e-05
-1.718622094e-06
2.747423887e-05
5.575635921e-05
8.259144169e-05
0.0001069307766
0.0001341496778
0.000158154637
0.0001808208092
0.0002028635259
0.0002235257792
0.0002417983601
0.000260302885
0.0002780378529
0.0002938365036
0.0003093196856
0.0003239657875
0.0003374096703
0.0003503876333
0.0003624656506
0.0003740302924
0.0003848051932
0.0003950139257
0.0004044749433
0.0004133239633
0.0004215736152
0.0004292312511
0.0004363179854
0.0004428658618
0.0004489529444
0.0004544879155
0.0004595659934
0.0004641953716
0.0004684009396
0.000472213948
0.0004756562992
0.0004787410778
0.0004815129447
0.0004839779091
0.0004861843315
0.0004881540754
0.000489874943
0.0004914322544
0.0004928232506
0.000494074779
0.0004951574981
0.0004962257211
0.0004976274812
0.0004985230799
0.0004987446443
0.0004991064083
0.0004997009959
0.0005004873232
0.0005013915371
0.0005023281101
0.0005034560568
0.0005049894701
0.0005057591249
0.0005064542721
0.0005075024563
0.0005088725993
0.0005104139886
0.0005125218341
0.0005135928464
0.0005147762303
0.0005165788619
0.0005179932037
0.0005193673463
0.0005203517601
0.0005217263276
0.0005319465736
0.0005420224766
0.000550902461
0.0005597786358
)


101
(
-1.458815125e-11
-1.005177422e-06
-6.524854689e-06
-2.028221605e-05
-4.177724613e-05
-6.818295335e-05
-9.706186541e-05
-0.000127836735
-0.0001577649685
-0.0001860296504
-0.0002116564066
-0.000233928499
-0.0002522852962
-0.0002661896413
-0.000275421838
-0.0002799455913
-0.0002795742245
-0.00027398086
-0.0002651485944
-0.0002503110092
-0.0002328012303
-0.0002128140449
-0.0001883712499
-0.00016161911
-0.0001336830902
-0.0001047436047
-7.514279184e-05
-4.543764702e-05
-1.566730845e-05
1.355209317e-05
4.194477963e-05
6.910486038e-05
9.423218483e-05
0.0001202492344
0.000145016931
0.0001682608749
0.0001904809235
0.0002115909241
0.000230873485
0.0002493990376
0.0002673387309
0.0002839782512
0.0002997570074
0.000314808131
0.0003288977672
0.0003422443596
0.0003548330331
0.0003667664257
0.0003780198116
0.0003886365281
0.0003985927503
0.0004079059017
0.0004166110393
0.0004247238913
0.0004322639436
0.0004392541995
0.0004457409806
0.0004517212434
0.0004572058144
0.0004622305745
0.0004668117535
0.0004709784079
0.0004747543141
0.0004781538084
0.0004812087384
0.0004839399081
0.0004863763287
0.0004885464508
0.0004904543918
0.0004921418911
0.000493640243
0.0004949664791
0.0004961194385
0.0004971627324
0.0004982823921
0.0004993037929
0.0004999193248
0.0005002718048
0.0005006032738
0.0005010824422
0.0005017131264
0.0005024093654
0.0005031805815
0.0005041771966
0.0005051299905
0.0005057906638
0.0005063633256
0.0005072418425
0.0005083482776
0.0005097189428
0.0005110748457
0.0005120926742
0.0005131647282
0.0005145758374
0.0005156439565
0.0005168922847
0.0005183123609
0.0005280625668
0.0005376532225
0.0005459392308
0.0005542014623
)


101
(
-1.458815125e-11
-9.754713904e-07
-6.404302335e-06
-1.997824322e-05
-4.124283299e-05
-6.744789198e-05
-9.618113445e-05
-0.0001268114663
-0.0001567603841
-0.0001851280121
-0.0002109811856
-0.0002336078563
-0.0002524562757
-0.0002670005173
-0.0002770019308
-0.0002824021819
-0.0002830417425
-0.0002786293462
-0.0002706951976
-0.0002573995326
-0.0002408490493
-0.0002217670236
-0.0001988047745
-0.0001731144442
-0.0001459003773
-0.0001176000308
-8.853854798e-05
-5.918646845e-05
-2.972640853e-05
-5.908366288e-07
2.787055197e-05
5.528454821e-05
8.102552071e-05
0.0001065622988
0.0001314747254
0.0001551605858
0.000177768656
0.0001992925877
0.0002193246847
0.0002382419765
0.0002564079921
0.0002735858721
0.0002898067021
0.0003052445758
0.0003198471902
0.000333646564
0.000346697268
0.0003590467252
0.0003707325588
0.0003817702163
0.0003921750009
0.0004019466692
0.0004111067508
0.0004196747343
0.00042767024
0.0004351132888
0.0004420253795
0.0004484392941
0.0004543514047
0.0004597938385
0.0004647789829
0.0004693308328
0.0004734734209
0.000477223841
0.0004806106496
0.000483654091
0.0004863753268
0.0004887995496
0.0004909425773
0.0004928280176
0.0004944955307
0.0004959560314
0.0004972238279
0.0004983270495
0.0004993660173
0.0005003599886
0.000501159045
0.0005016840562
0.0005019840755
0.0005022513187
0.0005026301799
0.0005031108746
0.0005036330967
0.0005042331311
0.0005049309621
0.0005055923219
0.0005060205115
0.0005064555831
0.0005071549404
0.0005080883287
0.0005090623464
0.0005100979629
0.0005108815382
0.0005119087158
0.0005130058076
0.0005140550119
0.0005153101717
0.0005249269527
0.0005343961285
0.0005427091491
0.0005510119443
)


101
(
-1.458815261e-11
-9.458389883e-07
-6.283647581e-06
-1.967361051e-05
-4.07059617e-05
-6.670650938e-05
-9.528928675e-05
-0.0001257720257
-0.0001557281394
-0.0001841898962
-0.0002102562752
-0.0002332224323
-0.0002525450323
-0.0002677086906
-0.0002784598211
-0.0002847190855
-0.000286346559
-0.0002830842184
-0.0002761038034
-0.0002642217763
-0.0002487489544
-0.0002305990847
-0.0002089752935
-0.0001844401507
-0.0001580613244
-0.0001304452335
-0.0001019628068
-7.303266295e-05
-4.391373136e-05
-1.494852886e-05
1.35101196e-05
4.110688113e-05
6.73248377e-05
9.277734924e-05
0.0001176804123
0.000141602809
0.0001645818749
0.0001865062832
0.0002071347757
0.000226562952
0.0002450608863
0.0002626554272
0.0002793084915
0.0002951367545
0.0003101785706
0.0003244274722
0.0003379263351
0.000350700499
0.0003628002738
0.0003742480354
0.0003850737368
0.0003952821268
0.000404884864
0.0004138953819
0.0004223333302
0.0004302228778
0.0004375699877
0.0004444161655
0.0004507568037
0.0004566246735
0.0004620309225
0.0004669886366
0.0004715251038
0.0004756532668
0.0004793993862
0.0004827847762
0.0004858308058
0.0004885551015
0.0004909806138
0.000493116335
0.0004950072586
0.000496664247
0.0004981056257
0.0004993475058
0.000500440612
0.0005014389834
0.0005023107987
0.0005029933171
0.0005034167305
0.0005036435147
0.000503843107
0.0005041214254
0.000504461965
0.000504816326
0.0005052110204
0.0005056646893
0.0005060280715
0.0005062274564
0.0005065056447
0.0005070519105
0.0005076593512
0.0005083969559
0.0005090852351
0.0005097891361
0.0005107031116
0.0005115710204
0.0005125193524
0.0005222531304
0.000531786505
0.0005398413453
0.0005478323208
)


101
(
-1.458815128e-11
-9.162876251e-07
-6.162901147e-06
-1.936832881e-05
-4.016663986e-05
-6.595880571e-05
-9.438628396e-05
-0.0001247182739
-0.0001546686239
-0.0001832152125
-0.000209481817
-0.0002327723995
-0.0002525518138
-0.0002683146113
-0.000279795677
-0.0002868959863
-0.0002894891079
-0.0002873471144
-0.0002813599839
-0.0002708003714
-0.0002564737564
-0.0002393004675
-0.0002189176757
-0.0001955755271
-0.0001701321998
-0.0001432655731
-0.0001154089805
-8.696300385e-05
-5.822911598e-05
-2.950780209e-05
-1.131968964e-06
2.656522611e-05
5.314079596e-05
7.870756123e-05
0.0001036264875
0.0001277173961
0.0001509256043
0.0001731900704
0.0001943156729
0.0002142525717
0.0002331586823
0.0002511473697
0.0002682027703
0.0002844111918
0.0002998463803
0.0003145093606
0.0003284317378
0.0003416170545
0.00035411134
0.0003659451791
0.0003771568324
0.0003877635307
0.0003977753368
0.0004072001761
0.0004160483768
0.0004243476005
0.0004321075274
0.0004393626824
0.0004461121435
0.0004523843472
0.0004581908014
0.00046354263
0.0004684649314
0.0004729731245
0.0004770845942
0.0004808173525
0.0004841998186
0.0004872478189
0.0004899826707
0.00049241054
0.0004945610774
0.0004964550119
0.0004981145903
0.0004995577282
0.0005008077184
0.0005019041356
0.0005028544663
0.0005036715665
0.0005042772296
0.000504629288
0.0005048039499
0.0005049487777
0.0005051568337
0.0005053741841
0.0005055766355
0.0005058070327
0.0005060198244
0.0005061233406
0.0005061159786
0.0005063112823
0.0005066069822
0.0005070193951
0.0005074706662
0.0005079123241
0.0005085786558
0.0005093485472
0.0005101466606
0.0005197205228
0.0005290168204
0.0005365257828
0.0005439498478
)


101
(
-1.458815125e-11
-8.86822927e-07
-6.042078055e-06
-1.906242094e-05
-3.962489851e-05
-6.520481755e-05
-9.347213968e-05
-0.0001236501413
-0.0001535822841
-0.0001822040107
-0.0002086580377
-0.0002322580282
-0.0002524769544
-0.0002688187525
-0.0002810097035
-0.000288932609
-0.0002924694781
-0.0002914191172
-0.0002864513711
-0.0002771494354
-0.000264005314
-0.0002478557484
-0.0002286528976
-0.0002065100902
-0.0001820803947
-0.0001560360705
-0.0001288605257
-0.0001009583879
-7.265952817e-05
-4.42483206e-05
-1.603385385e-05
1.167285676e-05
3.849192522e-05
6.424840823e-05
8.924214916e-05
0.0001134430049
0.0001368189294
0.0001593386269
0.0001808536425
0.0002012543461
0.0002205943055
0.0002389845333
0.000256423187
0.0002729909211
0.0002887767421
0.000303799026
0.0003180951379
0.0003316556294
0.0003445105827
0.0003566867168
0.0003682271644
0.0003791642655
0.0003895107498
0.0003992756722
0.0004084645516
0.000417097976
0.0004251853203
0.0004327692132
0.0004398496796
0.0004464542624
0.0004525905639
0.0004582709829
0.0004635150693
0.0004683405836
0.0004727674739
0.00047680531
0.0004804887587
0.0004838263642
0.0004868464283
0.0004895604751
0.0004919775097
0.0004941257959
0.000496025669
0.0004977047263
0.0004991729908
0.0005004588639
0.0005015628322
0.0005025351817
0.0005033398852
0.0005039274238
0.0005042744664
0.0005044642852
0.0005046382283
0.0005048337956
0.000504989392
0.000505135222
0.0005052565172
0.0005053197731
0.0005052201939
0.0005051786355
0.0005052366251
0.0005054409399
0.0005056783313
0.0005059083846
0.000506377064
0.0005070372778
0.0005077315974
0.0005166946861
0.000525305788
0.0005320302864
0.0005387128991
)


101
(
-1.458815125e-11
-8.574523535e-07
-5.92119279e-06
-1.875590398e-05
-3.90807557e-05
-6.444455788e-05
-9.254683012e-05
-0.0001225675112
-0.0001524694824
-0.000181156312
-0.0002077850811
-0.0002316795181
-0.0002523207177
-0.0002692215116
-0.0002821020458
-0.0002908286321
-0.000295287593
-0.0002953009487
-0.0002913678123
-0.0002832768104
-0.0002713313884
-0.0002562488712
-0.0002381917006
-0.0002172397863
-0.0001938795107
-0.0001687289309
-0.0001422960774
-0.0001149983823
-8.71883585e-05
-5.914959541e-05
-3.117327138e-05
-3.546980361e-06
2.340187864e-05
4.934592598e-05
7.446408421e-05
9.876650783e-05
0.0001222649015
0.0001449642664
0.0001667622244
0.0001875438188
0.0002072909987
0.0002260702324
0.0002438718495
0.0002607696159
0.0002768559734
0.0002921645314
0.0003067493484
0.0003206027523
0.0003337383543
0.0003461731251
0.0003579534329
0.0003691111871
0.0003796688449
0.0003896519802
0.0003990562985
0.0004078916687
0.0004161755812
0.0004239539121
0.0004312237311
0.0004380230217
0.0004443614758
0.0004502486676
0.0004557113234
0.0004607474498
0.0004653876187
0.0004696335883
0.0004735219772
0.0004770745107
0.0004803166893
0.0004832772492
0.0004859412564
0.0004883386792
0.0004904632848
0.0004923697404
0.0004940808048
0.0004956056817
0.0004969369173
0.0004981220422
0.0004991573571
0.0005000354142
0.0005006870239
0.0005011266161
0.0005014293914
0.0005017386234
0.0005020009032
0.0005022475678
0.0005024307319
0.0005025868687
0.0005025912208
0.0005025299506
0.0005025176316
0.0005026722616
0.0005028306374
0.0005029874517
0.0005033706913
0.0005039919859
0.0005048436716
0.0005128632478
0.0005204826977
0.0005259626408
0.0005313180168
)


101
(
-1.458815397e-11
-8.281847322e-07
-5.800261055e-06
-1.844880098e-05
-3.853424111e-05
-6.3678058e-05
-9.161035263e-05
-0.0001214702902
-0.0001513305909
-0.000180072213
-0.0002068631333
-0.0002310371185
-0.000252083408
-0.0002695233204
-0.0002830729353
-0.0002925838248
-0.000297943402
-0.0002989932513
-0.0002961012137
-0.0002891866598
-0.0002784435301
-0.0002644643344
-0.0002475379743
-0.0002277644918
-0.0002055108296
-0.0001813187997
-0.0001556933767
-0.0001290625073
-0.0001017979798
-7.419125982e-05
-4.652435997e-05
-1.90647327e-05
7.904049364e-06
3.398393882e-05
5.92429342e-05
8.365799508e-05
0.0001072547195
0.0001300697338
0.0001520479312
0.0001731003148
0.0001931782131
0.0002122991431
0.0002304206742
0.0002475988112
0.0002639188358
0.0002794223628
0.000294182162
0.0003082010801
0.0003214958138
0.0003340728295
0.0003459699726
0.0003572095407
0.0003678327754
0.0003778795156
0.0003873497351
0.0003962561553
0.0004045978712
0.0004124439371
0.0004197692907
0.0004266214363
0.0004330295178
0.0004389962371
0.0004445609088
0.0004497121718
0.000454476734
0.000458858939
0.0004628786343
0.0004665864721
0.0004699945847
0.0004731367728
0.0004760059538
0.0004786144588
0.000480971235
0.0004831049692
0.0004850512514
0.0004868180954
0.000488416384
0.0004898623907
0.0004911495861
0.0004923267968
0.0004933397137
0.0004941308749
0.0004947313088
0.0004952503933
0.0004957506343
0.0004962347044
0.0004966141591
0.0004969930534
0.0004972475296
0.0004973870171
0.0004975027437
0.0004977625139
0.0004980095841
0.0004982660168
0.0004987142451
0.0004995399661
0.000500748144
0.0005075589185
0.0005140293414
0.000518446144
0.0005226110483
)


101
(
-1.458815397e-11
-7.990264509e-07
-5.67929732e-06
-1.814112664e-05
-3.798536516e-05
-6.290531546e-05
-9.066265479e-05
-0.0001203583109
-0.0001501658693
-0.0001789517461
-0.000205892262
-0.000230330932
-0.0002517651534
-0.0002697243768
-0.000283922385
-0.0002941977492
-0.0003004365097
-0.000302496258
-0.0003006445627
-0.0002948798982
-0.0002853349589
-0.000272487446
-0.0002566903618
-0.0002380840751
-0.0002169602179
-0.0001937820264
-0.0001690286326
-0.0001431287222
-0.0001164685048
-8.935239568e-05
-6.206149564e-05
-3.484875776e-05
-7.963397128e-06
1.817194527e-05
4.354638744e-05
6.807360717e-05
9.175341817e-05
0.0001146325503
0.0001366978767
0.000157898657
0.0001781912571
0.0001975653784
0.0002159299276
0.0002333143127
0.0002497860174
0.0002653854009
0.0002802054611
0.0002942674969
0.0003076051864
0.000320212079
0.0003321145997
0.0003433289447
0.000353906222
0.0003638929578
0.000373335925
0.0003822224978
0.0003905310132
0.0003983548698
0.0004056643615
0.0004125001727
0.0004189095718
0.0004249034094
0.0004304962694
0.000435712641
0.0004405745908
0.0004450881917
0.0004492268518
0.0004530597942
0.0004565933928
0.0004598733709
0.0004629209556
0.0004657269186
0.0004683067963
0.000470669594
0.0004728398159
0.0004748573852
0.0004767238266
0.0004784369359
0.0004799950006
0.0004814471049
0.0004827997562
0.000483956232
0.000484936072
0.0004857406587
0.0004865282912
0.0004873133865
0.0004879885929
0.0004886414122
0.000489219851
0.0004896523916
0.0004900254384
0.0004904953214
0.0004909729552
0.0004914483767
0.0004920759148
0.0004932908553
0.0004950204246
0.0005005977173
0.0005059907473
0.0005098976469
0.0005139845166
)


101
(
-1.458804597e-11
-7.699860045e-07
-5.558318165e-06
-1.783290032e-05
-3.743414685e-05
-6.212633996e-05
-8.970370051e-05
-0.0001192314254
-0.000148975574
-0.0001777950029
-0.0002048725735
-0.0002295611111
-0.0002513661317
-0.000269824921
-0.0002846504605
-0.0002956700654
-0.0003027665308
-0.0003058100491
-0.0003049924262
-0.0003003554248
-0.0002919998761
-0.0002803049793
-0.0002656437316
-0.0002481973668
-0.0002282171614
-0.0002060968708
-0.0001822759835
-0.0001571718813
-0.000131177769
-0.0001046120827
-7.776214954e-05
-5.087323512e-05
-2.416898491e-05
1.923580481e-06
2.734892691e-05
5.195895538e-05
7.570331567e-05
9.860837445e-05
0.0001206834972
0.0001419160833
0.0001622880788
0.0001817907819
0.0002003007165
0.0002178089972
0.0002343582387
0.0002499790455
0.0002647808364
0.0002788080642
0.0002921091988
0.000304674406
0.0003165309917
0.000327689748
0.0003381903976
0.0003480921063
0.0003574707183
0.0003662828319
0.0003745589882
0.0003823408003
0.0003896447038
0.0003964697613
0.000402871044
0.0004088930093
0.0004145277325
0.0004198162955
0.0004247690679
0.0004294078436
0.000433707584
0.0004376743654
0.0004413421335
0.0004447675847
0.0004479839084
0.0004509894261
0.0004537716038
0.0004563556411
0.0004587558422
0.0004610193025
0.0004631292449
0.0004650941698
0.0004669448117
0.000468657424
0.0004702736898
0.0004717722644
0.0004731091667
0.0004742499001
0.000475323621
0.0004764186987
0.0004774269729
0.000478343368
0.0004792294437
0.0004800116271
0.0004806787433
0.0004814102156
0.0004821801773
0.0004829257362
0.0004837780378
0.0004854016378
0.0004877796868
0.0004925198062
0.0004971737175
0.0005007313673
0.0005045471992
)


101
(
-1.458768531e-11
-7.41073831e-07
-5.437346248e-06
-1.752416019e-05
-3.688064368e-05
-6.134120344e-05
-8.873354016e-05
-0.0001180895976
-0.0001477600708
-0.0001766022489
-0.0002038043584
-0.0002287280237
-0.0002508867675
-0.0002698254664
-0.0002852575491
-0.0002970007914
-0.000304933421
-0.0003089350891
-0.0003091407663
-0.0003056118836
-0.0002984336593
-0.0002879043974
-0.0002743890159
-0.0002580996516
-0.0002392703548
-0.0002182402442
-0.0001954053002
-0.0001711610757
-0.0001458983863
-0.0001199461403
-9.360269606e-05
-6.711515215e-05
-4.068991428e-05
-1.474703553e-05
1.063675382e-05
3.52681705e-05
5.904273897e-05
8.194459607e-05
0.0001039744678
0.0001251419954
0.0001454712153
0.0001649792006
0.0001835392645
0.000201106294
0.0002176945601
0.0002333140117
0.0002480721151
0.0002620328276
0.0002752670828
0.0002877738462
0.0002995877143
0.0003107146742
0.0003211780525
0.000331034382
0.0003403494536
0.0003491296242
0.0003574073506
0.0003652083985
0.0003725485183
0.0003794233444
0.000385863382
0.0003919366461
0.0003976499412
0.0004030362727
0.0004081057074
0.0004128579494
0.0004173398496
0.0004214935572
0.0004253409661
0.0004289369569
0.000432316734
0.0004355026276
0.0004385070624
0.0004413246534
0.0004439571657
0.0004464289706
0.0004487607612
0.0004509766356
0.000453075356
0.0004550458903
0.000456906665
0.000458686524
0.0004603354733
0.0004618156609
0.0004631592779
0.0004645070456
0.0004658369244
0.0004670299153
0.0004681727223
0.0004693149001
0.0004702814244
0.0004712640629
0.0004723101232
0.0004733579392
0.000474466953
0.0004764567531
0.0004793842892
0.0004836701062
0.0004879158564
0.0004912350617
0.000494624097
)


101
(
-1.458742727e-11
-7.122979543e-07
-5.316399608e-06
-1.721492585e-05
-3.632487323e-05
-6.054991065e-05
-8.775212553e-05
-0.0001169326547
-0.0001465195315
-0.0001753735641
-0.0002026876774
-0.0002278317722
-0.0002503272114
-0.0002697262075
-0.0002857437147
-0.0002981896064
-0.0003069368094
-0.0003118716046
-0.0003130863106
-0.0003106470189
-0.000304631709
-0.0002952742693
-0.000282914474
-0.0002677829882
-0.0002501090596
-0.0002301925881
-0.0002083887919
-0.0001850653633
-0.0001606015237
-0.0001353298699
-0.0001095605236
-8.355059252e-05
-5.750034543e-05
-3.181729842e-05
-6.583047623e-06
1.798468564e-05
4.173733562e-05
6.460832003e-05
8.656241832e-05
0.0001076075392
0.000127810258
0.0001472292459
0.0001657615462
0.0001833479774
0.0001999735964
0.0002156164562
0.0002303596294
0.0002442746252
0.0002574577881
0.000269924898
0.000281734238
0.0002928825093
0.0003033705268
0.0003132482306
0.0003225711336
0.0003314070907
0.000339722664
0.0003476020923
0.0003550167738
0.0003620091075
0.0003685553971
0.0003747380577
0.0003805711684
0.0003860806575
0.0003912878582
0.0003961911017
0.0004008445151
0.000405211995
0.0004092909839
0.0004130861378
0.0004166523683
0.0004200156255
0.0004232283754
0.0004262771927
0.0004291482868
0.0004318397522
0.0004343793112
0.0004368140412
0.0004391391415
0.0004413484798
0.0004434505941
0.0004454570013
0.0004473841161
0.0004491812774
0.0004507854392
0.0004523414319
0.0004539440316
0.0004554340397
0.0004568220396
0.0004582282569
0.0004595048653
0.0004607351186
0.0004620181347
0.0004633425056
0.000464724599
0.0004670732226
0.0004704682778
0.0004744015473
0.0004783581101
0.0004817341951
0.0004852289596
)


101
(
-1.458743273e-11
-6.836687512e-07
-5.195501186e-06
-1.690523184e-05
-3.576688335e-05
-5.975251485e-05
-8.675947684e-05
-0.0001157605118
-0.0001452542084
-0.000174109168
-0.0002015227528
-0.000226872638
-0.0002496878077
-0.0002695275549
-0.0002861092631
-0.0002992364599
-0.0003087765284
-0.0003146198461
-0.0003168268839
-0.0003154587588
-0.0003105901929
-0.0003024051154
-0.0002912089564
-0.0002772393616
-0.0002607256513
-0.0002419410209
-0.0002212056261
-0.0001988578892
-0.0001752585715
-0.0001507366707
-0.0001256112651
-0.0001001528826
-7.456489345e-05
-4.924467554e-05
-2.426914766e-05
1.380863543e-07
2.380180075e-05
4.66094419e-05
6.8476617e-05
8.938823513e-05
0.0001094306798
0.0001287063434
0.0001471548939
0.0001647349629
0.0001814106849
0.0001971223113
0.0002119180219
0.0002258576191
0.0002390449173
0.0002515264013
0.0002633811679
0.0002746046124
0.0002851814115
0.0002951576829
0.0003045735357
0.0003135054094
0.0003219260964
0.0003299172777
0.0003374730831
0.0003446253793
0.0003513361428
0.0003576791011
0.0003636878486
0.0003693559525
0.0003747093756
0.0003798015386
0.0003846320023
0.000389222803
0.0003935394133
0.0003975627535
0.000401348488
0.0004049101777
0.0004083095673
0.0004115678313
0.0004146759146
0.0004176167653
0.0004203647539
0.0004229987195
0.0004255418987
0.0004279690729
0.0004303011446
0.0004325249099
0.0004346803411
0.0004367465509
0.0004386451319
0.0004404154072
0.0004422089377
0.0004439739395
0.0004456116371
0.0004472198966
0.0004487777161
0.0004502405759
0.000451791407
0.0004533430226
0.0004549850843
0.0004576483613
0.000461485093
0.0004653217936
0.0004691745643
0.0004726312382
0.0004756919808
)


101
(
-1.458743813e-11
-6.551972622e-07
-5.074671542e-06
-1.659510231e-05
-3.5206699e-05
-5.894903006e-05
-8.575555094e-05
-0.0001145729977
-0.0001439642139
-0.00017280915
-0.0002003096761
-0.0002258507309
-0.0002489687287
-0.0002692297706
-0.000286354395
-0.0003001412418
-0.0003104521271
-0.0003171795527
-0.0003203599618
-0.0003200439704
-0.0003163046945
-0.0003092880747
-0.0002992621358
-0.0002864603275
-0.000271112233
-0.0002534741861
-0.0002338379695
-0.0002125141456
-0.0001898410292
-0.0001661377643
-0.0001417275612
-0.0001168927935
-9.18441131e-05
-6.697581198e-05
-4.235713048e-05
-1.82062263e-05
5.294544291e-06
2.80015381e-05
4.978185448e-05
7.058119427e-05
9.047503142e-05
0.0001095983518
0.0001279385705
0.0001454914165
0.0001622211448
0.0001780414156
0.0001929636253
0.0002070110459
0.0002202858909
0.0002328581452
0.0002448020284
0.0002561395379
0.0002668683535
0.0002770052688
0.0002865749189
0.0002956455634
0.0003042311776
0.0003123773522
0.0003201196097
0.0003274680436
0.0003344049567
0.0003409462549
0.0003471552056
0.0003530113338
0.0003585553415
0.000363840868
0.0003688626573
0.0003736642833
0.0003781978498
0.0003824763039
0.0003865058323
0.0003902937233
0.0003938901511
0.0003973340516
0.0004006520553
0.0004038407591
0.0004068336801
0.000409693151
0.0004124187911
0.0004150615368
0.0004176129374
0.0004200545843
0.0004224210737
0.0004247111671
0.0004268819699
0.0004288999956
0.0004308661479
0.0004328562463
0.0004347518511
0.0004365665324
0.000438367217
0.000440048677
0.0004418486292
0.0004436391606
0.0004455017833
0.000448471508
0.0004527669644
0.0004566063234
0.0004604537523
0.0004640655178
0.0004677989929
)


101
(
-1.458742727e-11
-6.268932433e-07
-4.953929123e-06
-1.628455202e-05
-3.464432349e-05
-5.813943269e-05
-8.474024602e-05
-0.0001133698592
-0.0001426495293
-0.0001714734762
-0.0001990483991
-0.0002247659937
-0.0002481699637
-0.0002688329365
-0.0002864791569
-0.0003009037194
-0.0003119629799
-0.0003195500427
-0.0003236831764
-0.0003243988148
-0.0003217702623
-0.000315914635
-0.0003070632649
-0.0002954361577
-0.0002812600392
-0.0002647810239
-0.0002462690797
-0.0002260104625
-0.0002043209304
-0.000181503783
-0.0001578784319
-0.000133734859
-0.0001092924886
-8.494928143e-05
-6.076894022e-05
-3.695960525e-05
-1.369542519e-05
8.869276802e-06
3.056286838e-05
5.128305904e-05
7.107565103e-05
9.007876717e-05
0.0001083138618
0.0001258272414
0.0001426082429
0.0001585599321
0.0001736572604
0.0001878796567
0.0002013251198
0.0002140546735
0.0002261351634
0.00023762282
0.0002485472558
0.00025888673
0.0002686692575
0.0002779486243
0.0002867321705
0.0002950749101
0.000303019437
0.0003105930678
0.0003177781929
0.0003245577885
0.0003309762646
0.0003370433859
0.0003428188038
0.0003482923883
0.0003535210171
0.0003585212741
0.0003632870696
0.0003678175953
0.0003720897235
0.0003761236001
0.0003799375586
0.0003835744194
0.0003870823188
0.0003904900775
0.0003937595724
0.0003968491649
0.0003997884748
0.0004026370511
0.0004053808583
0.000408036665
0.0004106317952
0.0004131281533
0.0004155372075
0.0004178076896
0.0004199815957
0.0004221590427
0.0004243108741
0.0004263590926
0.000428365546
0.0004302987668
0.0004322818273
0.0004343295947
0.0004364032012
0.0004396662805
0.0004443144151
0.0004482248848
0.0004521360822
0.0004559598225
0.000460087424
)


101
(
-1.458742727e-11
-5.98769321e-07
-4.83332172e-06
-1.59736465e-05
-3.407986603e-05
-5.732387436e-05
-8.371371302e-05
-0.0001121511835
-0.0001413105403
-0.0001701026182
-0.0001977394639
-0.0002236190606
-0.0002472922436
-0.0002683379244
-0.0002864844341
-0.0003015245352
-0.0003133094855
-0.0003217317148
-0.0003267959247
-0.000328521853
-0.0003269844518
-0.0003222784777
-0.0003146024205
-0.0003041562819
-0.0002911592402
-0.0002758497845
-0.0002584823356
-0.0002393237139
-0.0002186693948
-0.0001968025679
-0.0001740278521
-0.000150636351
-0.0001268581277
-0.0001030956612
-7.941624575e-05
-5.601819551e-05
-3.305907469e-05
-1.068515259e-05
1.091414128e-05
3.159114368e-05
5.134335704e-05
7.028077614e-05
8.844139288e-05
0.0001059182134
0.0001227425343
0.0001388263946
0.0001541202914
0.0001685694274
0.0001822406226
0.0001951782673
0.0002074516917
0.000219126868
0.0002302622719
0.0002408341151
0.0002508627128
0.0002603926066
0.0002694104251
0.0002779855174
0.0002861473717
0.0002939525389
0.0003013813318
0.0003084248976
0.0003150753405
0.0003213803166
0.0003273937715
0.0003330764351
0.0003385197803
0.0003437295912
0.0003487247771
0.0003534821424
0.0003579964005
0.0003622888624
0.0003663386799
0.0003701975372
0.0003739078612
0.0003775043492
0.000380999964
0.0003843486652
0.0003875429016
0.0003905976716
0.0003935313841
0.0003964110536
0.0003992190472
0.0004019345425
0.0004045812941
0.0004071032448
0.000409513684
0.0004118849827
0.0004142742644
0.0004165719
0.0004187616305
0.0004209733593
0.0004231433603
0.0004254257338
0.0004277445581
0.0004312641996
0.000436194848
0.0004402693566
0.0004443138027
0.0004482948715
0.0004519810039
)


101
(
-1.458743813e-11
-5.708378268e-07
-4.71286299e-06
-1.566242324e-05
-3.351337496e-05
-5.650240315e-05
-8.267594634e-05
-0.0001109168468
-0.0001399473504
-0.000168696718
-0.0001963830405
-0.0002224101612
-0.0002463358665
-0.0002677450955
-0.0002863705108
-0.000302003621
-0.0003144912027
-0.0003237241888
-0.0003296971358
-0.0003324124358
-0.0003319458795
-0.0003283752124
-0.0003218700799
-0.0003126092605
-0.0003007985134
-0.0002866684071
-0.0002704618273
-0.0002524309004
-0.0002328544155
-0.0002119944711
-0.0001901316722
-0.0001675481564
-0.0001444839509
-0.0001213445794
-9.820884583e-05
-7.527154174e-05
-5.267347058e-05
-3.054124917e-05
-9.060393632e-06
1.15895731e-05
3.135109301e-05
5.028877349e-05
6.842882956e-05
8.588572408e-05
0.0001027387019
0.0001189363164
0.0001344315378
0.0001491371494
0.0001630600108
0.0001762414128
0.000188752013
0.0002006528529
0.0002120130494
0.0002228350932
0.0002331214308
0.0002429001751
0.0002521751185
0.0002610080048
0.0002693959424
0.0002774204085
0.0002851062138
0.0002924115051
0.0002993242964
0.0003058899098
0.0003121367919
0.0003180678936
0.0003237354531
0.000329156602
0.0003343659076
0.00033934187
0.0003441118462