/*--------------------------------*- C++ -*----------------------------------*\
| =========                 |                                                 |
| \\      /  F ield         | OpenFOAM: The Open Source CFD Toolbox           |
|  \\    /   O peration     | Version:  2.3.1                                 |
|   \\  /    A nd           | Web:      www.OpenFOAM.org                      |
|    \\/     M anipulation  |                                                 |
\*---------------------------------------------------------------------------*/
FoamFile
{
    version     2.0;
    format      ascii;
    class       dictionary;
    location    "constant";
    object      GRPSI22;
}
// * * * * * * * * * * * * * * * * * * * * * * * * * * * * * * * * * * * * * //

GRPSI22_table
101
(

101
(
5.082219417e-11
5.630971551e-09
1.149287607e-07
8.620740419e-07
3.547602228e-06
9.91385171e-06
2.25807486e-05
4.370207145e-05
7.445045495e-05
0.0001153913319
0.0001661448698
0.0002246421336
0.0002903562911
0.0003606489525
0.0004309987481
0.0005006128333
0.0005687075399
0.0006300259758
0.0006872861381
0.0007394159211
0.0007818316455
0.0008203224659
0.0008535141885
0.0008792820455
0.0008992676525
0.000914082803
0.0009239320009
0.0009291324739
0.0009298768151
0.0009263161253
0.0009188389047
0.0009087562345
0.0008932826503
0.0008733982001
0.00085184122
0.000827199061
0.0008010214493
0.0007722297368
0.0007382368768
0.0007006660144
0.0006646917136
0.0006270158721
0.0005854356852
0.0005451584879
0.0005030785505
0.0004593710705
0.0004145819956
0.0003684933494
0.0003217559289
0.0002746216951
0.0002280300206
0.0001805708383
0.0001334201791
8.697703025e-05
4.112425009e-05
-7.419737676e-06
-5.356850979e-05
-9.84222913e-05
-0.000144243547
-0.0001884130658
-0.0002324407934
-0.0002745509103
-0.0003162531074
-0.0003571634936
-0.0003970326755
-0.0004357044553
-0.0004728473683
-0.0005096439034
-0.0005450213605
-0.0005786777907
-0.0006115101308
-0.0006437194601
-0.0006739235697
-0.0007011422207
-0.0007265822756
-0.0007523744834
-0.000777748025
-0.0008001843833
-0.000820559591
-0.0008394664068
-0.0008579631719
-0.0008749033858
-0.000889823175
-0.000903756471
-0.0009161184646
-0.0009270658304
-0.000936760746
-0.0009453114412
-0.0009527496954
-0.0009591440908
-0.0009644614815
-0.0009687714701
-0.0009723122145
-0.000975026516
-0.0009770415673
-0.0009779524785
-0.0004889876041
5.651388061e-12
-2.466365046e-21
-2.610207881e-22
4.932730093e-21
)


101
(
-1.275396418e-10
3.641432444e-09
9.941030088e-08
7.885151915e-07
3.301570437e-06
9.289772736e-06
2.122719271e-05
4.11894484e-05
7.031812503e-05
0.0001091871368
0.000157485828
0.0002133869118
0.0002762070424
0.0003437260895
0.0004118479326
0.000479337968
0.0005454148085
0.0006060444798
0.0006620621799
0.0007135076547
0.0007568793412
0.0007948586331
0.0008280870258
0.0008551419922
0.0008762674506
0.00089223107
0.0009034608459
0.0009101322655
0.000912543271
0.0009109019071
0.0009054669396
0.0008974477111
0.0008841955916
0.0008668658622
0.0008478819449
0.0008256961725
0.0008016894506
0.0007753186676
0.0007447188044
0.0007105500081
0.000676292605
0.0006409367541
0.0006026558702
0.000564031049
0.0005243152831
0.0004831099985
0.0004407251522
0.000397096274
0.0003526103338
0.0003075134344
0.000262434148
0.0002169545456
0.0001713261613
0.0001259842314
8.11017215e-05
3.528025934e-05
-1.029725021e-05
-5.479230509e-05
-9.913242634e-05
-0.0001428649703
-0.0001860491237
-0.0002282338258
-0.0002695429908
-0.0003101452993
-0.0003499309814
-0.0003887548657
-0.0004264015945
-0.0004631551318
-0.0004989901518
-0.0005335409448
-0.000566870495
-0.000599213503
-0.0006302830661
-0.0006594798151
-0.0006868976337
-0.0007134273805
-0.0007393661005
-0.0007638034769
-0.0007862637088
-0.0008070683772
-0.0008267670346
-0.000845284094
-0.0008622746718
-0.0008779789895
-0.0008924695214
-0.000905574077
-0.0009172375687
-0.0009276165023
-0.0009367971489
-0.0009450074963
-0.0009522506588
-0.0009582913851
-0.0009633285815
-0.0009675459115
-0.0009698109213
-0.0009688475026
-0.000448907539
7.005203296e-05
7.31463783e-05
7.5909078e-05
7.590907065e-05
)


101
(
-2.722028136e-10
1.869379911e-09
8.514520251e-08
7.19696495e-07
3.069222644e-06
8.697468023e-06
1.993898723e-05
3.879085064e-05
6.636366323e-05
0.0001032360856
0.0001491610767
0.0002025288291
0.0002625448965
0.0003273232861
0.0003931853893
0.0004585737727
0.0005226565812
0.0005823678589
0.0006372752625
0.0006879280859
0.0007318835837
0.0007696679422
0.0008028313905
0.0008308107441
0.0008530348041
0.0008701099274
0.0008826120792
0.000890674649
0.0008946359499
0.0008947649955
0.0008912540378
0.0008852164599
0.0008740715297
0.0008590991367
0.0008425787437
0.0008228245714
0.0008010553153
0.0007769672822
0.0007492442622
0.0007182668492
0.0006863821032
0.0006532205992
0.0006177122132
0.000581332498
0.0005437886465
0.0005049263784
0.0004648943127
0.0004236409206
0.0003814354524
0.0003384659047
0.0002951853465
0.0002515334131
0.0002076130882
0.0001636638519
0.0001199230251
7.588140245e-05
3.170186641e-05
-1.200793804e-05
-5.534298346e-05
-9.824558068e-05
-0.0001406670343
-0.0001824176337
-0.0002233852584
-0.0002636402498
-0.0003031889351
-0.0003419547478
-0.0003797917874
-0.0004166874706
-0.0004527487432
-0.000487832021
-0.0005217775656
-0.0005545835584
-0.000586205744
-0.0006164393519
-0.0006452672216
-0.0006730331471
-0.0006999697278
-0.0007257905333
-0.0007499942255
-0.0007725958591
-0.0007939038298
-0.0008139745166
-0.0008326858695
-0.0008501520603
-0.0008664825583
-0.0008816704769
-0.0008955222355
-0.0009079149557
-0.0009189070562
-0.0009289172233
-0.0009379298554
-0.0009458431641
-0.0009526754697
-0.0009582849956
-0.0009606302354
-0.0009574853179
-0.0004075567617
0.0001401029752
0.0001462924787
0.0001518193347
0.0001518192345
)


101
(
-3.861281171e-10
3.009141439e-10
7.206781809e-08
6.55403888e-07
2.850008222e-06
8.135772355e-06
1.871389693e-05
3.650283547e-05
6.258218445e-05
9.75320671e-05
0.0001411636317
0.0001920627307
0.0002493611236
0.0003114399072
0.0003750193174
0.0004383208702
0.000500432973
0.0005590447896
0.000612902548
0.0006627058456
0.0007069312087
0.0007446842637
0.0007777702352
0.0008063920672
0.0008295998837
0.000847737824
0.0008614249573
0.0008707948328
0.0008762032582
0.0008779683236
0.0008762571702
0.0008721055361
0.0008629644455
0.000850186743
0.0008359940911
0.0008186084906
0.0007990978135
0.0007772331651
0.0007520605676
0.000723983909
0.0006947072546
0.0006638466239
0.0006308364788
0.0005968418893
0.0005615177663
0.0005249001187
0.0004871465445
0.0004481947679
0.0004082510981
0.0003674420472
0.0003261127123
0.0002843083228
0.0002421624464
0.000199799417
0.0001574048278
0.0001148446739
7.215072093e-05
2.959106713e-05
-1.273153717e-05
-5.470912952e-05
-9.630423253e-05
-0.0001374064266
-0.0001778856787
-0.0002177214547
-0.0002569252408
-0.000295474017
-0.0003332799103
-0.0003702464187
-0.000406437457
-0.0004418091778
-0.0004762124026
-0.0005095253933
-0.0005416822576
-0.0005726297977
-0.0006024261908
-0.0006312699909
-0.000659263113
-0.0006862760009
-0.0007119534557
-0.0007362182992
-0.0007591859167
-0.0007808456699
-0.0008011706062
-0.0008203255329
-0.0008383807304
-0.0008553887917
-0.0008713329585
-0.0008859424625
-0.0008988905057
-0.0009107371125
-0.0009215165564
-0.0009311612835
-0.0009398725555
-0.0009470053755
-0.0009491877819
-0.0009435319113
-0.000364832797
0.0002101512185
0.0002194398263
0.0002277346666
0.0002277345284
)


101
(
-4.721428394e-10
-1.077380275e-09
6.01144221e-08
5.954287603e-07
2.643388598e-06
7.603540779e-06
1.754971837e-05
3.432198166e-05
5.896882494e-05
9.206894337e-05
0.0001334864142
0.0001819830637
0.0002366472386
0.0002960739556
0.0003573566769
0.0004185809976
0.0004787441012
0.0005361148972
0.0005889360345
0.0006378585809
0.000682096695
0.0007198764189
0.0007529066188
0.0007819659804
0.0008060104459
0.0008251396474
0.0008399334757
0.0008505285511
0.0008572894811
0.0008605698363
0.0008605350384
0.000858164245
0.0008509264673
0.0008402050057
0.00082819966
0.0008130894731
0.000795816513
0.0007761429362
0.0007533230815
0.0007278814693
0.0007012149457
0.0006727480324
0.0006421323576
0.0006105163653
0.0005774590241
0.000543059943
0.0005075268309
0.0004708116846
0.0004330934727
0.0003944483211
0.0003551455424
0.0003152398026
0.0002749114137
0.0002342474501
0.0001933683273
0.0001522633009
0.0001110390566
6.980230663e-05
2.862641492e-05
-1.232598658e-05
-5.300864428e-05
-9.333121864e-05
-0.0001331819128
-0.0001724925801
-0.0002112466077
-0.000249442967
-0.0002870407103
-0.0003239398888
-0.0003601560107
-0.0003956569022
-0.0004303324721
-0.0004640349226
-0.0004966502552
-0.000528162175
-0.0005586912079
-0.0005884100733
-0.0006173354276
-0.0006453703519
-0.0006722694976
-0.0006980021468
-0.0007225859728
-0.00074583467
-0.0007677191774
-0.0007884762292
-0.0008081841252
-0.0008269057165
-0.0008446770255
-0.0008614181844
-0.0008765150372
-0.0008902808354
-0.0009028248599
-0.0009141132302
-0.0009246816655
-0.0009334492809
-0.0009352458783
-0.0009267380007
-0.0003206434049
0.0002802076336
0.0002925882697
0.0003036438302
0.000303643341
)


101
(
-5.329435557e-10
-2.27843909e-09
4.922320084e-08
5.395679251e-07
2.448837188e-06
7.099649151e-06
1.64442808e-05
3.224489188e-05
5.551874104e-05
8.684055172e-05
0.0001261222691
0.000172283885
0.000224394874
0.000281222255
0.000340203039
0.0003993565983
0.0004575902289
0.0005136103565
0.0005653776407
0.0006133983682
0.0006574426305
0.0006952375722
0.0007282365165
0.0007575909711
0.0007823206139
0.0008023484235
0.0008181703548
0.0008299109556
0.000837936052
0.0008426225483
0.000844145549
0.0008434460583
0.0008380102993
0.0008292219973
0.0008192671854
0.000806321846
0.0007912324285
0.0007737157522
0.0007531265319
0.0007301109978
0.0007059531557
0.0006798975741
0.0006516380831
0.0006223652031
0.0005915861258
0.000559403571
0.0005260588299
0.0004915307053
0.000455996648
0.0004195023774
0.0003822619315
0.0003443017545
0.0003058280228
0.0002669282267
0.0002276802933
0.0001880920972
0.0001483545206
0.000108525026
6.862050375e-05
2.88143074e-05
-1.084790654e-05
-5.027470899e-05
-8.937200774e-05
-0.000128049159
-0.0001662535928
-0.0002039772967
-0.0002412107195
-0.0002778838498
-0.0003139960373
-0.0003494958728
-0.0003842860412
-0.0004182212719
-0.0004511599127
-0.0004830895896
-0.000514176153
-0.000544607956
-0.0005743296465
-0.0006032196591
-0.0006311067099
-0.0006580480515
-0.0006841015577
-0.0007089110089
-0.0007323193751
-0.0007546036242
-0.0007758626743
-0.0007962004219
-0.0008156754938
-0.0008343077061
-0.0008515210391
-0.0008673627517
-0.0008816795886
-0.0008946067022
-0.0009068996588
-0.000917278649
-0.0009186130256
-0.0009069545163
-0.000274904512
0.000350276142
0.0003657391014
0.0003795473809
0.0003795478896
)


101
(
-5.710973465e-10
-3.314720796e-09
3.933425107e-08
4.876236714e-07
2.265839685e-06
6.622995153e-06
1.539544835e-05
3.026819754e-05
5.222711423e-05
8.184071511e-05
0.0001190639684
0.0001629589285
0.0002125957683
0.0002668806922
0.0003235626882
0.0003806505384
0.0004369719248
0.0004915573306
0.0005422358867
0.0005893352388
0.0006330207079
0.000670777199
0.0007037566276
0.0007333084679
0.0007585833864
0.0007794034795
0.0007961695065
0.0008089767782
0.0008181824356
0.0008241756159
0.000827144531
0.0008280056705
0.0008242696317
0.0008173014346
0.0008092680499
0.0007983680467
0.0007853818939
0.0007699739655
0.0007515317051
0.0007307872012
0.0007090062241
0.0006853167268
0.0006593793009
0.0006324098368
0.0006038961633
0.0005739267958
0.0005427523926
0.000510375039
0.0004769855885
0.0004426206287
0.0004074570209
0.0003714788867
0.0003348960768
0.0002978051259
0.0002602641573
0.0002222629157
0.00018405537
0.0001456937055
0.0001071552672
6.861118001e-05
3.008905542e-05
-8.318494553e-06
-4.653701361e-05
-8.446846189e-05
-0.0001220273233
-0.0001591761326
-0.0001959108219
-0.0002321992168
-0.0002680533317
-0.0003034152139
-0.0003381824522
-0.0003722042892
-0.0004053169052
-0.0004375034391
-0.0004689693262
-0.0004999448312
-0.0005303273909
-0.0005599378994
-0.0005886284153
-0.0006165255905
-0.0006437974082
-0.0006700382307
-0.0006949287645
-0.0007186868987
-0.0007414177181
-0.0007632587559
-0.0007843029892
-0.0008046351896
-0.0008238236998
-0.00084177152
-0.000857908994
-0.000872465248
-0.000886376196
-0.0008983312484
-0.0008991124654
-0.000884031628
-0.0002275450727
0.0004203285738
0.0004388888549
0.0004554631035
0.0004554633744
)


101
(
-5.890435011e-10
-4.198214276e-09
3.038954895e-08
4.394036261e-07
2.09389362e-06
6.172497183e-06
1.440111818e-05
2.838855757e-05
4.908914773e-05
7.706324151e-05
0.0001123042077
0.000154001603
0.0002012416723
0.0002530442663
0.0003074385514
0.0003624658173
0.0004168900603
0.000469976857
0.0005195229941
0.0005656791781
0.000608873651
0.0006465145678
0.0006794676428
0.0007091478287
0.0007348468099
0.0007563479564
0.0007739675811
0.000787760866
0.0007980662934
0.0008052745512
0.0008095853063
0.0008118987391
0.0008097589803
0.0008045034095
0.0007982709562
0.0007892951564
0.0007783145323
0.0007649495126
0.0007485839247
0.0007299943162
0.0007104618652
0.0006890568482
0.0006653909774
0.0006406789982
0.0006144013341
0.0005866329652
0.0005576167097
0.0005273643981
0.000496082484
0.0004638151948
0.0004307251868
0.0003967572534
0.0003621027355
0.0003268594283
0.0002910810848
0.0002547319248
0.0002181005951
0.0001812532339
0.0001441545573
0.0001069702695
6.970461171e-05
3.244508104e-05
-4.759738085e-06
-4.182104073e-05
-7.86330305e-05
-0.0001151177589
-0.0001512461187
-0.0001870060754
-0.0002224390417
-0.0002575085614
-0.0002921098634
-0.0003260780661
-0.0003592253426
-0.0003915154181
-0.0004231795224
-0.0004545094412
-0.0004853955848
-0.0005155955644
-0.0005449360497
-0.0005735832334
-0.0006018153379
-0.0006292620443
-0.000655511491
-0.0006806715947
-0.0007048002515
-0.0007280736624
-0.000750567361
-0.0007724349412
-0.0007933697257
-0.0008133660603
-0.0008313841531
-0.0008475097467
-0.0008629622723
-0.0008764331164
-0.0008765713631
-0.0008578341213
-0.0001784767297
0.0004903732722
0.0005120320413
0.0005313701567
0.0005313681618
)


101
(
-5.890957377e-10
-4.940440481e-09
2.233296507e-08
3.947209064e-07
1.932508967e-06
5.747096114e-06
1.345922422e-05
2.660266657e-05
4.610007998e-05
7.250194183e-05
0.0001058356378
0.0001454050392
0.0001903243252
0.0002397072415
0.0002918322441
0.0003448053789
0.0003973458201
0.0004488861368
0.0004972530603
0.0005424406994
0.0005850376426
0.0006224748312
0.0006553756387
0.0006851311035
0.0007111525038
0.0007332256375
0.000751603642
0.0007662993626
0.0007776246305
0.0007859619705
0.0007915177605
0.0007951794927
0.0007945336135
0.0007908864948
0.0007863414789
0.0007791717086
0.0007700891548
0.0007586845585
0.0007443244729
0.0007277967333
0.0007103992103
0.0006911833898
0.0006697217182
0.0006472110473
0.0006231256351
0.0005975323098
0.0005706594043
0.000542515475
0.0005133144483
0.0004831099244
0.0004520687948
0.000420118165
0.0003874260919
0.0003540718068
0.0003201031909
0.0002854639082
0.0002504624612
0.0002151740852
0.0001795663091
0.0001438139756
0.0001079040112
7.191446906e-05
3.586282287e-05
-1.866114506e-07
-3.613059133e-05
-7.18585102e-05
-0.0001072953276
-0.0001424137153
-0.0001772704374
-0.0002118741729
-0.0002461505512
-0.0002799255992
-0.0003129767352
-0.0003452319503
-0.0003769273953
-0.0004084130741
-0.0004396137313
-0.0004702499112
-0.0005000934648
-0.0005293076149
-0.0005582734349
-0.0005866886198
-0.0006141138141
-0.0006405560523
-0.0006659733077
-0.0006905978652
-0.0007144293044
-0.0007376851577
-0.0007601617591
-0.0007820585761
-0.0008019753435
-0.0008196090683
-0.000836517987
-0.0008514272306
-0.0008507915659
-0.0008282756688
-0.0001276876064
0.0005604310166
0.0005851876694
0.000607296338
0.0006072989976
)


101
(
-5.734440048e-10
-5.552459855e-09
1.511020968e-08
3.53393944e-07
1.781207803e-06
5.345754674e-06
1.256773558e-05
2.490725128e-05
4.32551765e-05
6.815061959e-05
9.965084474e-05
0.0001371620908
0.0001798354202
0.0002268632554
0.0002767440782
0.0003276718176
0.000378340611
0.0004282990272
0.0004754409499
0.0005196312811
0.0005615429855
0.0005986858137
0.0006314923968
0.0006612763214
0.0006875354304
0.000710078712
0.0007291182841
0.0007446298339
0.0007568944878
0.0007662786061
0.0007729891648
0.0007779005529
0.0007786481635
0.0007765078062
0.0007735423127
0.0007680652575
0.0007607701363
0.0007512314757
0.0007387981862
0.0007242485727
0.000708886162
0.0006917626314
0.0006724272561
0.000652053605
0.0006301064735
0.0006066479781
0.0005818933
0.0005558402787
0.0005287007719
0.0005005332765
0.0004715115547
0.0004415599023
0.0004108406705
0.0003794127377
0.0003473014346
0.0003144280539
0.0002811141182
0.0002474331916
0.0002133602743
0.0001790926889
0.0001446112805
0.0001099902817
7.522173745e-05
4.03365271e-05
5.408943756e-06
-2.944610891e-05
-6.410669777e-05
-9.849994654e-05
-0.0001326628489
-0.0001666362338
-0.0002004048391
-0.000233820092
-0.0002666373026
-0.0002987345836
-0.0003303198289
-0.000361773742
-0.0003930759776
-0.0004239669896
-0.0004541684511
-0.000483779452
-0.0005132544804
-0.0005424018924
-0.0005708049742
-0.0005983759912
-0.0006249300852
-0.0006507772609
-0.0006758624583
-0.0007003541958
-0.0007241781867
-0.0007477915856
-0.0007695528045
-0.0007886734503
-0.0008069144186
-0.0008231576638
-0.000821653165
-0.0007952461549
-7.512318126e-05
0.0006305007788
0.0006583454689
0.0006832215058
0.0006832356865
)


101
(
-5.441564332e-10
-6.044875893e-09
8.668842384e-09
3.152465792e-07
1.639524925e-06
4.967459859e-06
1.172466267e-05
2.329908089e-05
4.054974367e-05
6.400309936e-05
9.374239721e-05
0.0001292653891
0.0001697665611
0.0002145053941
0.0002621732141
0.0003110673063
0.0003598760424
0.0004082268692
0.0004541011879
0.000497263253
0.0005384165219
0.0005751764518
0.0006078341725
0.000637600148
0.0006640252682
0.0006869465694
0.0007065526792
0.0007227913295
0.0007359133669
0.0007462638597
0.0007540439933
0.000760112269
0.0007621566948
0.000761423717
0.000759933763
0.0007560410524
0.0007504238036
0.0007426498047
0.0007320559219
0.0007194015193
0.0007059832503
0.0006908587529
0.0006735668259
0.0006552587265
0.0006353877222
0.0006140124526
0.0005913400471
0.0005673555273
0.000542258703
0.0005161066327
0.0004890791584
0.0004611030413
0.0004323438786
0.000402854869
0.0003726406424
0.0003415878304
0.0003100213584
0.0002780040403
0.0002455134974
0.0002127746917
0.0001797751375
0.0001465953718
0.000113212834
7.96317277e-05
4.588525026e-05
1.205469995e-05
-2.172204552e-05
-5.531311655e-05
-8.869612586e-05
-0.0001219085649
-0.0001549915491
-0.0001878595619
-0.000220280009
-0.0002520853882
-0.0002834316047
-0.000314698353
-0.0003459028741
-0.0003768262885
-0.0004072071757
-0.0004370728487
-0.0004668521432
-0.0004964746767
-0.000525629497
-0.0005541781276
-0.0005817113451
-0.0006085834626
-0.0006348243334
-0.0006604339536
-0.0006853921134
-0.0007104760559
-0.0007340082735
-0.0007546332326
-0.0007740475908
-0.0007914868599
-0.0007890368599
-0.0007586397389
-2.074429692e-05
0.0007005670276
0.000731448027
0.0007590839575
0.0007591529651
)


101
(
-5.031812621e-10
-6.427841216e-09
2.95824257e-09
2.801079295e-07
1.507007287e-06
4.611221185e-06
1.092805328e-05
2.177496217e-05
3.797911907e-05
6.005321024e-05
8.810281362e-05
0.0001217073438
0.0001601092144
0.0002026261862
0.0002481176552
0.0002949933829
0.0003419536573
0.0003886790534
0.0004332475247
0.0004753491412
0.0005156819096
0.0005519755271
0.0005844213005
0.0006141198147
0.0006406474254
0.0006638646105
0.0006839470147
0.0007008238607
0.0007147196361
0.0007259564394
0.0007347246829
0.0007418623168
0.000745111478
0.0007456897438
0.0007455744261
0.0007431619267
0.0007391160472
0.000733003324
0.0007241549066
0.0007133090245
0.0007017465934
0.0006885319303
0.0006731996261
0.0006568815882
0.0006390208359
0.0006196688459
0.0005990279288
0.0005770790572
0.0005540053089
0.0005298511089
0.0005047958249
0.0004787700691
0.000451950552
0.0004243922954
0.0003960907683
0.0003669014393
0.0003371427455
0.000306853032
0.0002759995977
0.0002448359012
0.0002133623811
0.0001816754988
0.0001497525546
0.0001175848678
8.517109645e-05
5.254171364e-05
1.980196778e-05
-1.288579425e-05
-4.541694377e-05
-7.778091727e-05
-0.0001100357096
-0.0001421632517
-0.0001739908399
-0.0002053421649
-0.0002363181302
-0.0002672680562
-0.0002982117175
-0.0003289470536
-0.0003592767567
-0.0003892344445
-0.0004191523639
-0.0004489911669
-0.0004786245851
-0.0005079660822
-0.0005363596565
-0.0005640504543
-0.000591260401
-0.0006179150105
-0.0006438017435
-0.0006700849161
-0.0006952572329
-0.0007173541959
-0.0007378164038
-0.0007562886851
-0.0007528180443
-0.0007183672378
3.54532846e-05
0.0007705661808
0.000804309423
0.0008345462393
0.0008346771347
)


101
(
-4.523490291e-10
-6.711063382e-09
-2.07039211e-09
2.478124911e-07
1.383214545e-06
4.2760725e-06
1.017599666e-05
2.033174673e-05
3.553868403e-05
5.62948056e-05
8.272459647e-05
0.000114480179
0.0001508547467
0.0001912177149
0.0002345743066
0.0002794508289
0.0003245750289
0.0003696631957
0.0004128926692
0.0004539018984
0.0004933601914
0.0005291107567
0.0005612769998
0.0005908542548
0.000617425305
0.0006408647121
0.0006613394733
0.000678767576
0.0006933525079
0.0007053948419
0.0007150718244
0.00072319628
0.0007275629622
0.0007293600121
0.000730521627
0.0007294884559
0.0007269107738
0.0007223569522
0.0007151568349
0.0007060284137
0.0006962328804
0.0006848405795
0.0006713839977
0.0006569771381
0.0006410568048
0.000623665789
0.0006049993803
0.0005850377906
0.0005639548457
0.0005417803199
0.0005186819832
0.0004945866976
0.0004696817956
0.0004440348736
0.0004176418151
0.0003903361981
0.0003624315682
0.0003339331481
0.0003047828972
0.000275247965
0.0002453454157
0.0002151950187
0.0001847819813
0.0001541037304
0.0001231419355
9.187960458e-05
6.03606176e-05
2.872644006e-05
-2.859150969e-06
-3.430573487e-05
-6.563427042e-05
-9.68609891e-05
-0.0001278909913
-0.0001585897685
-0.0001890363087
-0.0002195350106
-0.0002500803058
-0.0002804529236
-0.0003104970682
-0.000340322781
-0.0003702183343
-0.0004000626733
-0.0004298619947
-0.0004597292449
-0.0004888792236
-0.0005172388786
-0.000545154443
-0.0005727222925
-0.0005994052016
-0.0006265940894
-0.0006532055524
-0.0006767333109
-0.0006981329963
-0.0007174503365
-0.0007128628623
-0.0006743456257
9.340866938e-05
0.0008403008379
0.0008764709425
0.0009090185911
0.0009093331767
)


101
(
-3.93374674e-10
-6.903809597e-09
-6.464061634e-09
2.182000759e-07
1.267718941e-06
3.961072241e-06
9.466624465e-06
1.896633096e-05
3.322386236e-05
5.272176719e-05
7.760023841e-05
0.0001075759453
0.0001419943924
0.000180271677
0.0002215390339
0.0002644395787
0.0003077414954
0.0003511857498
0.0003930479983
0.0004329340046
0.000471470959
0.0005066087161
0.0005384260473
0.0005678242234
0.0005943813355
0.0006179757281
0.0006387654687
0.0006566617463
0.0006718518697
0.0006846182383
0.0006951250094
0.0007041566714
0.0007095589069
0.0007124874746
0.0007148318178
0.000715079767
0.0007138699246
0.0007107749011
0.0007051255924
0.0006976206473
0.0006895002883
0.0006798418434
0.0006681772385
0.0006556015899
0.000641548617
0.0006260528342
0.0006092993042
0.0005912698647
0.0005721341193
0.0005519088425
0.0005307480638
0.0005085690229
0.0004855604339
0.0004618004341
0.0004372980777
0.0004118770328
0.0003858490146
0.000359192266
0.0003318126783
0.0003039697132
0.0002756927807
0.0002471261251
0.0002182643674
0.0001891208136
0.0001596899694
0.000129930038
9.981306322e-05
6.941847189e-05
3.891848544e-05
8.474885759e-06
-2.185645278e-05
-5.207118201e-05
-8.21257463e-05
-0.0001119531744
-0.000141661558
-0.000171547392
-0.0002015688437
-0.0002314391741
-0.0002609930685
-0.0002904359502
-0.0003201088756
-0.0003497844646
-0.000379467497
-0.0004095172697
-0.0004392389932
-0.0004681792501
-0.0004965639811
-0.0005247886092
-0.0005521711937
-0.0005800374677
-0.0006077755172
-0.0006326271695
-0.0006548829624
-0.0006748584639
-0.0006690559921
-0.0006264800889
0.0001529342998
0.0009092541724
0.0009470075437
0.0009809184012
0.0009812458654
)


101
(
-3.27859469e-10
-7.014911539e-09
-1.026798341e-08
1.911157841e-07
1.160105213e-06
3.665303036e-06
8.79811074e-06
1.767566013e-05
3.103012482e-05
4.932800526e-05
7.27222189e-05
0.0001009865514
0.0001335192524
0.0001697793496
0.0002090067257
0.0002499586726
0.000291454009
0.0003332520623
0.000373723857
0.0004124574856
0.0004500316718
0.0004844941927
0.0005158943057
0.0005450523362
0.0005715377358
0.0005952242257
0.0006162580143
0.0006345445428
0.000650257856
0.0006636662616
0.0006749236218
0.0006847850394
0.0006911444856
0.0006951220126
0.0006985598001
0.0006999939406
0.0007000538099
0.0006983193031
0.0006941247834
0.0006881489086
0.0006816098594
0.0006735948048
0.0006636368281
0.0006528106043
0.000640548427
0.0006268793158
0.0006119768223
0.0005958186111
0.0005785752676
0.0005602598233
0.0005410091157
0.000520726256
0.000499598756
0.0004777060429
0.000455069953
0.0004315192592
0.0004073730781
0.0003825876859
0.000357032558
0.0003309466834
0.0003043565844
0.0002774285593
0.0002501652713
0.0002225947159
0.000194741785
0.0001665699904
0.0001380036271
0.0001090407551
7.980937668e-05
5.049757502e-05
2.124143676e-05
-7.88686026e-06
-3.684264618e-05
-6.56008244e-05
-9.43305971e-05
-0.000123384975
-0.0001527270535
-0.0001819819204
-0.0002108956307
-0.0002397089592
-0.0002688977952
-0.0002982276852
-0.0003275841191
-0.000357458065
-0.0003874454409
-0.0004168684269
-0.0004455605774
-0.0004741329755
-0.0005020544599
-0.0005304001204
-0.0005589354207
-0.0005849489236
-0.0006079650742
-0.0006283889382
-0.0006212911287
-0.0005746816455
0.0002136233082
0.0009764451176
0.001014461408
0.001047708274
0.001047216267
)


101
(
-2.572935317e-10
-7.052770945e-09
-1.352560295e-08
1.664100431e-07
1.059970965e-06
3.38787264e-06
8.168674277e-06
1.645673419e-05
2.895299738e-05
4.610746921e-05
6.80830337e-05
9.470378892e-05
0.0001254203022
0.0001597316804
0.0001969714134
0.000236006185
0.0002757131027
0.0003158665296
0.00035492939
0.0003924838779
0.0004290585582
0.0004627903881
0.0004937077775
0.0005225627116
0.0005489172708
0.0005726353925
0.0005938475169
0.0006124520345
0.0006286102276
0.0006425793648
0.0006545070245
0.0006651209393
0.0006723626634
0.0006773114657
0.0006817583585
0.0006842878429
0.0006855217265
0.0006850511048
0.0006822167807
0.0006776765091
0.0006726243716
0.0006661601943
0.000657820838
0.0006486603999
0.0006381106966
0.0006261947755
0.0006130771482
0.0005987305066
0.0005833202727
0.0005668602703
0.0005494818206
0.0005310710982
0.0005118049927
0.0004917626274
0.0004709693725
0.0004492640484
0.0004269879338
0.0004040838847
0.0003803913219
0.0003561218869
0.0003312793274
0.0003060450766
0.0002804336056
0.0002544821327
0.0002282448
0.0002017110233
0.000174791914
0.0001474197321
0.0001196547966
9.165146015e-05
6.358544215e-05
3.561587563e-05
7.83453702e-06
-1.971970897e-05
-4.724494212e-05
-7.519579205e-05
-0.0001036365897
-0.0001321543715
-0.0001603269037
-0.0001883168022
-0.0002167359138
-0.0002454741259
-0.0002743315498
-0.0003037470213
-0.000333605336
-0.00036330717
-0.0003922079108
-0.0004208307307
-0.0004490431544
-0.0004776901196
-0.0005066823009
-0.0005336612989
-0.000557338648
-0.0005779556308
-0.0005694946112
-0.0005189139457
0.0002747574923
0.001040304848
0.001076758361
0.001109990751
0.001110921605
)


101
(
-1.830581052e-10
-7.025366127e-09
-1.62786124e-08
1.439385042e-07
9.669263587e-07
3.127913736e-06
7.576578848e-06
1.530660946e-05
2.698806365e-05
4.305415065e-05
6.367519091e-05
8.871935395e-05
0.0001176883969
0.0001501193093
0.0001854263062
0.0002225792238
0.0002605186324
0.000299032848
0.000336672735
0.0003730237873
0.0004085663688
0.0004415185614
0.0004718921094
0.0005003809299
0.0005265437221
0.0005502335755
0.0005715620628
0.0005904178826
0.0006069477716
0.0006213987
0.0006339160334
0.0006452040245
0.0006532538233
0.0006591003512
0.0006644776924
0.0006680165964
0.0006703317824
0.0006710298172
0.0006694623471
0.0006662659476
0.0006626074399
0.0006576007017
0.0006507895099
0.0006432079257
0.0006342890851
0.0006240500718
0.0006126471356
0.0006000486323
0.0005864117667
0.0005717486246
0.0005561898574
0.0005396149794
0.0005221869036
0.0005039748535
0.0004850054723
0.000465118587
0.0004446831639
0.000423651833
0.0004018411021
0.000379430524
0.0003563919796
0.0003329081608
0.0003090022533
0.0002847235737
0.0002601415072
0.0002352775422
0.0002100650202
0.0001843982732
0.0001582699402
0.0001317662193
0.000105054648
7.834902415e-05
5.180343767e-05
2.552430569e-05
-6.432034929e-07
-2.722064933e-05
-5.447033887e-05
-8.205098471e-05
-0.0001093924769
-0.0001364654793
-0.0001638638871
-0.0001916890626
-0.0002198384704
-0.000248581063
-0.0002779277486
-0.0003075867679
-0.0003365899295
-0.0003650259413
-0.0003932031687
-0.0004219926551
-0.0004510908037
-0.0004787676373
-0.0005030272954
-0.0005235595633
-0.0005136689694
-0.0004592532447
0.000335294544
0.001098765818
0.001131368872
0.001160147385
0.001160005924
)


101
(
-1.064265813e-10
-6.940322759e-09
-1.85669783e-08
1.235619911e-07
8.805936389e-07
2.884582813e-06
7.020130778e-06
1.422239804e-05
2.513096295e-05
4.016207068e-05
5.949119188e-05
8.302483439e-05
0.0001103142449
0.0001409325646
0.0001743637274
0.0002096738271
0.0002458697314
0.00028275366
0.0003189609716
0.0003540871919
0.0003885682618
0.0004206979125
0.0004504718761
0.0004785332087
0.0005044424778
0.0005280433745
0.000549428018
0.0005684729194
0.0005853069803
0.0006001649923
0.0006131923496
0.0006250747134
0.00063385739
0.0006405301822
0.0006467643643
0.0006512323173
0.0006545409141
0.0006563149417
0.000655921262
0.000653977726
0.000651621316
0.0006479794838
0.0006426047226
0.0006365120943
0.0006291393645
0.0006204973723
0.0006107337668
0.0005998156558
0.0005878902848
0.0005749628978
0.0005611656603
0.000546377985
0.0005307522844
0.0005143457526
0.0004971773343
0.000479084717
0.0004604603727
0.0004412720275
0.0004213352517
0.0004008077916
0.0003796212594
0.0003579391097
0.0003357902666
0.0003132365265
0.0002903543653
0.0002671967732
0.0002437240353
0.0002198286604
0.0001954612579
0.0001706322445
0.0001454676631
0.0001201793418
9.496032113e-05
7.000172067e-05