/*--------------------------------*- C++ -*----------------------------------*\
| =========                 |                                                 |
| \\      /  F ield         | OpenFOAM: The Open Source CFD Toolbox           |
|  \\    /   O peration     | Version:  2.3.1                                 |
|   \\  /    A nd           | Web:      www.OpenFOAM.org                      |
|    \\/     M anipulation  |                                                 |
\*---------------------------------------------------------------------------*/
FoamFile
{
    version     2.0;
    format      ascii;
    class       dictionary;
    location    "constant";
    object      GRPSI41;
}
// * * * * * * * * * * * * * * * * * * * * * * * * * * * * * * * * * * * * * //

GRPSI41_table
101
(

101
(
-5.810041202e-10
-1.723330595e-07
-5.301705378e-07
-9.089361985e-07
-1.264009598e-06
-1.578174813e-06
-1.835447666e-06
-2.016013559e-06
-2.10427203e-06
-2.084805387e-06
-1.936775971e-06
-1.647149524e-06
-1.212632103e-06
-5.919126515e-07
1.644818728e-07
1.031079007e-06
1.974017185e-06
2.926298772e-06
3.726941475e-06
4.454826969e-06
4.937117655e-06
5.235295889e-06
5.354015456e-06
5.323982066e-06
5.187331139e-06
4.97537866e-06
4.714993533e-06
4.425671232e-06
4.111334251e-06
3.796159349e-06
3.483258237e-06
3.187291275e-06
2.927370693e-06
2.599457874e-06
2.338399406e-06
2.085498212e-06
1.687291894e-06
1.312923561e-06
1.415766352e-06
1.317936975e-06
1.184426554e-06
1.071209357e-06
9.572346606e-07
8.591046974e-07
7.789849688e-07
7.025022755e-07
6.37770876e-07
5.757746843e-07
5.225023953e-07
4.727140749e-07
4.295457723e-07
3.902338445e-07
3.546019553e-07
3.217648908e-07
2.923572129e-07
2.664771571e-07
2.406460514e-07
2.200653394e-07
1.99685779e-07
1.821177594e-07
1.655565972e-07
1.506554591e-07
1.372761239e-07
1.244787522e-07
1.127343557e-07
1.023830404e-07
9.281706861e-08
8.394458113e-08
7.557331845e-08
6.807673917e-08
6.110068325e-08
5.47307769e-08
4.856222656e-08
4.248434214e-08
3.263163252e-08
2.735916158e-08
2.632464909e-08
2.409266495e-08
2.146534517e-08
1.882951507e-08
1.635211893e-08
1.391552663e-08
1.160245872e-08
8.166500308e-09
6.864693016e-09
6.251507259e-09
5.337111271e-09
4.375359561e-09
3.476770733e-09
2.197067583e-09
1.862543913e-09
1.557099996e-09
1.109375132e-09
7.734373299e-10
5.457431452e-10
4.151623858e-10
1.981442898e-10
2.294425842e-10
2.702187462e-10
3.902427421e-10
5.087682882e-10
)


101
(
-5.810041189e-10
-1.719970762e-07
-5.290237847e-07
-9.070133837e-07
-1.260739523e-06
-1.572569909e-06
-1.826374905e-06
-2.002418014e-06
-2.084996667e-06
-2.058954355e-06
-1.903954999e-06
-1.607371849e-06
-1.165962943e-06
-5.412307395e-07
2.216277897e-07
1.095657891e-06
2.047276434e-06
3.01233759e-06
3.839517261e-06
4.585511363e-06
5.101729693e-06
5.427457934e-06
5.571792625e-06
5.562476664e-06
5.439962761e-06
5.236908796e-06
4.980730043e-06
4.691857298e-06
4.376892078e-06
4.056883727e-06
3.738116636e-06
3.434114413e-06
3.162427446e-06
2.843125296e-06
2.567100713e-06
2.304059737e-06
1.935300235e-06
1.563112992e-06
1.559413686e-06
1.472183605e-06
1.346531015e-06
1.22686412e-06
1.107521322e-06
1.000583192e-06
9.0998466e-07
8.263726642e-07
7.538249089e-07
6.860110734e-07
6.260890794e-07
5.706784012e-07
5.214616196e-07
4.767291071e-07
4.361347861e-07
3.990180466e-07
3.653276987e-07
3.349937267e-07
3.055420346e-07
2.803074254e-07
2.563601249e-07
2.349443368e-07
2.150543085e-07
1.96867492e-07
1.802876588e-07
1.647529419e-07
1.504344118e-07
1.374181221e-07
1.25340522e-07
1.141159895e-07
1.036258411e-07
9.394395093e-08
8.494803573e-08
7.662303473e-08
6.882795607e-08
6.133082413e-08
5.136927717e-08
4.392890636e-08
3.98681204e-08
3.601736816e-08
3.226875812e-08
2.859556784e-08
2.509998886e-08
2.176686433e-08
1.866194656e-08
1.489514505e-08
1.237742493e-08
1.066135811e-08
9.162694685e-09
7.712083309e-09
6.348432354e-09
4.866085283e-09
3.931039086e-09
3.17423288e-09
2.522334725e-09
1.939876605e-09
1.507523902e-09
1.130611562e-09
5.8994859e-10
8.219889514e-10
1.082208455e-09
1.578838413e-09
2.07407914e-09
)


101
(
-5.810041189e-10
-1.713234977e-07
-5.267346353e-07
-9.03198069e-07
-1.254305076e-06
-1.561609435e-06
-1.808705217e-06
-1.97602964e-06
-2.047683233e-06
-2.009024277e-06
-1.840635157e-06
-1.530697237e-06
-1.076071944e-06
-4.434887017e-07
3.315571992e-07
1.220138071e-06
2.189169192e-06
3.179703326e-06
4.058264101e-06
4.843398427e-06
5.425775818e-06
5.809374508e-06
6.00704116e-06
6.041766033e-06
5.950357032e-06
5.767562082e-06
5.521999269e-06
5.235777391e-06
4.920328925e-06
4.592172393e-06
4.261968463e-06
3.942345486e-06
3.648313776e-06
3.339002968e-06
3.04219352e-06
2.754339714e-06
2.427012644e-06
2.064289071e-06
1.895979383e-06
1.793037045e-06
1.673732009e-06
1.546023441e-06
1.417197045e-06
1.294452357e-06
1.184339454e-06
1.085485594e-06
9.974137797e-07
9.174184414e-07
8.445818821e-07
7.777895091e-07
7.166880648e-07
6.609442153e-07
6.10058986e-07
5.635826041e-07
5.209107545e-07
4.817843837e-07
4.447646649e-07
4.106997707e-07
3.792417096e-07
3.501341384e-07
3.232760105e-07
2.984004783e-07
2.753902926e-07
2.540222239e-07
2.341208943e-07
2.155145039e-07
1.98183097e-07
1.819434622e-07
1.668775562e-07
1.527434856e-07
1.395017693e-07
1.270993709e-07
1.156126246e-07
1.048626334e-07
9.362625571e-08
8.263207185e-08
7.333912553e-08
6.556932068e-08
5.882358063e-08
5.267164557e-08
4.688744788e-08
4.142810734e-08
3.638075169e-08
3.141444866e-08
2.675204255e-08
2.276783363e-08
1.950499758e-08
1.677031933e-08
1.422854594e-08
1.184274861e-08
9.728791756e-09
7.965840529e-09
6.640068183e-09
5.41680482e-09
4.415085705e-09
3.356020451e-09
1.831474297e-09
2.853689274e-09
3.9627772e-09
5.803250149e-09
7.6921568e-09
)


101
(
-5.810041189e-10
-1.706464772e-07
-5.244538e-07
-8.994422668e-07
-1.248078965e-06
-1.551141358e-06
-1.791973663e-06
-1.95121881e-06
-2.012795545e-06
-1.962563108e-06
-1.781844614e-06
-1.459641691e-06
-9.92848502e-07
-3.527725102e-07
4.331005954e-07
1.335610533e-06
2.32204354e-06
3.337904039e-06
4.265002421e-06
5.094305505e-06
5.740466735e-06
6.186753579e-06
6.442474336e-06
6.52671083e-06
6.472584157e-06
6.315380184e-06
6.085068398e-06
5.805453952e-06
5.491728154e-06
5.158636909e-06
4.818146495e-06
4.483791256e-06
4.168984978e-06
3.857625587e-06
3.552434781e-06
3.254863496e-06
2.929644692e-06
2.577162836e-06
2.321663875e-06
2.158257759e-06
2.022535703e-06
1.887862062e-06
1.751190022e-06
1.61626741e-06
1.489535953e-06
1.374143668e-06
1.270105858e-06
1.176271068e-06
1.090455083e-06
1.011718672e-06
9.388647566e-07
8.716880677e-07
8.098259422e-07
7.529742983e-07
7.005427667e-07
6.520088143e-07
6.067746047e-07
5.642990909e-07
5.24766517e-07
4.876886948e-07
4.531931141e-07
4.211372793e-07
3.912963801e-07
3.634811175e-07
3.374078342e-07
3.127391757e-07
2.895925611e-07
2.67852828e-07
2.475192827e-07
2.284857658e-07
2.104024539e-07
1.933838639e-07
1.773847575e-07
1.625082581e-07
1.481754944e-07
1.341019867e-07
1.206755147e-07
1.084575339e-07
9.757757202e-08
8.790458885e-08
7.908542095e-08
7.079838697e-08
6.307641974e-08
5.584474774e-08
4.898963129e-08
4.25852664e-08
3.677595628e-08
3.185764652e-08
2.764570163e-08
2.367698986e-08
2.006793318e-08
1.683097338e-08
1.407426304e-08
1.189924828e-08
9.970621584e-09
7.843546347e-09
4.880404211e-09
7.62299393e-09
1.050381239e-08
1.465656451e-08
1.874776819e-08
)


101
(
-5.81004173e-10
-1.699657595e-07
-5.221805084e-07
-8.957438262e-07
-1.242055301e-06
-1.541153098e-06
-1.776153793e-06
-1.927921798e-06
-1.980216578e-06
-1.919375375e-06
-1.727278755e-06
-1.393734035e-06
-9.156342842e-07
-2.682549307e-07
5.274662476e-07
1.443386054e-06
2.447293808e-06
3.48852841e-06
4.462088457e-06
5.339302264e-06
6.048668004e-06
6.561348943e-06
6.880289591e-06
7.019921183e-06
7.009700121e-06
6.88419994e-06
6.674424257e-06
6.405989929e-06
6.097144291e-06
5.762561333e-06
5.41492922e-06
5.066771932e-06
4.732165259e-06
4.410470789e-06
4.096832206e-06
3.797132199e-06
3.4660865e-06
3.117229606e-06
2.815189464e-06
2.590104671e-06
2.417723847e-06
2.265824858e-06
2.119122916e-06
1.97393734e-06
1.833125666e-06
1.701253639e-06
1.580422949e-06
1.47120427e-06
1.371695386e-06
1.280289594e-06
1.195340368e-06
1.116216127e-06
1.042685093e-06
9.747532821e-07
9.11921888e-07
8.532639331e-07
7.987426294e-07
7.473656868e-07
6.993375883e-07
6.539005889e-07
6.110684885e-07
5.711368224e-07
5.336555409e-07
4.986542468e-07
4.658924978e-07
4.348246504e-07
4.053462369e-07
3.77479644e-07
3.510604207e-07
3.264435068e-07
3.029682753e-07
2.806768159e-07
2.594345114e-07
2.394835965e-07
2.206232865e-07
2.025436834e-07
1.851106384e-07
1.684908748e-07
1.528576107e-07
1.385963252e-07
1.256563602e-07
1.138046575e-07
1.026075524e-07
9.214915016e-08
8.228103409e-08
7.301657162e-08
6.420405992e-08
5.615737378e-08
4.925347234e-08
4.314656502e-08
3.73446081e-08
3.209386724e-08
2.730642759e-08
2.331734356e-08
2.000015788e-08
1.628285035e-08
1.121479648e-08
1.610477695e-08
2.161139015e-08
3.224513303e-08
4.297968529e-08
)


101
(
-5.810041202e-10
-1.692810571e-07
-5.199137595e-07
-8.921003308e-07
-1.236228121e-06
-1.531631848e-06
-1.761220545e-06
-1.906082193e-06
-1.949842953e-06
-1.879295263e-06
-1.676695181e-06
-1.33257935e-06
-8.439229777e-07
-1.892772727e-07
6.156266006e-07
1.544482575e-06
2.566056592e-06
3.632854895e-06
4.651196324e-06
5.579107961e-06
6.352259972e-06
6.934433334e-06
7.321664151e-06
7.522891536e-06
7.563299915e-06
7.476228337e-06
7.293125273e-06
7.040989292e-06
6.74079408e-06
6.408215512e-06
6.056904336e-06
5.697901299e-06
5.345493486e-06
5.008641544e-06
4.682208191e-06
4.368573782e-06
4.041204314e-06
3.6940114e-06
3.364923967e-06
3.0912398e-06
2.874405197e-06
2.693553288e-06
2.530050792e-06
2.372958415e-06
2.219344607e-06
2.072049496e-06
1.93424072e-06
1.808625492e-06
1.694360587e-06
1.589454676e-06
1.492016485e-06
1.400634223e-06
1.314942949e-06
1.235102065e-06
1.161200078e-06
1.092114344e-06
1.02736968e-06
9.663218133e-07
9.089297037e-07
8.546146789e-07
8.031594216e-07
7.547594302e-07
7.090514805e-07
6.659408307e-07
6.255580621e-07
5.87496078e-07
5.511928612e-07
5.165258471e-07
4.833464957e-07
4.520465448e-07
4.225283068e-07
3.9442826e-07
3.674610725e-07
3.416902466e-07
3.171859363e-07
2.938739797e-07
2.716929114e-07
2.502286523e-07
2.294913093e-07
2.099111334e-07
1.91748895e-07
1.752458748e-07
1.59680552e-07
1.450308886e-07
1.312311761e-07
1.181786797e-07
1.056825738e-07
9.380630635e-08
8.30328343e-08
7.372624369e-08
6.490367943e-08
5.672259162e-08
4.940282488e-08
4.272329131e-08
3.729407445e-08
3.067687315e-08
2.221434959e-08
3.294424285e-08
4.482452347e-08
6.650483118e-08
8.785881247e-08
)


101
(
-5.810041189e-10
-1.685919871e-07
-5.17652822e-07
-8.885098422e-07
-1.230589824e-06
-1.522554465e-06
-1.747120298e-06
-1.885606353e-06
-1.921573549e-06
-1.842201795e-06
-1.629929584e-06
-1.275987228e-06
-7.774510573e-07
-1.156292863e-07
6.979538564e-07
1.63923175e-06
2.678421128e-06
3.770866375e-06
4.832600319e-06
5.813115395e-06
6.651184581e-06
7.305588979e-06
7.765778219e-06
8.0347904e-06
8.132678892e-06
8.091014525e-06
7.941370332e-06
7.711552809e-06
7.424725249e-06
7.098125495e-06
6.746314505e-06
6.380823553e-06
6.014031596e-06
5.660810126e-06
5.319643558e-06
4.992109154e-06
4.661525093e-06
4.31533085e-06
3.971524805e-06
3.661774021e-06
3.401590013e-06
3.184028099e-06
2.995579509e-06
2.821973928e-06
2.654841899e-06
2.493261645e-06
2.33907587e-06
2.196124021e-06
2.065421412e-06
1.945701531e-06
1.834953921e-06
1.730918896e-06
1.632913629e-06
1.540802541e-06
1.454896614e-06
1.37462561e-06
1.299424043e-06
1.228196044e-06
1.160771718e-06
1.096737225e-06
1.035973133e-06
9.783584747e-07
9.237998542e-07
8.720446947e-07
8.231701541e-07
7.771879611e-07
7.333654254e-07
6.91502865e-07
6.511797898e-07
6.124368395e-07
5.759060357e-07
5.411160848e-07
5.077944846e-07
4.756213118e-07
4.44722523e-07
4.150896545e-07
3.869569037e-07
3.59900571e-07
3.337048204e-07
3.082974113e-07
2.839931779e-07
2.614011211e-07
2.404385647e-07
2.204570213e-07
2.016681374e-07
1.837701288e-07
1.666154721e-07
1.500405508e-07
1.345215243e-07
1.205631701e-07
1.078831758e-07
9.547928064e-08
8.430715002e-08
7.423384875e-08
6.530593562e-08
5.503316178e-08
4.188757432e-08
6.379517384e-08
8.77306504e-08
1.294820899e-07
1.699431236e-07
)


101
(
-5.810041189e-10
-1.678982213e-07
-5.153967568e-07
-8.849701468e-07
-1.225131904e-06
-1.513891524e-06
-1.733773828e-06
-1.866343223e-06
-1.895271235e-06
-1.807932358e-06
-1.586764185e-06
-1.223657609e-06
-7.15808822e-07
-4.688930806e-08
7.750123283e-07
1.72823351e-06
2.784760107e-06
3.902734037e-06
5.006598128e-06
6.040882095e-06
6.945215875e-06
7.674416111e-06
8.211632533e-06
8.554450949e-06
8.716882544e-06
8.727875515e-06
8.618948063e-06
8.418369577e-06
8.150765257e-06
7.835005032e-06
7.486969711e-06
7.119030852e-06
6.742222472e-06
6.374011929e-06
6.0169012e-06
5.67437807e-06
5.33592439e-06
4.98809339e-06
4.636225087e-06
4.301461248e-06
4.003777202e-06
3.747657004e-06
3.527685265e-06
3.331346769e-06
3.147570593e-06
2.971482747e-06
2.801816966e-06
2.641668019e-06
2.493604789e-06
2.357664108e-06
2.231946913e-06
2.114489342e-06
2.003874319e-06
1.898967019e-06
1.800370836e-06
1.708229373e-06
1.621818404e-06
1.539884283e-06
1.462290678e-06
1.388232728e-06
1.317520388e-06
1.250090313e-06
1.185703154e-06
1.124629841e-06
1.066637418e-06
1.012031102e-06
9.602457072e-07
9.106662118e-07
8.627432752e-07
8.160269947e-07
7.714651666e-07
7.28838655e-07
6.88429067e-07
6.49422516e-07
6.114920181e-07
5.747491063e-07
5.395219481e-07
5.057894605e-07
4.732336728e-07
4.413123788e-07
4.102778907e-07
3.805081431e-07
3.529486664e-07
3.264949641e-07
3.014841544e-07
2.773693363e-07
2.545875024e-07
2.320955396e-07
2.107698874e-07
1.90802859e-07
1.72647246e-07
1.548099979e-07
1.385634882e-07
1.238563974e-07
1.100972935e-07
9.552701247e-08
7.504862772e-08
1.14368796e-07
1.579428795e-07
2.385338167e-07
3.198253426e-07
)


101
(
-5.810042271e-10
-1.671995123e-07
-5.131446919e-07
-8.814782807e-07
-1.219847784e-06
-1.505627673e-06
-1.721138812e-06
-1.848194869e-06
-1.870828945e-06
-1.77636452e-06
-1.547061174e-06
-1.175380757e-06
-6.587323805e-07
1.723042218e-08
8.471600661e-07
1.811892638e-06
2.885386501e-06
4.028600014e-06
5.173374443e-06
6.261995374e-06
7.233953933e-06
8.040536859e-06
8.658514321e-06
9.081176816e-06
9.315849998e-06
9.387630107e-06
9.327273305e-06
9.163302149e-06
8.921355359e-06
8.621758093e-06
8.281910111e-06
7.915539013e-06
7.533263809e-06
7.15318427e-06
6.780123898e-06
6.421259754e-06
6.071626998e-06
5.719400079e-06
5.362573446e-06
5.011583048e-06
4.684034479e-06
4.391248289e-06
4.136279575e-06
3.911571767e-06
3.706668776e-06
3.514124222e-06
3.329148152e-06
3.152773626e-06
2.987198787e-06
2.833886931e-06
2.69201278e-06
2.560444872e-06
2.436749901e-06
2.319011955e-06
2.207500261e-06
2.102444477e-06
2.003964411e-06
1.910357959e-06
1.822113488e-06
1.738046465e-06
1.657314062e-06
1.57999585e-06
1.505534934e-06
1.434422228e-06
1.366577102e-06
1.302320693e-06
1.241723125e-06
1.183641976e-06
1.127614964e-06
1.07281728e-06
1.019816893e-06
9.687954023e-07
9.200208896e-07
8.732523618e-07
8.277894413e-07
7.834887493e-07
7.402418521e-07
6.986476923e-07
6.58738829e-07
6.194558889e-07
5.807636248e-07
5.432696192e-07
5.07734896e-07
4.740176801e-07
4.413210975e-07
4.095296615e-07
3.799107012e-07
3.503397065e-07
3.21829514e-07
2.946545014e-07
2.690438755e-07
2.446360493e-07
2.218528125e-07
2.007840774e-07
1.807615421e-07
1.595298711e-07
1.30807887e-07
1.99159556e-07
2.752868314e-07
4.166011169e-07
5.706495197e-07
)


101
(
-5.810042271e-10
-1.664953324e-07
-5.108952921e-07
-8.780292293e-07
-1.214725605e-06
-1.49774679e-06
-1.70920161e-06
-1.831140084e-06
-1.848136561e-06
-1.747324145e-06
-1.510672022e-06
-1.131062789e-06
-6.061663603e-07
7.671134757e-08
9.14398494e-07
1.890212661e-06
2.980194011e-06
4.14820932e-06
5.332666427e-06
6.475634407e-06
7.516360772e-06
8.403099974e-06
9.106150225e-06
9.614600308e-06
9.929743078e-06
1.007143158e-05
1.006825773e-05
9.948643819e-06
9.73913271e-06
9.461488963e-06
9.134502628e-06
8.773362409e-06
8.389432456e-06
8.001496329e-06
7.614358792e-06
7.239010265e-06
6.876228282e-06
6.517192187e-06
6.155880922e-06
5.794570129e-06
5.444953243e-06
5.119872598e-06
4.830027826e-06
4.573646349e-06
4.343452708e-06
4.131677995e-06
3.930408862e-06
3.737886299e-06
3.554661461e-06
3.383455128e-06
3.224785186e-06
3.078187647e-06
2.940972821e-06
2.810810559e-06
2.686001996e-06
2.567683136e-06
2.456808586e-06
2.351214822e-06
2.251719936e-06
2.157317175e-06
2.066471574e-06
1.979023412e-06
1.894860266e-06
1.813609475e-06
1.735290086e-06
1.660186428e-06
1.589658336e-06
1.522446746e-06
1.458165838e-06
1.395436915e-06
1.333991182e-06
1.274149423e-06
1.216307375e-06
1.160820802e-06
1.107265761e-06
1.054736023e-06
1.002996115e-06
9.528566124e-07
9.044608008e-07
8.570640608e-07
8.099066327e-07
7.639579378e-07
7.193279975e-07
6.772727976e-07
6.358499052e-07
5.948322501e-07
5.563840552e-07
5.187740582e-07
4.815868842e-07
4.461978895e-07
4.114367804e-07
3.788259473e-07
3.477167687e-07
3.185229547e-07
2.907304802e-07
2.600076668e-07
2.205403381e-07
3.389023087e-07
4.689664921e-07
6.951595729e-07
9.209310979e-07
)


101
(
-5.810034275e-10
-1.657852802e-07
-5.086473737e-07
-8.746193429e-07
-1.20975529e-06
-1.490233022e-06
-1.697948357e-06
-1.815167278e-06
-1.827090898e-06
-1.720603103e-06
-1.477423226e-06
-1.090590502e-06
-5.580681058e-07
1.31504717e-07
9.76679461e-07
1.963150129e-06
3.069006216e-06
4.261186065e-06
5.484077208e-06
6.680999875e-06
7.79124093e-06
8.760815533e-06
9.553993029e-06
1.015402744e-05
1.055804633e-05
1.077930503e-05
1.084252839e-05
1.077566452e-05
1.060617898e-05
1.035723382e-05
1.004886009e-05
9.697432751e-06
9.315589681e-06
8.924188379e-06
8.526701877e-06
8.136271237e-06
7.758876901e-06
7.390075638e-06
7.022869425e-06
6.654476747e-06
6.290090324e-06
5.939744062e-06
5.618120758e-06
5.329421441e-06
5.070886862e-06
4.83664716e-06
4.617122692e-06
4.407717729e-06
4.207144516e-06
4.018207098e-06
3.842015277e-06
3.679054183e-06
3.527482099e-06
3.384352834e-06
3.246672413e-06
3.116389903e-06
2.992698148e-06
2.875179251e-06
2.763719354e-06
2.658690323e-06
2.558058384e-06
2.460678741e-06
2.366808782e-06
2.275584218e-06
2.187274497e-06
2.101628612e-06
2.020075493e-06
1.943170706e-06
1.870150223e-06
1.799266386e-06
1.729712426e-06
1.661159529e-06
1.594350509e-06
1.529643774e-06
1.467160635e-06
1.405933616e-06
1.345798242e-06
1.287081428e-06
1.229078138e-06
1.172697467e-06
1.116935131e-06
1.061606205e-06
1.00737098e-06
9.556986598e-07
9.048863581e-07
8.533699429e-07
8.039831471e-07
7.572791816e-07
7.107002987e-07
6.648958867e-07
6.195043838e-07
5.770422852e-07
5.357683541e-07
4.965858051e-07
4.59725141e-07
4.18356381e-07
3.658179004e-07
5.572142846e-07
7.689306462e-07
1.12432225e-06
1.484861243e-06
)


101
(
-5.810013715e-10
-1.650691394e-07
-5.064001268e-07
-8.71246926e-07
-1.204933459e-06
-1.483081456e-06
-1.687374857e-06
-1.800261198e-06
-1.807616663e-06
-1.696079246e-06
-1.447225475e-06
-1.053867985e-06
-5.14364664e-07
1.8161804e-07
1.034024734e-06
2.030755323e-06
3.151891761e-06
4.367457171e-06
5.627574473e-06
6.877837367e-06
8.05765316e-06
9.111873586e-06
9.999434359e-06
1.06963697e-05
1.119644108e-05
1.150645928e-05
1.164630564e-05
1.164228148e-05
1.152228596e-05
1.131045025e-05
1.10280983e-05
1.069293287e-05
1.03187786e-05
9.928799216e-06
9.525521891e-06
9.122796477e-06
8.73031421e-06
8.34867298e-06
7.973231383e-06
7.59942015e-06
7.225966436e-06
6.857820698e-06
6.509502421e-06
6.190017537e-06
5.901361239e-06
5.641357849e-06
5.401297919e-06
5.174585111e-06
4.957368901e-06
4.751339729e-06
4.55750531e-06
4.377412262e-06
4.210515152e-06
4.053908965e-06
3.904595967e-06
3.762553548e-06
3.626718001e-06
3.496912118e-06
3.373525426e-06
3.257433513e-06
3.147240861e-06
3.040782876e-06
2.937853689e-06
2.837489402e-06
2.739823659e-06
2.645244115e-06
2.553154336e-06
2.46591538e-06
2.383571787e-06
2.304324221e-06
2.227354263e-06
2.151344312e-06
2.075787209e-06
2.001697801e-06
1.929770326e-06
1.860101201e-06
1.791848449e-06
1.724583719e-06
1.65783301e-06
1.591964844e-06
1.526783067e-06
1.461831837e-06
1.397628968e-06
1.33510942e-06
1.274689661e-06
1.213014973e-06
1.150910137e-06
1.092968616e-06
1.036180837e-06
9.783707066e-07
9.207418196e-07
8.673454499e-07
8.144247262e-07
7.630229211e-07
7.149912833e-07
6.620505199e-07
5.974141759e-07
8.97145477e-07
1.229208882e-06
1.761247975e-06
2.307025502e-06
)


101
(
-5.809999014e-10
-1.643463441e-07
-5.041520356e-07
-8.679092355e-07
-1.200255204e-06
-1.476286574e-06
-1.67748991e-06
-1.786431124e-06
-1.789593342e-06
-1.673574528e-06
-1.42003149e-06
-1.020834663e-06
-4.750131168e-07
2.269398179e-07
1.086257492e-06
2.092876288e-06
3.228991199e-06
4.467442916e-06
5.76367258e-06
7.066347463e-06
8.314690023e-06
9.453752297e-06
1.043820938e-05
1.123710292e-05
1.183983819e-05
1.224742793e-05
1.247493141e-05
1.254552204e-05
1.24864737e-05
1.232203655e-05
1.20747229e-05
1.1764035e-05
1.140514153e-05
1.102273328e-05
1.061893582e-05
1.02078124e-05
9.801383581e-06
9.405144578e-06
9.019057772e-06
8.639796498e-06
8.261005434e-06
7.881762969e-06
7.513345926e-06
7.166572383e-06
6.847735518e-06
6.55954306e-06
6.296488394e-06
6.051636964e-06
5.818457861e-06
5.596736289e-06
5.385901917e-06
5.188628291e-06
5.006263013e-06
4.836155091e-06
4.675390568e-06
4.521381824e-06
4.375343026e-06
4.234254355e-06
4.100248056e-06
3.973174502e-06
3.853863642e-06
3.738981725e-06
3.628054228e-06
3.520182732e-06
3.415040723e-06
3.312639822e-06
3.212039363e-06
3.115385729e-06
3.023338904e-06
2.936167025e-06
2.852322615e-06
2.770503875e-06
2.68812869e-06
2.606007168e-06
2.52493862e-06
2.4462622e-06
2.370160637e-06
2.29576229e-06
2.221331725e-06
2.146950086e-06
2.072087719e-06
1.997936235e-06
1.923499983e-06
1.84942622e-06
1.778865151e-06
1.707968763e-06
1.632850607e-06
1.561234138e-06
1.492272602e-06
1.423233813e-06
1.351589903e-06
1.285513793e-06
1.21869129e-06
1.154530915e-06
1.092665817e-06
1.026689865e-06
9.499410289e-07
1.404826268e-06
1.906027325e-06
2.65485115e-06
3.42836611e-06
)


101
(
-5.810001191e-10
-1.636165033e-07
-5.019021723e-07
-8.646045482e-07
-1.195717364e-06
-1.469842183e-06
-1.668295387e-06
-1.773689218e-06
-1.772938087e-06
-1.652904575e-06
-1.395772726e-06
-9.914291753e-07
-4.399550206e-07
2.673862659e-07
1.133210183e-06
2.149327436e-06
3.300303838e-06
4.561520083e-06
5.892863117e-06
7.247048501e-06
8.562227682e-06
9.785091936e-06
1.086753809e-05
1.17730852e-05
1.248580328e-05
1.30003687e-05
1.332664022e-05
1.348373418e-05
1.349747301e-05
1.33918172e-05
1.319012337e-05
1.291331687e-05
1.257792778e-05
1.221041432e-05
1.181259422e-05
1.139860915e-05
1.098174881e-05
1.05716131e-05
1.017364542e-05
9.787508762e-06
9.405133476e-06
9.020349088e-06
8.639391225e-06
8.271144249e-06
7.924680394e-06
7.60785254e-06
7.319492921e-06
7.054517847e-06
6.805350718e-06
6.568908739e-06
6.34247327e-06
6.129124487e-06
5.931980178e-06
5.748639759e-06
5.576847068e-06
5.413140415e-06
5.258437695e-06
5.108944053e-06
4.965408853e-06
4.828769206e-06
4.701336916e-06
4.579577679e-06
4.461745164e-06
4.348423616e-06
4.238864619e-06
4.130344581e-06
4.02414037e-06
3.919918924e-06
3.82046603e-06
3.726490672e-06
3.636527683e-06
3.550302895e-06
3.46433193e-06
3.377750245e-06
3.290015213e-06
3.202466251e-06
3.118962532e-06
3.038302359e-06
2.958079689e-06
2.877703483e-06
2.794348367e-06
2.711028131e-06
2.627519685e-06
2.542988637e-06
2.459891247e-06
2.379368286e-06
2.293977746e-06
2.206943825e-06
2.123917756e-06
2.04396149e-06
1.956681064e-06
1.877175454e-06
1.791646557e-06
1.713317791e-06
1.635979729e-06
1.556048939e-06
1.46233469e-06
2.112422597e-06
2.827441187e-06
3.84056075e-06
4.988857564e-06
)


101
(
-5.810003343e-10
-1.628791152e-07
-4.996492732e-07
-8.613303834e-07
-1.191317286e-06
-1.463744449e-06
-1.659777863e-06
-1.762031233e-06
-1.757630949e-06
-1.633959307e-06
-1.374220258e-06
-9.656241412e-07
-4.091050464e-07
3.031059767e-07
1.175076489e-06
2.200290704e-06
3.365675851e-06
4.649209651e-06
6.014361937e-06
7.41808571e-06
8.798557546e-06
1.010447382e-05
1.128639453e-05
1.230262939e-05
1.313226871e-05
1.376358207e-05
1.419994946e-05
1.445541746e-05
1.455378095e-05
1.451890623e-05
1.437500442e-05
1.414325188e-05
1.384039315e-05
1.349601469e-05
1.311190007e-05
1.270242919e-05
1.228113131e-05
1.186033498e-05
1.145082489e-05
1.105638405e-05
1.067072921e-05
1.028402383e-05
9.897443358e-06
9.515506912e-06
9.147188513e-06
8.80401829e-06
8.489539463e-06
8.202822865e-06
7.936555756e-06
7.685517089e-06
7.445945131e-06
7.218994065e-06
7.007932864e-06
6.812489277e-06
6.631154862e-06
6.460365941e-06
6.299158321e-06
6.144591593e-06
5.994395767e-06
5.850667452e-06
5.715747243e-06
5.589491829e-06
5.467856818e-06
5.352466732e-06
5.241136809e-06
5.13046638e-06
5.021932999e-06
4.914415322e-06
4.811960854e-06
4.713348239e-06
4.619335091e-06
4.530598772e-06
4.443850529e-06
4.357970315e-06
4.269348613e-06
4.17642037e-06
4.085649825e-06
3.998243614e-06
3.915683766e-06
3.831916542e-06
3.743657456e-06
3.652873348e-06
3.560500683e-06
3.467951115e-06
3.373616699e-06
3.280890119e-06
3.186030647e-06
3.08437498e-06
2.983781245e-06
2.890747436e-06
2.78611325e-06
2.690407705e-06
2.585443109e-06
2.487190789e-06
2.393041269e-06
2.295006748e-06
2.177562974e-06
3.070493087e-06
4.046384788e-06
5.367103245e-06
6.688366346e-06
)


101
(
-5.809999014e-10
-1.621334584e-07
-4.973916122e-07
-8.580838582e-07
-1.187050438e-06
-1.457987467e-06
-1.651922299e-06
-1.751454109e-06
-1.743658274e-06
-1.616646473e-06
-1.355071946e-06
-9.434169736e-07
-3.824345955e-07
3.343004304e-07
1.212155675e-06
2.246140248e-06
3.425046508e-06
4.729667379e-06
6.126757583e-06
7.576300886e-06
9.020745953e-06
1.040949665e-05
1.169333067e-05
1.2824027e-05
1.37767647e-05
1.453440574e-05
1.509228806e-05
1.545857834e-05
1.565457534e-05
1.570356647e-05
1.563015045e-05
1.545557445e-05
1.519609565e-05
1.488444955e-05
1.452314724e-05
1.412731252e-05
1.370987819e-05
1.32840934e-05
1.286525153e-05
1.246231e-05
1.207234879e-05
1.16852048e-05
1.129870715e-05
1.09114286e-05
1.052911819e-05
1.016478548e-05
9.826466262e-06
9.518432365e-06
9.234103184e-06
8.969037351e-06
8.718923977e-06
8.481637836e-06
8.258536128e-06
8.053144843e-06
7.863663798e-06
7.686700591e-06
7.52256479e-06
7.366907777e-06
7.215295318e-06
7.068313129e-06
6.929410581e-06
6.801245316e-06
6.680801267e-06
6.568020533e-06
6.457917746e-06
6.352078119e-06
6.246246854e-06
6.141120778e-06
6.039458459e-06
5.940759088e-06
5.847767448e-06
5.759662296e-06
5.675794938e-06
5.595174942e-06
5.512751291e-06
5.422788291e-06
5.326865503e-06
5.235757272e-06
5.15033432e-06
5.066454546e-06
4.980161548e-06
4.886038364e-06
4.784393079e-06
4.685240578e-06
4.582139756e-06
4.477120567e-06
4.369491557e-06
4.255410218e-06
4.132577653e-06
4.021042266e-06
3.899099971e-06
3.778236652e-06
3.65498781e-06
3.529756994e-06
3.413092174e-06
3.293616262e-06
3.154673251e-06
4.335139504e-06
5.618948185e-06
7.316439246e-06
8.992027195e-06
)


101
(
-5.809999014e-10
-1.613793754e-07
-4.951214405e-07
-8.548649203e-07
-1.182915311e-06
-1.452564128e-06
-1.644716207e-06
-1.741958566e-06
-1.73108342e-06
-1.60096596e-06
-1.338098701e-06
-9.246968798e-07
-3.599160788e-07
3.610548758e-07
1.24451997e-06
2.287007979e-06
3.47849627e-06
4.802725533e-06
6.229943687e-06
7.721081743e-06
9.228071739e-06
1.069916444e-05
1.208646665e-05
1.33348465e-05
1.441557906e-05
1.530783313e-05
1.599869652e-05
1.648948618e-05
1.679812771e-05
1.694602627e-05
1.695644503e-05
1.685129175e-05
1.664766868e-05
1.637992848e-05
1.605208301e-05
1.568074281e-05
1.527782343e-05
1.485557908e-05
1.443187848e-05
1.402133975e-05
1.362608436e-05
1.323894187e-05
1.285619918e-05
1.247102361e-05
1.208384558e-05
1.170641783e-05
1.134953345e-05
1.102230644e-05
1.07213669e-05
1.044414066e-05
1.018557487e-05
9.941603191e-06
9.710754851e-06
9.498226758e-06
9.303500179e-06
9.122926898e-06
8.9592078e-06
8.806361543e-06
8.660008085e-06
8.51668245e-06
8.380369726e-06
8.254347051e-06
8.14048507e-06
8.035386557e-06
7.933397539e-06
7.839195734e-06
7.743157555e-06
7.647479676e-06
7.5532364e-06
7.463537454e-06
7.378289296e-06
7.295808236e-06
7.219809364e-06
7.148353079e-06
7.077452391e-06
7.001078974e-06
6.913376579e-06
6.821639585e-06
6.733387654e-06
6.652358583e-06
6.573567864e-06
6.480155004e-06
6.375106167e-06
6.268404503e-06
6.156925812e-06
6.040515035e-06
5.915040402e-06
5.787348344e-06
5.639493802e-06
5.501762185e-06
5.362134217e-06
5.205691852e-06
5.05605405e-06
4.899259358e-06
4.747744865e-06
4.602660228e-06
4.439260158e-06
5.958697211e-06
7.607225169e-06
9.790232034e-06
1.215283917e-05
)


101
(
-5.810003343e-10
-1.606164068e-07
-4.928448806e-07
-8.51671578e-07
-1.178908109e-06
-1.447464638e-06
-1.63814271e-06
-1.733532563e-06
-1.720070122e-06
-1.587163432e-06
-1.323110627e-06
-9.091859577e-07
-3.413657081e-07
3.833213818e-07
1.27169226e-06
2.32194149e-06
3.524992657e-06
4.86753014e-06
6.323753827e-06
7.854987237e-06
9.422766473e-06
1.097497511e-05
1.246442288e-05
1.383273086e-05
1.504518265e-05
1.607876252e-05
1.691367181e-05
1.754322869e-05
1.79806797e-05
1.82440182e-05
1.835349006e-05
1.833145035e-05
1.819739676e-05
1.798633747e-05
1.770377894e-05
1.736864593e-05
1.699233501e-05
1.65848456e-05
1.61643187e-05
1.575012085e-05
1.535048291e-05
1.496295483e-05
1.458550604e-05
1.420854984e-05
1.382646272e-05
1.344644872e-05
1.307848127e-05
1.273618889e-05
1.242318815e-05
1.213737044e-05
1.187349171e-05
1.162691611e-05
1.139382535e-05
1.117818109e-05
1.09825398e-05
1.080498129e-05
1.064648741e-05
1.05011635e-05
1.036810881e-05
1.023934407e-05
1.011244316e-05
9.996919174e-06
9.895073241e-06
9.803612143e-06
9.719496941e-06
9.642928628e-06
9.566668371e-06
9.490908591e-06
9.415240237e-06
9.344725818e-06
9.27386575e-06
9.207216438e-06
9.146809013e-06
9.090456012e-06
9.037736406e-06
8.984635219e-06
8.917457649e-06
8.83415053e-06
8.750606414e-06
8.673962905e-06
8.602083987e-06
8.516256673e-06
8.414737081e-06
8.301998943e-06
8.178308012e-06
8.053849443e-06
7.90770261e-06
7.759444532e-06
7.583821347e-06
7.411035384e-06
7.243694847e-06
7.046253137e-06
6.85334233e-06
6.654808321e-06