/*--------------------------------*- C++ -*----------------------------------*\
| =========                 |                                                 |
| \\      /  F ield         | OpenFOAM: The Open Source CFD Toolbox           |
|  \\    /   O peration     | Version:  2.3.1                                 |
|   \\  /    A nd           | Web:      www.OpenFOAM.org                      |
|    \\/     M anipulation  |                                                 |
\*---------------------------------------------------------------------------*/
FoamFile
{
    version     2.0;
    format      ascii;
    class       dictionary;
    location    "constant";
    object      GRPSI1;
}
// * * * * * * * * * * * * * * * * * * * * * * * * * * * * * * * * * * * * * //

GRPSI1_table
101
(

101
(
28625.76186
28625.76186
28625.76186
28625.76186
28625.76453
28625.76186
28625.76186
28625.76186
28625.76719
28625.76719
28625.75653
28625.75653
28625.75653
28625.76719
28625.77786
28625.75653
28625.75653
28625.77786
28625.75653
28625.75653
28625.75653
28625.75653
28625.77786
28625.75653
28625.75653
28625.75653
28625.77786
28625.77786
28625.7352
28625.77786
28625.77786
28625.7352
28625.77786
28625.77786
28625.7352
28625.77786
28625.77786
28625.7352
28625.7352
28625.77786
28625.77786
28625.7352
28625.77786
28625.77786
28625.7352
28625.77786
28625.77786
28625.7352
28625.77786
28625.77786
28625.7352
28625.7352
28625.7352
28625.82051
28625.82051
28625.7352
28625.7352
28625.7352
28625.7352
28625.82051
28625.82051
28625.7352
28625.7352
28625.7352
28625.7352
28625.82051
28625.82051
28625.7352
28625.7352
28625.7352
28625.7352
28625.82051
28625.82051
28625.7352
28625.7352
28625.7352
28625.7352
28625.7352
28625.82051
28625.82051
28625.7352
28625.7352
28625.7352
28625.7352
28625.82051
28625.82051
28625.7352
28625.7352
28625.7352
28625.7352
28625.82051
28625.82051
28625.7352
28625.7352
28625.7352
28625.7352
28625.82051
28625.82051
28625.7352
28625.7352
28625.7352
)


101
(
28625.76186
28625.76186
28625.76186
28625.76186
28625.76453
28625.76186
28625.76186
28625.76186
28625.76719
28625.76719
28625.75653
28625.75653
28625.75653
28625.76719
28625.77786
28625.75653
28625.75653
28625.77786
28625.75653
28625.75653
28625.75653
28625.75653
28625.77786
28625.75653
28625.75653
28625.75653
28625.77786
28625.77786
28625.7352
28625.77786
28625.77786
28625.7352
28625.77786
28625.77786
28625.7352
28625.77786
28625.77786
28625.7352
28625.7352
28625.77786
28625.77786
28625.7352
28625.77786
28625.77786
28625.7352
28625.77786
28625.77786
28625.7352
28625.77786
28625.77786
28625.7352
28625.7352
28625.7352
28625.82051
28625.82051
28625.7352
28625.7352
28625.7352
28625.7352
28625.82051
28625.82051
28625.7352
28625.7352
28625.7352
28625.7352
28625.82051
28625.82051
28625.7352
28625.7352
28625.7352
28625.7352
28625.82051
28625.82051
28625.7352
28625.7352
28625.7352
28625.7352
28625.7352
28625.82051
28625.82051
28625.7352
28625.7352
28625.7352
28625.7352
28625.82051
28625.82051
28625.7352
28625.7352
28625.7352
28625.7352
28625.82051
28625.82051
28625.7352
28625.7352
28625.7352
28625.7352
28625.82051
28625.82051
28625.7352
28625.7352
28625.7352
)


101
(
28625.76186
28625.76186
28625.76186
28625.76186
28625.76453
28625.76186
28625.76186
28625.76186
28625.76719
28625.76719
28625.75653
28625.75653
28625.75653
28625.76719
28625.77786
28625.75653
28625.75653
28625.77786
28625.75653
28625.75653
28625.75653
28625.75653
28625.77786
28625.75653
28625.75653
28625.75653
28625.77786
28625.77786
28625.7352
28625.77786
28625.77786
28625.7352
28625.77786
28625.77786
28625.7352
28625.77786
28625.77786
28625.7352
28625.7352
28625.77786
28625.77786
28625.7352
28625.77786
28625.77786
28625.7352
28625.77786
28625.77786
28625.7352
28625.77786
28625.77786
28625.7352
28625.7352
28625.7352
28625.82051
28625.82051
28625.7352
28625.7352
28625.7352
28625.7352
28625.82051
28625.82051
28625.7352
28625.7352
28625.7352
28625.7352
28625.82051
28625.82051
28625.7352
28625.7352
28625.7352
28625.7352
28625.82051
28625.82051
28625.7352
28625.7352
28625.7352
28625.7352
28625.7352
28625.82051
28625.82051
28625.7352
28625.7352
28625.7352
28625.7352
28625.82051
28625.82051
28625.7352
28625.7352
28625.7352
28625.7352
28625.82051
28625.82051
28625.7352
28625.7352
28625.7352
28625.7352
28625.82051
28625.82051
28625.7352
28625.7352
28625.7352
)


101
(
28625.76186
28625.76186
28625.76186
28625.76186
28625.76453
28625.76186
28625.76186
28625.76186
28625.76719
28625.76719
28625.75653
28625.75653
28625.75653
28625.76719
28625.77786
28625.75653
28625.75653
28625.77786
28625.75653
28625.75653
28625.75653
28625.75653
28625.77786
28625.75653
28625.75653
28625.75653
28625.77786
28625.77786
28625.7352
28625.77786
28625.77786
28625.7352
28625.77786
28625.77786
28625.7352
28625.77786
28625.77786
28625.7352
28625.7352
28625.77786
28625.77786
28625.7352
28625.77786
28625.77786
28625.7352
28625.77786
28625.77786
28625.7352
28625.77786
28625.77786
28625.7352
28625.7352
28625.7352
28625.82051
28625.82051
28625.7352
28625.7352
28625.7352
28625.7352
28625.82051
28625.82051
28625.7352
28625.7352
28625.7352
28625.7352
28625.82051
28625.82051
28625.7352
28625.7352
28625.7352
28625.7352
28625.82051
28625.82051
28625.7352
28625.7352
28625.7352
28625.7352
28625.7352
28625.82051
28625.82051
28625.7352
28625.7352
28625.7352
28625.7352
28625.82051
28625.82051
28625.7352
28625.7352
28625.7352
28625.7352
28625.82051
28625.82051
28625.7352
28625.7352
28625.7352
28625.7352
28625.82051
28625.82051
28625.7352
28625.7352
28625.7352
)


101
(
28625.76186
28625.76186
28625.76186
28625.76186
28625.76453
28625.76186
28625.76186
28625.76186
28625.76719
28625.76719
28625.75653
28625.75653
28625.75653
28625.76719
28625.77786
28625.75653
28625.75653
28625.77786
28625.75653
28625.75653
28625.75653
28625.75653
28625.77786
28625.75653
28625.75653
28625.75653
28625.77786
28625.77786
28625.7352
28625.77786
28625.77786
28625.7352
28625.77786
28625.77786
28625.7352
28625.77786
28625.77786
28625.7352
28625.7352
28625.77786
28625.77786
28625.7352
28625.77786
28625.77786
28625.7352
28625.77786
28625.77786
28625.7352
28625.77786
28625.77786
28625.7352
28625.7352
28625.7352
28625.82051
28625.82051
28625.7352
28625.7352
28625.7352
28625.7352
28625.82051
28625.82051
28625.7352
28625.7352
28625.7352
28625.7352
28625.82051
28625.82051
28625.7352
28625.7352
28625.7352
28625.7352
28625.82051
28625.82051
28625.7352
28625.7352
28625.7352
28625.7352
28625.7352
28625.82051
28625.82051
28625.7352
28625.7352
28625.7352
28625.7352
28625.82051
28625.82051
28625.7352
28625.7352
28625.7352
28625.7352
28625.82051
28625.82051
28625.7352
28625.7352
28625.7352
28625.7352
28625.82051
28625.82051
28625.7352
28625.7352
28625.7352
)


101
(
28625.76186
28625.76186
28625.76186
28625.76186
28625.76453
28625.76186
28625.76186
28625.76186
28625.76719
28625.76719
28625.75653
28625.75653
28625.75653
28625.76719
28625.77786
28625.75653
28625.75653
28625.77786
28625.75653
28625.75653
28625.75653
28625.75653
28625.77786
28625.75653
28625.75653
28625.75653
28625.77786
28625.77786
28625.7352
28625.77786
28625.77786
28625.7352
28625.77786
28625.77786
28625.7352
28625.77786
28625.77786
28625.7352
28625.7352
28625.77786
28625.77786
28625.7352
28625.77786
28625.77786
28625.7352
28625.77786
28625.77786
28625.7352
28625.77786
28625.77786
28625.7352
28625.7352
28625.7352
28625.82051
28625.82051
28625.7352
28625.7352
28625.7352
28625.7352
28625.82051
28625.82051
28625.7352
28625.7352
28625.7352
28625.7352
28625.82051
28625.82051
28625.7352
28625.7352
28625.7352
28625.7352
28625.82051
28625.82051
28625.7352
28625.7352
28625.7352
28625.7352
28625.7352
28625.82051
28625.82051
28625.7352
28625.7352
28625.7352
28625.7352
28625.82051
28625.82051
28625.7352
28625.7352
28625.7352
28625.7352
28625.82051
28625.82051
28625.7352
28625.7352
28625.7352
28625.7352
28625.82051
28625.82051
28625.7352
28625.7352
28625.7352
)


101
(
28625.76186
28625.76186
28625.76186
28625.76186
28625.76453
28625.76186
28625.76186
28625.76186
28625.76719
28625.76719
28625.75653
28625.75653
28625.75653
28625.76719
28625.77786
28625.75653
28625.75653
28625.77786
28625.75653
28625.75653
28625.75653
28625.75653
28625.77786
28625.75653
28625.75653
28625.75653
28625.77786
28625.77786
28625.7352
28625.77786
28625.77786
28625.7352
28625.77786
28625.77786
28625.7352
28625.77786
28625.77786
28625.7352
28625.7352
28625.77786
28625.77786
28625.7352
28625.77786
28625.77786
28625.7352
28625.77786
28625.77786
28625.7352
28625.77786
28625.77786
28625.7352
28625.7352
28625.7352
28625.82051
28625.82051
28625.7352
28625.7352
28625.7352
28625.7352
28625.82051
28625.82051
28625.7352
28625.7352
28625.7352
28625.7352
28625.82051
28625.82051
28625.7352
28625.7352
28625.7352
28625.7352
28625.82051
28625.82051
28625.7352
28625.7352
28625.7352
28625.7352
28625.7352
28625.82051
28625.82051
28625.7352
28625.7352
28625.7352
28625.7352
28625.82051
28625.82051
28625.7352
28625.7352
28625.7352
28625.7352
28625.82051
28625.82051
28625.7352
28625.7352
28625.7352
28625.7352
28625.82051
28625.82051
28625.7352
28625.7352
28625.7352
)


101
(
28625.76186
28625.76186
28625.76186
28625.76186
28625.76453
28625.76186
28625.76186
28625.76186
28625.76719
28625.76719
28625.75653
28625.75653
28625.75653
28625.76719
28625.77786
28625.75653
28625.75653
28625.77786
28625.75653
28625.75653
28625.75653
28625.75653
28625.77786
28625.75653
28625.75653
28625.75653
28625.77786
28625.77786
28625.7352
28625.77786
28625.77786
28625.7352
28625.77786
28625.77786
28625.7352
28625.77786
28625.77786
28625.7352
28625.7352
28625.77786
28625.77786
28625.7352
28625.77786
28625.77786
28625.7352
28625.77786
28625.77786
28625.7352
28625.77786
28625.77786
28625.7352
28625.7352
28625.7352
28625.82051
28625.82051
28625.7352
28625.7352
28625.7352
28625.7352
28625.82051
28625.82051
28625.7352
28625.7352
28625.7352
28625.7352
28625.82051
28625.82051
28625.7352
28625.7352
28625.7352
28625.7352
28625.82051
28625.82051
28625.7352
28625.7352
28625.7352
28625.7352
28625.7352
28625.82051
28625.82051
28625.7352
28625.7352
28625.7352
28625.7352
28625.82051
28625.82051
28625.7352
28625.7352
28625.7352
28625.7352
28625.82051
28625.82051
28625.7352
28625.7352
28625.7352
28625.7352
28625.82051
28625.82051
28625.7352
28625.7352
28625.7352
)


101
(
28625.76186
28625.76186
28625.76186
28625.76186
28625.76453
28625.76186
28625.76186
28625.76186
28625.76719
28625.76719
28625.75653
28625.75653
28625.75653
28625.76719
28625.77786
28625.75653
28625.75653
28625.77786
28625.75653
28625.75653
28625.75653
28625.75653
28625.77786
28625.75653
28625.75653
28625.75653
28625.77786
28625.77786
28625.7352
28625.77786
28625.77786
28625.7352
28625.77786
28625.77786
28625.7352
28625.77786
28625.77786
28625.7352
28625.7352
28625.77786
28625.77786
28625.7352
28625.77786
28625.77786
28625.7352
28625.77786
28625.77786
28625.7352
28625.77786
28625.77786
28625.7352
28625.7352
28625.7352
28625.82051
28625.82051
28625.7352
28625.7352
28625.7352
28625.7352
28625.82051
28625.82051
28625.7352
28625.7352
28625.7352
28625.7352
28625.82051
28625.82051
28625.7352
28625.7352
28625.7352
28625.7352
28625.82051
28625.82051
28625.7352
28625.7352
28625.7352
28625.7352
28625.7352
28625.82051
28625.82051
28625.7352
28625.7352
28625.7352
28625.7352
28625.82051
28625.82051
28625.7352
28625.7352
28625.7352
28625.7352
28625.82051
28625.82051
28625.7352
28625.7352
28625.7352
28625.7352
28625.82051
28625.82051
28625.7352
28625.7352
28625.7352
)


101
(
28625.76186
28625.76186
28625.76186
28625.76186
28625.76453
28625.76186
28625.76186
28625.76186
28625.76719
28625.76719
28625.75653
28625.75653
28625.75653
28625.76719
28625.77786
28625.75653
28625.75653
28625.77786
28625.75653
28625.75653
28625.75653
28625.75653
28625.77786
28625.75653
28625.75653
28625.75653
28625.77786
28625.77786
28625.7352
28625.77786
28625.77786
28625.7352
28625.77786
28625.77786
28625.7352
28625.77786
28625.77786
28625.7352
28625.7352
28625.77786
28625.77786
28625.7352
28625.77786
28625.77786
28625.7352
28625.77786
28625.77786
28625.7352
28625.77786
28625.77786
28625.7352
28625.7352
28625.7352
28625.82051
28625.82051
28625.7352
28625.7352
28625.7352
28625.7352
28625.82051
28625.82051
28625.7352
28625.7352
28625.7352
28625.7352
28625.82051
28625.82051
28625.7352
28625.7352
28625.7352
28625.7352
28625.82051
28625.82051
28625.7352
28625.7352
28625.7352
28625.7352
28625.7352
28625.82051
28625.82051
28625.7352
28625.7352
28625.7352
28625.7352
28625.82051
28625.82051
28625.7352
28625.7352
28625.7352
28625.7352
28625.82051
28625.82051
28625.7352
28625.7352
28625.7352
28625.7352
28625.82051
28625.82051
28625.7352
28625.7352
28625.7352
)


101
(
28625.76186
28625.76186
28625.76186
28625.76186
28625.76453
28625.76186
28625.76186
28625.76186
28625.76719
28625.76719
28625.75653
28625.75653
28625.75653
28625.76719
28625.77786
28625.75653
28625.75653
28625.77786
28625.75653
28625.75653
28625.75653
28625.75653
28625.77786
28625.75653
28625.75653
28625.75653
28625.77786
28625.77786
28625.7352
28625.77786
28625.77786
28625.7352
28625.77786
28625.77786
28625.7352
28625.77786
28625.77786
28625.7352
28625.7352
28625.77786
28625.77786
28625.7352
28625.77786
28625.77786
28625.7352
28625.77786
28625.77786
28625.7352
28625.77786
28625.77786
28625.7352
28625.7352
28625.7352
28625.82051
28625.82051
28625.7352
28625.7352
28625.7352
28625.7352
28625.82051
28625.82051
28625.7352
28625.7352
28625.7352
28625.7352
28625.82051
28625.82051
28625.7352
28625.7352
28625.7352
28625.7352
28625.82051
28625.82051
28625.7352
28625.7352
28625.7352
28625.7352
28625.7352
28625.82051
28625.82051
28625.7352
28625.7352
28625.7352
28625.7352
28625.82051
28625.82051
28625.7352
28625.7352
28625.7352
28625.7352
28625.82051
28625.82051
28625.7352
28625.7352
28625.7352
28625.7352
28625.82051
28625.82051
28625.7352
28625.7352
28625.7352
)


101
(
28625.76186
28625.76186
28625.76186
28625.76186
28625.76453
28625.76186
28625.76186
28625.76186
28625.76719
28625.76719
28625.75653
28625.75653
28625.75653
28625.76719
28625.77786
28625.75653
28625.75653
28625.77786
28625.75653
28625.75653
28625.75653
28625.75653
28625.77786
28625.75653
28625.75653
28625.75653
28625.77786
28625.77786
28625.7352
28625.77786
28625.77786
28625.7352
28625.77786
28625.77786
28625.7352
28625.77786
28625.77786
28625.7352
28625.7352
28625.77786
28625.77786
28625.7352
28625.77786
28625.77786
28625.7352
28625.77786
28625.77786
28625.7352
28625.77786
28625.77786
28625.7352
28625.7352
28625.7352
28625.82051
28625.82051
28625.7352
28625.7352
28625.7352
28625.7352
28625.82051
28625.82051
28625.7352
28625.7352
28625.7352
28625.7352
28625.82051
28625.82051
28625.7352
28625.7352
28625.7352
28625.7352
28625.82051
28625.82051
28625.7352
28625.7352
28625.7352
28625.7352
28625.7352
28625.82051
28625.82051
28625.7352
28625.7352
28625.7352
28625.7352
28625.82051
28625.82051
28625.7352
28625.7352
28625.7352
28625.7352
28625.82051
28625.82051
28625.7352
28625.7352
28625.7352
28625.7352
28625.82051
28625.82051
28625.7352
28625.7352
28625.7352
)


101
(
28625.76186
28625.76186
28625.76186
28625.76186
28625.76453
28625.76186
28625.76186
28625.76186
28625.76719
28625.76719
28625.75653
28625.75653
28625.75653
28625.76719
28625.77786
28625.75653
28625.75653
28625.77786
28625.75653
28625.75653
28625.75653
28625.75653
28625.77786
28625.75653
28625.75653
28625.75653
28625.77786
28625.77786
28625.7352
28625.77786
28625.77786
28625.7352
28625.77786
28625.77786
28625.7352
28625.77786
28625.77786
28625.7352
28625.7352
28625.77786
28625.77786
28625.7352
28625.77786
28625.77786
28625.7352
28625.77786
28625.77786
28625.7352
28625.77786
28625.77786
28625.7352
28625.7352
28625.7352
28625.82051
28625.82051
28625.7352
28625.7352
28625.7352
28625.7352
28625.82051
28625.82051
28625.7352
28625.7352
28625.7352
28625.7352
28625.82051
28625.82051
28625.7352
28625.7352
28625.7352
28625.7352
28625.82051
28625.82051
28625.7352
28625.7352
28625.7352
28625.7352
28625.7352
28625.82051
28625.82051
28625.7352
28625.7352
28625.7352
28625.7352
28625.82051
28625.82051
28625.7352
28625.7352
28625.7352
28625.7352
28625.82051
28625.82051
28625.7352
28625.7352
28625.7352
28625.7352
28625.82051
28625.82051
28625.7352
28625.7352
28625.7352
)


101
(
28625.76186
28625.76186
28625.76186
28625.76186
28625.76453
28625.76186
28625.76186
28625.76186
28625.76719
28625.76719
28625.75653
28625.75653
28625.75653
28625.76719
28625.77786
28625.75653
28625.75653
28625.77786
28625.75653
28625.75653
28625.75653
28625.75653
28625.77786
28625.75653
28625.75653
28625.75653
28625.77786
28625.77786
28625.7352
28625.77786
28625.77786
28625.7352
28625.77786
28625.77786
28625.7352
28625.77786
28625.77786
28625.7352
28625.7352
28625.77786
28625.77786
28625.7352
28625.77786
28625.77786
28625.7352
28625.77786
28625.77786
28625.7352
28625.77786
28625.77786
28625.7352
28625.7352
28625.7352
28625.82051
28625.82051
28625.7352
28625.7352
28625.7352
28625.7352
28625.82051
28625.82051
28625.7352
28625.7352
28625.7352
28625.7352
28625.82051
28625.82051
28625.7352
28625.7352
28625.7352
28625.7352
28625.82051
28625.82051
28625.7352
28625.7352
28625.7352
28625.7352
28625.7352
28625.82051
28625.82051
28625.7352
28625.7352
28625.7352
28625.7352
28625.82051
28625.82051
28625.7352
28625.7352
28625.7352
28625.7352
28625.82051
28625.82051
28625.7352
28625.7352
28625.7352
28625.7352
28625.82051
28625.82051
28625.7352
28625.7352
28625.7352
)


101
(
28625.76186
28625.76186
28625.76186
28625.76186
28625.76453
28625.76186
28625.76186
28625.76186
28625.76719
28625.76719
28625.75653
28625.75653
28625.75653
28625.76719
28625.77786
28625.75653
28625.75653
28625.77786
28625.75653
28625.75653
28625.75653
28625.75653
28625.77786
28625.75653
28625.75653
28625.75653
28625.77786
28625.77786
28625.7352
28625.77786
28625.77786
28625.7352
28625.77786
28625.77786
28625.7352
28625.77786
28625.77786
28625.7352
28625.7352
28625.77786
28625.77786
28625.7352
28625.77786
28625.77786
28625.7352
28625.77786
28625.77786
28625.7352
28625.77786
28625.77786
28625.7352
28625.7352
28625.7352
28625.82051
28625.82051
28625.7352
28625.7352
28625.7352
28625.7352
28625.82051
28625.82051
28625.7352
28625.7352
28625.7352
28625.7352
28625.82051
28625.82051
28625.7352
28625.7352
28625.7352
28625.7352
28625.82051
28625.82051
28625.7352
28625.7352
28625.7352
28625.7352
28625.7352
28625.82051
28625.82051
28625.7352
28625.7352
28625.7352
28625.7352
28625.82051
28625.82051
28625.7352
28625.7352
28625.7352
28625.7352
28625.82051
28625.82051
28625.7352
28625.7352
28625.7352
28625.7352
28625.82051
28625.82051
28625.7352
28625.7352
28625.7352
)


101
(
28625.76186
28625.76186
28625.76186
28625.76186
28625.76453
28625.76186
28625.76186
28625.76186
28625.76719
28625.76719
28625.75653
28625.75653
28625.75653
28625.76719
28625.77786
28625.75653
28625.75653
28625.77786
28625.75653
28625.75653
28625.75653
28625.75653
28625.77786
28625.75653
28625.75653
28625.75653
28625.77786
28625.77786
28625.7352
28625.77786
28625.77786
28625.7352
28625.77786
28625.77786
28625.7352
28625.77786
28625.77786
28625.7352
28625.7352
28625.77786
28625.77786
28625.7352
28625.77786
28625.77786
28625.7352
28625.77786
28625.77786
28625.7352
28625.77786
28625.77786
28625.7352
28625.7352
28625.7352
28625.82051
28625.82051
28625.7352
28625.7352
28625.7352
28625.7352
28625.82051
28625.82051
28625.7352
28625.7352
28625.7352
28625.7352
28625.82051
28625.82051
28625.7352
28625.7352
28625.7352
28625.7352
28625.82051
28625.82051
28625.7352
28625.7352
28625.7352
28625.7352
28625.7352
28625.82051
28625.82051
28625.7352
28625.7352
28625.7352
28625.7352
28625.82051
28625.82051
28625.7352
28625.7352
28625.7352
28625.7352
28625.82051
28625.82051
28625.7352
28625.7352
28625.7352
28625.7352
28625.82051
28625.82051
28625.7352
28625.7352
28625.7352
)


101
(
28625.76186
28625.76186
28625.76186
28625.76186
28625.76453
28625.76186
28625.76186
28625.76186
28625.76719
28625.76719
28625.75653
28625.75653
28625.75653
28625.76719
28625.77786
28625.75653
28625.75653
28625.77786
28625.75653
28625.75653
28625.75653
28625.75653
28625.77786
28625.75653
28625.75653
28625.75653
28625.77786
28625.77786
28625.7352
28625.77786
28625.77786
28625.7352
28625.77786
28625.77786
28625.7352
28625.77786
28625.77786
28625.7352
28625.7352
28625.77786
28625.77786
28625.7352
28625.77786
28625.77786
28625.7352
28625.77786
28625.77786
28625.7352
28625.77786
28625.77786
28625.7352
28625.7352
28625.7352
28625.82051
28625.82051
28625.7352
28625.7352
28625.7352
28625.7352
28625.82051
28625.82051
28625.7352
28625.7352
28625.7352
28625.7352
28625.82051
28625.82051
28625.7352
28625.7352
28625.7352
28625.7352
28625.82051
28625.82051
28625.7352
28625.7352
28625.7352
28625.7352
28625.7352
28625.82051
28625.82051
28625.7352
28625.7352
28625.7352
28625.7352
28625.82051
28625.82051
28625.7352
28625.7352
28625.7352
28625.7352
28625.82051
28625.82051
28625.7352
28625.7352
28625.7352
28625.7352
28625.82051
28625.82051
28625.7352
28625.7352
28625.7352
)


101
(
28625.76186
28625.76186
28625.76186
28625.76186
28625.76453
28625.76186
28625.76186
28625.76186
28625.76719
28625.76719
28625.75653
28625.75653
28625.75653
28625.76719
28625.77786
28625.75653
28625.75653
28625.77786
28625.75653
28625.75653
28625.75653
28625.75653
28625.77786
28625.75653
28625.75653
28625.75653
28625.77786
28625.77786
28625.7352
28625.77786
28625.77786
28625.7352
28625.77786
28625.77786
28625.7352
28625.77786
28625.77786
28625.7352
28625.7352
28625.77786
28625.77786
28625.7352
28625.77786
28625.77786
28625.7352
28625.77786
28625.77786
28625.7352
28625.77786
28625.77786
28625.7352
28625.7352
28625.7352
28625.82051
28625.82051
28625.7352
28625.7352
28625.7352
28625.7352
28625.82051
28625.82051
28625.7352
28625.7352
28625.7352
28625.7352
28625.82051
28625.82051
28625.7352
28625.7352
28625.7352
28625.7352
28625.82051
28625.82051
28625.7352
28625.7352
28625.7352
28625.7352
28625.7352
28625.82051
28625.82051
28625.7352
28625.7352
28625.7352
28625.7352
28625.82051
28625.82051
28625.7352
28625.7352
28625.7352
28625.7352
28625.82051
28625.82051
28625.7352
28625.7352
28625.7352
28625.7352
28625.82051
28625.82051
28625.7352
28625.7352
28625.7352
)


101
(
28625.76186
28625.76186
28625.76186
28625.76186
28625.76453
28625.76186
28625.76186
28625.76186
28625.76719
28625.76719
28625.75653
28625.75653
28625.75653
28625.76719
28625.77786
28625.75653
28625.75653
28625.77786
28625.75653
28625.75653
28625.75653
28625.75653
28625.77786
28625.75653
28625.75653
28625.75653
28625.77786
28625.77786
28625.7352
28625.77786
28625.77786
28625.7352
28625.77786
28625.77786
28625.7352
28625.77786
28625.77786
28625.7352
28625.7352
28625.77786
28625.77786
28625.7352
28625.77786
28625.77786
28625.7352
28625.77786
28625.77786
28625.7352
28625.77786
28625.77786
28625.7352
28625.7352
28625.7352
28625.82051
28625.82051
28625.7352
28625.7352
28625.7352
28625.7352
28625.82051
28625.82051
28625.7352
28625.7352
28625.7352
28625.7352
28625.82051
28625.82051
28625.7352
28625.7352
28625.7352
28625.7352
28625.82051
28625.82051
28625.7352
28625.7352
28625.7352
28625.7352
28625.7352
28625.82051
28625.82051
28625.7352
28625.7352
28625.7352
28625.7352
28625.82051
28625.82051
28625.7352
28625.7352
28625.7352
28625.7352
28625.82051
28625.82051
28625.7352
28625.7352
28625.7352
28625.7352
28625.82051
28625.82051
28625.7352
28625.7352
28625.7352
)


101
(
28625.76186
28625.76186
28625.76186
28625.76186
28625.76453
28625.76186
28625.76186
28625.76186
28625.76719
28625.76719
28625.75653
28625.75653
28625.75653
28625.76719
28625.77786
28625.75653
28625.75653
28625.77786
28625.75653
28625.75653
28625.75653
28625.75653
28625.77786
28625.75653
28625.75653
28625.75653
28625.77786
28625.77786
28625.7352
28625.77786
28625.77786
28625.7352
28625.77786
28625.77786
28625.7352
28625.77786
28625.77786
28625.7352
28625.7352
28625.77786
28625.77786
28625.7352
28625.77786
28625.77786
28625.7352
28625.77786
28625.77786
28625.7352
28625.77786
28625.77786
28625.7352
28625.7352
28625.7352
28625.82051
28625.82051
28625.7352
28625.7352
28625.7352
28625.7352
28625.82051
28625.82051
28625.7352
28625.7352
28625.7352
28625.7352
28625.82051
28625.82051
28625.7352
28625.7352
28625.7352
28625.7352
28625.82051
28625.82051
28625.7352
28625.7352
28625.7352
28625.7352
28625.7352
28625.82051
28625.82051
28625.7352
28625.7352
28625.7352
28625.7352
28625.82051
28625.82051
28625.7352
28625.7352
28625.7352
28625.7352
28625.82051
28625.82051
28625.7352
28625.7352
28625.7352
28625.7352
28625.82051
28625.82051
28625.7352
28625.7352
28625.7352
)


101
(
28625.76186
28625.76186
28625.76186
28625.76186
28625.76453
28625.76186
28625.76186
28625.76186
28625.76719
28625.76719
28625.75653
28625.75653
28625.75653
28625.76719
28625.77786
28625.75653
28625.75653
28625.77786
28625.75653
28625.75653
28625.75653
28625.75653
28625.77786
28625.75653
28625.75653
28625.75653
28625.77786
28625.77786
28625.7352
28625.77786
28625.77786
28625.7352
28625.77786
28625.77786
28625.7352
28625.77786
28625.77786
28625.7352
28625.7352
28625.77786
28625.77786
28625.7352
28625.77786
28625.77786
28625.7352
28625.77786
28625.77786
28625.7352
28625.77786
28625.77786
28625.7352
28625.7352
28625.7352
28625.82051
28625.82051
28625.7352
28625.7352
28625.7352
28625.7352
28625.82051
28625.82051
28625.7352
28625.7352
28625.7352
28625.7352
28625.82051
28625.82051
28625.7352
28625.7352
28625.7352
28625.7352
28625.82051
28625.82051
28625.7352
28625.7352
28625.7352
28625.7352
28625.7352
28625.82051
28625.82051
28625.7352
28625.7352
28625.7352
28625.7352
28625.82051
28625.82051
28625.7352
28625.7352
28625.7352
28625.7352
28625.82051
28625.82051
28625.7352
28625.7352
28625.7352
28625.7352
28625.82051
28625.82051
28625.7352
28625.7352
28625.7352
)


101
(
28625.76186
28625.76186
28625.76186
28625.76186
28625.76453
28625.76186
28625.76186
28625.76186
28625.76719
28625.76719
28625.75653
28625.75653
28625.75653
28625.76719
28625.77786
28625.75653
28625.75653
28625.77786
28625.75653
28625.75653
28625.75653
28625.75653
28625.77786
28625.75653
28625.75653
28625.75653
28625.77786
28625.77786
28625.7352
28625.77786
28625.77786
28625.7352
28625.77786
28625.77786
28625.7352
28625.77786
28625.77786
28625.7352
28625.7352
28625.77786
28625.77786
28625.7352
28625.77786
28625.77786
28625.7352
28625.77786
28625.77786
28625.7352
28625.77786
28625.77786
28625.7352
28625.7352
28625.7352
28625.82051
28625.82051
28625.7352
28625.7352
28625.7352
28625.7352
28625.82051
28625.82051
28625.7352
28625.7352
28625.7352
28625.7352
28625.82051
28625.82051
28625.7352
28625.7352
28625.7352
28625.7352
28625.82051
28625.82051
28625.7352
28625.7352
28625.7352
28625.7352
28625.7352
28625.82051
28625.82051
28625.7352
28625.7352
28625.7352
28625.7352
28625.82051
28625.82051
28625.7352
28625.7352
28625.7352
28625.7352
28625.82051
28625.82051
28625.7352
28625.7352
28625.7352
28625.7352
28625.82051
28625.82051
28625.7352
28625.7352
28625.7352
)


101
(
28625.76186
28625.76186
28625.76186
28625.76186
28625.76453
28625.76186
28625.76186
28625.76186
28625.76719
28625.76719
28625.75653
28625.75653
28625.75653
28625.76719
28625.77786
28625.75653
28625.75653
28625.77786
28625.75653
28625.75653
28625.75653
28625.75653
28625.77786
28625.75653
28625.75653
28625.75653
28625.77786
28625.77786
28625.7352
28625.77786
28625.77786
28625.7352
28625.77786
28625.77786
28625.7352
28625.77786
28625.77786
28625.7352
28625.7352
28625.77786
28625.77786
28625.7352
28625.77786
28625.77786
28625.7352
28625.77786
28625.77786
28625.7352
28625.77786
28625.77786
28625.7352
28625.7352
28625.7352
28625.82051
28625.82051
28625.7352
28625.7352
28625.7352
28625.7352
28625.82051
28625.82051
28625.7352
28625.7352
28625.7352
28625.7352
28625.82051
28625.82051
28625.7352
28625.7352
28625.7352
28625.7352
28625.82051
28625.82051
28625.7352
28625.7352
28625.7352
28625.7352
28625.7352
28625.82051
28625.82051
28625.7352
28625.7352
28625.7352
28625.7352
28625.82051
28625.82051
28625.7352
28625.7352
28625.7352
28625.7352
28625.82051
28625.82051
28625.7352
28625.7352
28625.7352
28625.7352
28625.82051
28625.82051
28625.7352
28625.7352
28625.7352
)


101
(
28625.76186
28625.76186
28625.76186
28625.76186
28625.76453
28625.76186
28625.76186
28625.76186
28625.76719
28625.76719
28625.75653
28625.75653
28625.75653
28625.76719
28625.77786
28625.75653
28625.75653
28625.77786
28625.75653
28625.75653
28625.75653
28625.75653
28625.77786
28625.75653
28625.75653
28625.75653
28625.77786
28625.77786
28625.7352
28625.77786
28625.77786
28625.7352
28625.77786
28625.77786
28625.7352
28625.77786
28625.77786
28625.7352
28625.7352
28625.77786
28625.77786
28625.7352
28625.77786
28625.77786
28625.7352
28625.77786
28625.77786
28625.7352
28625.77786
28625.77786
28625.7352
28625.7352
28625.7352
28625.82051
28625.82051
28625.7352
28625.7352
28625.7352
28625.7352
28625.82051
28625.82051
28625.7352
28625.7352
28625.7352
28625.7352
28625.82051
28625.82051
28625.7352
28625.7352
28625.7352
28625.7352
28625.82051
28625.82051
28625.7352
28625.7352
28625.7352
28625.7352
28625.7352
28625.82051
28625.82051
28625.7352
28625.7352
28625.7352
28625.7352
28625.82051
28625.82051
28625.7352
28625.7352
28625.7352
28625.7352
28625.82051
28625.82051
28625.7352
28625.7352
28625.7352
28625.7352
28625.82051
28625.82051
28625.7352
28625.7352
28625.7352
)


101
(
28625.76186
28625.76186
28625.76186
28625.76186
28625.76453
28625.76186
28625.76186
28625.76186
28625.76719
28625.76719
28625.75653
28625.75653
28625.75653
28625.76719
28625.77786
28625.75653
28625.75653
28625.77786
28625.75653
28625.75653
28625.75653
28625.75653
28625.77786
28625.75653
28625.75653
28625.75653
28625.77786
28625.77786
28625.7352
28625.77786
28625.77786
28625.7352
28625.77786
28625.77786
28625.7352
28625.77786
28625.77786
28625.7352
28625.7352
28625.77786
28625.77786
28625.7352
28625.77786
28625.77786
28625.7352
28625.77786
28625.77786
28625.7352
28625.77786
28625.77786
28625.7352
28625.7352
28625.7352
28625.82051
28625.82051
28625.7352
28625.7352
28625.7352
28625.7352
28625.82051
28625.82051
28625.7352
28625.7352
28625.7352
28625.7352
28625.82051
28625.82051
28625.7352
28625.7352
28625.7352
28625.7352
28625.82051
28625.82051
28625.7352
28625.7352
28625.7352
28625.7352