/*--------------------------------*- C++ -*----------------------------------*\
| =========                 |                                                 |
| \\      /  F ield         | OpenFOAM: The Open Source CFD Toolbox           |
|  \\    /   O peration     | Version:  2.3.1                                 |
|   \\  /    A nd           | Web:      www.OpenFOAM.org                      |
|    \\/     M anipulation  |                                                 |
\*---------------------------------------------------------------------------*/
FoamFile
{
    version     2.0;
    format      ascii;
    class       dictionary;
    location    "constant";
    object      GRPSI50;
}
// * * * * * * * * * * * * * * * * * * * * * * * * * * * * * * * * * * * * * //

GRPSI50_table
101
(

101
(
-6.603611772e-13
-4.147107619e-10
-1.576350183e-09
-3.26509649e-09
-5.432137998e-09
-8.1439682e-09
-1.144717179e-08
-1.561037142e-08
-2.067243884e-08
-2.688862115e-08
-3.438255954e-08
-4.345098327e-08
-5.377410646e-08
-6.501246462e-08
-7.515781693e-08
-8.209727867e-08
-8.312650965e-08
-7.49780674e-08
-5.972839202e-08
-3.226978856e-08
-2.125465012e-09
2.900058165e-08
6.231636629e-08
9.061323621e-08
1.122515686e-07
1.271961046e-07
1.357175265e-07
1.386218336e-07
1.371395181e-07
1.325000226e-07
1.256878559e-07
1.176969623e-07
1.096556265e-07
9.868808069e-08
8.933020609e-08
8.044580867e-08
6.562784355e-08
5.233879872e-08
5.965221315e-08
5.623070234e-08
5.043924964e-08
4.527575941e-08
4.008580217e-08
3.559879443e-08
3.192149473e-08
2.842928797e-08
2.545663869e-08
2.260879322e-08
2.015305635e-08
1.7858593e-08
1.587104933e-08
1.407196381e-08
1.244470605e-08
1.096301158e-08
9.663433197e-09
8.525955943e-09
7.413401119e-09
6.538234051e-09
5.690945998e-09
4.97683692e-09
4.31838086e-09
3.739191675e-09
3.230316896e-09
2.762279054e-09
2.352397226e-09
2.005245479e-09
1.699079595e-09
1.428547564e-09
1.186767187e-09
9.828122608e-10
8.058091163e-10
6.560071828e-10
5.250065114e-10
4.136597879e-10
2.989504534e-10
2.27669954e-10
1.87019273e-10
1.461848674e-10
1.112637735e-10
8.318206716e-11
6.113434147e-11
4.322967919e-11
3.014031876e-11
1.863842651e-11
1.239142985e-11
8.792303334e-12
5.967834156e-12
3.850931672e-12
2.402315845e-12
1.295727807e-12
8.135076932e-13
5.062668362e-13
2.804232097e-13
1.452635558e-13
7.454284783e-14
3.294839115e-14
6.931925282e-15
1.012648812e-14
1.752490439e-14
3.859553534e-14
8.524735412e-14
)


101
(
-6.603611757e-13
-4.129426085e-10
-1.569689759e-09
-3.250009073e-09
-5.403140916e-09
-8.092830654e-09
-1.136404179e-08
-1.54780017e-08
-2.047618405e-08
-2.660607118e-08
-3.399649482e-08
-4.294635617e-08
-5.318619308e-08
-6.441282075e-08
-7.475110061e-08
-8.212728291e-08
-8.391488878e-08
-7.691777972e-08
-6.258675872e-08
-3.67052397e-08
-6.973968712e-09
2.42345283e-08
5.738102808e-08
8.64266175e-08
1.093023239e-07
1.256650015e-07
1.356668209e-07
1.399928137e-07
1.397344254e-07
1.360924123e-07
1.300941169e-07
1.227636183e-07
1.151708819e-07
1.051134905e-07
9.573546434e-08
8.663064836e-08
7.288577892e-08
5.904101795e-08
6.163309316e-08
5.935217873e-08
5.451554592e-08
4.950306929e-08
4.438605392e-08
3.977005494e-08
3.585094333e-08
3.223475493e-08
2.90866147e-08
2.612852046e-08
2.350454205e-08
2.106920324e-08
1.890352804e-08
1.693836496e-08
1.515690211e-08
1.353666704e-08
1.208146761e-08
1.077562181e-08
9.52419034e-09
8.462140995e-09
7.469575597e-09
6.596552272e-09
5.799849748e-09
5.084507045e-09
4.444063977e-09
3.860856322e-09
3.340355496e-09
2.882433872e-09
2.473596354e-09
2.108989032e-09
1.783718162e-09
1.498748283e-09
1.248931372e-09
1.032305449e-09
8.451070423e-10
6.839448786e-10
5.303311393e-10
4.126646607e-10
3.290113853e-10
2.586220976e-10
2.005601302e-10
1.532362071e-10
1.152970291e-10
8.477365673e-11
6.134264076e-11
4.221909024e-11
2.900367219e-11
2.003123445e-11
1.378980981e-11
9.310967623e-12
6.09255027e-12
3.816633918e-12
2.404599119e-12
1.485196364e-12
9.193450273e-13
5.399728539e-13
3.159775846e-13
1.690211095e-13
5.678319572e-14
9.854344367e-14
1.734449368e-13
3.464452989e-13
6.380077623e-13
)


101
(
-6.603611757e-13
-4.094043383e-10
-1.556366712e-09
-3.219769957e-09
-5.344786045e-09
-7.989321313e-09
-1.119445391e-08
-1.520586393e-08
-2.006818571e-08
-2.601140346e-08
-3.31695549e-08
-4.184021996e-08
-5.184212485e-08
-6.293568073e-08
-7.349436517e-08
-8.152807376e-08
-8.455284614e-08
-7.951371535e-08
-6.677532903e-08
-4.353682893e-08
-1.454100295e-08
1.703159931e-08
5.033150073e-08
8.10596959e-08
1.065853284e-07
1.25992338e-07
1.391477838e-07
1.464856868e-07
1.488487454e-07
1.473330082e-07
1.430102418e-07
1.369746687e-07
1.302364159e-07
1.217892793e-07
1.127394082e-07
1.03065819e-07
9.121647503e-08
7.71524084e-08
7.220606399e-08
6.999701775e-08
6.632940789e-08
6.164033317e-08
5.654878943e-08
5.154917678e-08
4.700213079e-08
4.289157112e-08
3.919775793e-08
3.580716065e-08
3.268160745e-08
2.97844061e-08
2.710533797e-08
2.464260416e-08
2.238383152e-08
2.03132626e-08
1.840729754e-08
1.665506294e-08
1.50018639e-08
1.348422571e-08
1.209147308e-08
1.081363777e-08
9.647720366e-09
8.581695462e-09
7.608979012e-09
6.721984664e-09
5.912976723e-09
5.176046458e-09
4.509553923e-09
3.906246873e-09
3.367049716e-09
2.883108681e-09
2.450813359e-09
2.066971065e-09
1.731614017e-09
1.439231803e-09
1.177723745e-09
9.501936859e-10
7.622119244e-10
6.07782595e-10
4.808879279e-10
3.769353379e-10
2.921558528e-10
2.230917833e-10
1.678529862e-10
1.238031994e-10
8.946450878e-11
6.355666491e-11
4.460760999e-11
3.128676545e-11
2.154568332e-11
1.442157269e-11
9.47211527e-12
6.148207317e-12
4.032274295e-12
2.565399067e-12
1.619894878e-12
9.492621263e-13
3.722257205e-13
7.412835828e-13
1.338259156e-12
2.631683355e-12
5.032422569e-12
)


101
(
-6.603611757e-13
-4.058618427e-10
-1.543042179e-09
-3.189423618e-09
-5.285799384e-09
-7.883637309e-09
-1.101900183e-08
-1.492080858e-08
-1.963332721e-08
-2.536599827e-08
-3.224915e-08
-4.056981257e-08
-5.021280807e-08
-6.09876628e-08
-7.148486088e-08
-7.980914573e-08
-8.360025634e-08
-7.994090362e-08
-6.839981303e-08
-4.698772517e-08
-1.85972909e-08
1.356851471e-08
4.774377505e-08
8.043645972e-08
1.088541592e-07
1.316063583e-07
1.482143589e-07
1.588491329e-07
1.641369804e-07
1.650104437e-07
1.624901886e-07
1.577456147e-07
1.517869157e-07
1.445346914e-07
1.363051982e-07
1.272259479e-07
1.158307927e-07
1.024086005e-07
9.331102554e-08
8.838893606e-08
8.43091895e-08
7.965440669e-08
7.440495995e-08
6.890688411e-08
6.357088568e-08
5.861830123e-08
5.407303339e-08
4.99035209e-08
4.601530346e-08
4.238689634e-08
3.896988349e-08
3.577155936e-08
3.279238051e-08
3.003182726e-08
2.74671401e-08
2.507587819e-08
2.284121718e-08
2.07414715e-08
1.87908675e-08
1.696960102e-08
1.528813637e-08
1.374091193e-08
1.231633437e-08
1.100764108e-08
9.802832273e-09
8.687869106e-09
7.666647217e-09
6.734572362e-09
5.890408652e-09
5.128379226e-09
4.434594701e-09
3.809905554e-09
3.25135225e-09
2.758092069e-09
2.320327102e-09
1.932316484e-09
1.592304059e-09
1.301098445e-09
1.053949892e-09
8.466861134e-10
6.744820675e-10
5.311098494e-10
4.131816202e-10
3.1710128e-10
2.394262025e-10
1.777216892e-10
1.294510183e-10
9.341291931e-11
6.719180848e-11
4.73331801e-11
3.257691397e-11
2.202766545e-11
1.475375867e-11
9.918920539e-12
6.602054708e-12
4.123647918e-12
1.932582058e-12
4.016923172e-12
7.128055619e-12
1.353537308e-11
2.202157657e-11
)


101
(
-6.603612372e-13
-4.023151195e-10
-1.529721818e-09
-3.159011342e-09
-5.226353633e-09
-7.776335867e-09
-1.083917345e-08
-1.462629471e-08
-1.917909986e-08
-2.468495235e-08
-3.126406573e-08
-3.918698313e-08
-4.83879556e-08
-5.871570505e-08
-6.895266126e-08
-7.730971343e-08
-8.154173487e-08
-7.886698283e-08
-6.827856657e-08
-4.820774831e-08
-2.037293063e-08
1.236493397e-08
4.771565797e-08
8.250142464e-08
1.13887353e-07
1.401198925e-07
1.603634288e-07
1.745123262e-07
1.82979257e-07
1.865215819e-07
1.860804711e-07
1.827263206e-07
1.775717215e-07
1.711814094e-07
1.636970824e-07
1.556692203e-07
1.445968927e-07
1.317836699e-07
1.206475281e-07
1.128149487e-07
1.071017451e-07
1.017974791e-07
9.61738156e-08
9.017973436e-08
8.407270834e-08
7.817025264e-08
7.262373629e-08
6.750066143e-08
6.272507191e-08
5.824221221e-08
5.398581137e-08
4.994382155e-08
4.612753501e-08
4.256008617e-08
3.922874196e-08
3.609045645e-08
3.315493645e-08
3.038009648e-08
2.778496246e-08
2.533407393e-08
2.303517347e-08
2.090739456e-08
1.892725251e-08
1.709785431e-08
1.540836567e-08
1.383359679e-08
1.236913187e-08
1.101537729e-08
9.76672632e-09
8.635536141e-09
7.593893779e-09
6.640794923e-09
5.770420185e-09
4.986896458e-09
4.28360623e-09
3.653646946e-09
3.091129242e-09
2.593019112e-09
2.154098665e-09
1.774754823e-09
1.450630122e-09
1.176802309e-09
9.435499729e-10
7.487012097e-10
5.861959862e-10
4.52742033e-10
3.432543636e-10
2.564689474e-10
1.901250076e-10
1.399688452e-10
1.005596139e-10
7.113370509e-11
4.963785275e-11
3.424751018e-11
2.375737537e-11
1.560011125e-11
8.253638579e-12
1.630147512e-11
2.87525348e-11
6.148658179e-11
1.053176329e-10
)


101
(
-6.603611772e-13
-3.987641063e-10
-1.516410066e-09
-3.128570187e-09
-5.166605686e-09
-7.667913786e-09
-1.065627529e-08
-1.432528795e-08
-1.871177469e-08
-2.398063297e-08
-3.023744433e-08
-3.773245258e-08
-4.643706758e-08
-5.623137079e-08
-6.606943458e-08
-7.427854621e-08
-7.872466071e-08
-7.676186135e-08
-6.697607103e-08
-4.796989101e-08
-2.06936806e-08
1.247158165e-08
4.903758147e-08
8.59250911e-08
1.20261821e-07
1.500268378e-07
1.740460388e-07
1.919117106e-07
2.038131977e-07
2.103308239e-07
2.123166826e-07
2.106789002e-07
2.065611803e-07
2.00941305e-07
1.940393267e-07
1.863033503e-07
1.763989083e-07
1.643258378e-07
1.522764239e-07
1.423124039e-07
1.345896853e-07
1.280202106e-07
1.216812031e-07
1.151230981e-07
1.083142712e-07
1.015081545e-07
9.493544642e-08
8.879450433e-08
8.306714842e-08
7.767378187e-08
7.254281086e-08
6.761967572e-08
6.29130378e-08
5.846011892e-08
5.428912427e-08
5.034547438e-08
4.661598053e-08
4.307829169e-08
3.974159881e-08
3.657879773e-08
3.358800577e-08
3.07865828e-08
2.815555296e-08
2.569260175e-08
2.340570432e-08
2.127281346e-08
1.926826593e-08
1.73879411e-08
1.562666046e-08
1.400179131e-08
1.250569481e-08
1.112217512e-08
9.839062126e-09
8.656831956e-09
7.575563302e-09
6.59275311e-09
5.706225627e-09
4.901642876e-09
4.173788424e-09
3.525381152e-09
2.954320483e-09
2.46163483e-09
2.030777576e-09
1.659587155e-09
1.342962524e-09
1.073654278e-09
8.453399902e-10
6.552361511e-10
5.023385965e-10
3.832558652e-10
2.866757112e-10
2.104151852e-10
1.534559447e-10
1.099600861e-10
7.90148544e-11
5.306733258e-11
3.013648363e-11
6.629985764e-11
1.195967779e-10
2.548533083e-10
4.157813612e-10
)


101
(
-6.603611757e-13
-3.952082903e-10
-1.503111678e-09
-3.098135808e-09
-5.10669247e-09
-7.558777237e-09
-1.047134061e-08
-1.402014586e-08
-1.823654189e-08
-2.326321994e-08
-2.918795149e-08
-3.62387738e-08
-4.441458647e-08
-5.36213487e-08
-6.296641034e-08
-7.090265743e-08
-7.540741065e-08
-7.396965018e-08
-6.489760814e-08
-4.681414829e-08
-2.014028902e-08
1.324618727e-08
5.089687491e-08
8.978387684e-08
1.269784651e-07
1.602581424e-07
1.881549729e-07
2.099443282e-07
2.255643087e-07
2.354060598e-07
2.401899516e-07
2.407563114e-07
2.381087217e-07
2.334634999e-07
2.272809766e-07
2.200312523e-07
2.110369041e-07
1.998891852e-07
1.877686564e-07
1.764870153e-07
1.669543476e-07
1.588252316e-07
1.514535641e-07
1.441936985e-07
1.36733807e-07
1.291552539e-07
1.216377681e-07
1.144609216e-07
1.077196723e-07
1.013731012e-07
9.534612311e-08
8.953435209e-08
8.393636559e-08
7.857533714e-08
7.349806877e-08
6.868566702e-08
6.412263809e-08
5.975841349e-08
5.560110852e-08
5.16319411e-08
4.785649187e-08
4.428042202e-08
4.089916937e-08
3.770471198e-08
3.470303268e-08
3.189287169e-08
2.923573513e-08
2.672670725e-08
2.434625098e-08
2.210190936e-08
2.001868372e-08
1.80727945e-08
1.625307169e-08
1.45464293e-08
1.295690114e-08
1.148276701e-08
1.013386379e-08
8.894405682e-09
7.755183408e-09
6.70972953e-09
5.759168928e-09
4.912960921e-09
4.164310109e-09
3.496063949e-09
2.913406296e-09
2.403899841e-09
1.959529794e-09
1.573560359e-09
1.250893726e-09
9.85704955e-10
7.684245325e-10
5.849528098e-10
4.428593081e-10
3.311559532e-10
2.450862923e-10
1.729261123e-10
1.056112353e-10
2.433758715e-10
4.404350017e-10
9.251036092e-10
1.486915871e-09
)


101
(
-6.603611757e-13
-3.91647388e-10
-1.489830402e-09
-3.067740066e-09
-5.046733133e-09
-7.449253501e-09
-1.028513243e-08
-1.371255367e-08
-1.775750749e-08
-2.254075023e-08
-2.813012081e-08
-3.473070153e-08
-4.236139459e-08
-5.095003769e-08
-5.974052074e-08
-6.731798746e-08
-7.177539286e-08
-7.073489222e-08
-6.232588406e-08
-4.510692499e-08
-1.910653766e-08
1.427161279e-08
5.276916084e-08
9.346201196e-08
1.333614642e-07
1.700810669e-07
2.019144962e-07
2.278322333e-07
2.47487642e-07
2.61054431e-07
2.691035393e-07
2.723907691e-07
2.717827077e-07
2.685467337e-07
2.633678971e-07
2.568542084e-07
2.487504498e-07
2.386225695e-07
2.270151821e-07
2.152103073e-07
2.043823785e-07
1.948048461e-07
1.862446756e-07
1.781302325e-07
1.700101785e-07
1.617823211e-07
1.534806739e-07
1.453634411e-07
1.376331588e-07
1.303215493e-07
1.233535644e-07
1.166554142e-07
1.101873396e-07
1.039078244e-07
9.789647241e-08
9.218287423e-08
8.673632118e-08
8.14977442e-08
7.648566877e-08
7.165842482e-08
6.702010955e-08
6.258414871e-08
5.833638444e-08
5.430606245e-08
5.048258016e-08
4.68838577e-08
4.347485203e-08
4.022545783e-08
3.711098651e-08
3.411463526e-08
3.129076907e-08
2.862239141e-08
2.612713587e-08
2.376370238e-08
2.151716984e-08
1.939491149e-08
1.74136073e-08
1.557185856e-08
1.385776244e-08
1.225057105e-08
1.075745645e-08
9.382404927e-09
8.148800683e-09
7.016760229e-09
6.003229504e-09
5.088904745e-09
4.282801332e-09
3.55266518e-09
2.921283023e-09
2.378894284e-09
1.918502415e-09
1.516922862e-09
1.193763665e-09
9.303060362e-10
7.142064004e-10
5.334147693e-10
3.474517829e-10
7.857667286e-10
1.401339338e-09
2.862890269e-09
4.726331764e-09
)


101
(
-6.603612987e-13
-3.880813312e-10
-1.476569675e-09
-3.037409294e-09
-4.986840041e-09
-7.339671817e-09
-1.009840694e-08
-1.340403383e-08
-1.727812325e-08
-2.181983671e-08
-2.707578221e-08
-3.322780347e-08
-4.030947284e-08
-4.826685281e-08
-5.646571688e-08
-6.362651007e-08
-6.796366136e-08
-6.723208186e-08
-5.945784873e-08
-4.309434424e-08
-1.785418373e-08
1.528806927e-08
5.434070313e-08
9.658601489e-08
1.390052422e-07
1.790683072e-07
2.148628454e-07
2.450802886e-07
2.690755962e-07
2.867737765e-07
2.985677378e-07
3.051179525e-07
3.07178455e-07
3.059440378e-07
3.021959678e-07
2.967501374e-07
2.897132163e-07
2.807814458e-07
2.701512065e-07
2.585630326e-07
2.470983904e-07
2.364206015e-07
2.267400843e-07
2.17720726e-07
2.08933877e-07
2.001565383e-07
1.912575177e-07
1.824113512e-07
1.738094623e-07
1.655749657e-07
1.576973618e-07
1.501665085e-07
1.428758474e-07
1.357396964e-07
1.288261575e-07
1.221731032e-07
1.158162288e-07
1.096492844e-07
1.037508036e-07
9.805427785e-08
9.252076149e-08
8.718431296e-08
8.200785194e-08
7.704186948e-08
7.22870134e-08
6.776532481e-08
6.347998966e-08
5.936128789e-08
5.539236695e-08
5.153690338e-08
4.783795122e-08
4.430217976e-08
4.094367901e-08
3.775184646e-08
3.469201095e-08
3.176066464e-08
2.895550206e-08
2.630944402e-08
2.382824164e-08
2.146300434e-08
1.921626076e-08
1.711337934e-08
1.517181903e-08
1.337770208e-08
1.170697574e-08
1.016385276e-08
8.788218608e-09
7.507440985e-09
6.358215185e-09
5.340609791e-09
4.438440462e-09
3.643224433e-09
2.968171265e-09
2.400211081e-09
1.910671695e-09
1.486825253e-09
1.0525707e-09
2.254579008e-09
3.914424841e-09
7.573823849e-09
1.278173115e-08
)


101
(
-6.603612987e-13
-3.845091942e-10
-1.463331143e-09
-3.007159515e-09
-4.927092195e-09
-7.230314617e-09
-9.911924085e-09
-1.309617155e-08
-1.6801143e-08
-2.1105389e-08
-2.603407243e-08
-3.174580521e-08
-3.828463491e-08
-4.561159342e-08
-5.320079566e-08
-5.990820571e-08
-6.407586584e-08
-6.359137055e-08
-5.643640123e-08
-4.09480972e-08
-1.656546336e-08
1.612927103e-08
5.544922215e-08
9.895147935e-08
1.4367567e-07
1.86967804e-07
2.267145073e-07
2.613531537e-07
2.899508968e-07
3.121714212e-07
3.281878848e-07
3.385257785e-07
3.438576438e-07
3.453024113e-07
3.435778128e-07
3.396874296e-07
3.340831476e-07
3.266535147e-07
3.17404695e-07
3.06689737e-07
2.953168871e-07
2.840621178e-07
2.73577626e-07
2.638010517e-07
2.54444029e-07
2.45263475e-07
2.35967482e-07
2.266102472e-07
2.173048172e-07
2.082811397e-07
1.996155795e-07
1.91340604e-07
1.833296585e-07
1.754798097e-07
1.677139684e-07
1.601665864e-07
1.52941188e-07
1.458774138e-07
1.390856725e-07
1.325162061e-07
1.26080546e-07
1.198062352e-07
1.136989601e-07
1.07747168e-07
1.019629257e-07
9.637091051e-08
9.107254359e-08
8.597004164e-08
8.105521146e-08
7.624961965e-08
7.155727946e-08
6.700247543e-08
6.26143238e-08
5.841123409e-08
5.436900829e-08
5.043848872e-08
4.661815019e-08
4.296223803e-08
3.948224212e-08
3.614109775e-08
3.290807081e-08
2.983864403e-08
2.692765091e-08
2.421889161e-08
2.163181379e-08
1.917151464e-08
1.693269925e-08
1.483788658e-08
1.288916894e-08
1.113362364e-08
9.507339859e-09
8.053056822e-09
6.768891648e-09
5.654457408e-09
4.666317846e-09
3.761641551e-09
2.831063828e-09
5.781896483e-09
9.766038873e-09
1.759875143e-08
2.717687975e-08
)


101
(
-6.603601905e-13
-3.809304367e-10
-1.45011655e-09
-2.977008917e-09
-4.867563692e-09
-7.121429902e-09
-9.726353911e-09
-1.279038806e-08
-1.632880542e-08
-2.040095499e-08
-2.501185043e-08
-3.029661719e-08
-3.630663422e-08
-4.301476029e-08
-4.999059866e-08
-5.622331179e-08
-6.018902911e-08
-5.990795678e-08
-5.336165768e-08
-3.877970424e-08
-1.535684972e-08
1.669228358e-08
5.601731328e-08
1.004514401e-07
1.472255959e-07
1.935898009e-07
2.372274327e-07
2.76355476e-07
3.097812953e-07
3.369052066e-07
3.576467589e-07
3.723362794e-07
3.815489008e-07
3.863909214e-07
3.874349027e-07
3.857407598e-07
3.820407899e-07
3.764736821e-07
3.690021541e-07
3.597648996e-07
3.492787558e-07
3.382071778e-07
3.274553968e-07
3.172773519e-07
3.075863869e-07
2.982125271e-07
2.887548372e-07
2.791349201e-07
2.694056631e-07
2.5984254e-07
2.505598324e-07
2.416505454e-07
2.330525102e-07
2.246157666e-07
2.161687002e-07
2.079598814e-07
1.999324279e-07
1.920759725e-07
1.844100319e-07
1.770101799e-07
1.69740836e-07
1.625609683e-07
1.555203042e-07
1.485720966e-07
1.417610789e-07
1.350721826e-07
1.286183207e-07
1.224352501e-07
1.16472306e-07
1.106190789e-07
1.048511815e-07
9.916088093e-08
9.361403756e-08
8.823038405e-08
8.301361602e-08
7.789858797e-08
7.289279461e-08
6.803696037e-08
6.329370346e-08
5.872731463e-08
5.428412459e-08
4.996695567e-08
4.58131671e-08
4.18809484e-08
3.808124789e-08
3.43681256e-08
3.089495074e-08
2.766088756e-08
2.458213986e-08
2.170525574e-08
1.899128027e-08
1.652032313e-08
1.426419887e-08
1.224959337e-08
1.044013983e-08
8.730093571e-09
6.962557287e-09
1.325830343e-08
2.171797818e-08
3.704392591e-08
5.56772481e-08
)


101
(
-6.603571529e-13
-3.773449809e-10
-1.436928254e-09
-2.946980408e-09
-4.808345607e-09
-7.013282758e-09
-9.542336903e-09
-1.248790904e-08
-1.586303401e-08
-1.970965453e-08
-2.401484348e-08
-2.888930815e-08
-3.439000458e-08
-4.049859177e-08
-4.686776736e-08
-5.261532199e-08
-5.635583115e-08
-5.624456316e-08
-5.029380414e-08
-3.66461645e-08
-1.428759012e-08
1.691640609e-08
5.596905218e-08
1.009762856e-07
1.494480801e-07
1.98628249e-07
2.460412367e-07
2.896994155e-07
3.281677986e-07
3.605732317e-07
3.865694817e-07
4.062630497e-07
4.200780318e-07
4.290770148e-07
4.337054465e-07
4.349733783e-07
4.337712449e-07
4.305006354e-07
4.252572561e-07
4.181390811e-07
4.0935486e-07
3.993428498e-07
3.890377689e-07
3.789840069e-07
3.693179615e-07
3.600301394e-07
3.507413463e-07
3.412611379e-07
3.315265617e-07
3.217971917e-07
3.121899404e-07
3.028740397e-07
2.938839139e-07
2.850683634e-07
2.762730276e-07
2.676000444e-07
2.589914746e-07
2.504589984e-07
2.420630329e-07
2.339176068e-07
2.259363383e-07
2.179943092e-07
2.101216304e-07
2.022666626e-07
1.944739057e-07
1.86804498e-07
1.791991946e-07
1.718472039e-07
1.64751483e-07
1.5777422e-07
1.508998515e-07
1.440552486e-07
1.372301836e-07
1.30512951e-07
1.239463662e-07
1.175174642e-07
1.111680539e-07
1.049045849e-07
9.87275689e-08
9.267293192e-08
8.672919969e-08
8.088338942e-08
7.518294007e-08
6.966230537e-08
6.432836054e-08
5.903651845e-08
5.388298988e-08
4.906305515e-08
4.44429686e-08
3.998208543e-08
3.571361831e-08
3.177623241e-08
2.808716411e-08
2.467828297e-08
2.158899243e-08
1.863910925e-08
1.562819378e-08
2.794034448e-08
4.428643448e-08
7.152761272e-08
1.039949476e-07
)


101
(
-6.603549805e-13
-3.737517766e-10
-1.423766174e-09
-2.917091393e-09
-4.749514947e-09
-6.906109329e-09
-9.360511846e-09
-1.218993389e-08
-1.540506768e-08
-1.903342553e-08
-2.304768787e-08
-2.75307721e-08
-3.254551812e-08
-3.808038376e-08
-4.385824048e-08
-4.911857912e-08
-5.261274628e-08
-5.263629965e-08
-4.726039939e-08
-3.456697934e-08
-1.338191404e-08
1.676157242e-08
5.523028723e-08
1.004383284e-07
1.50195365e-07
2.018456694e-07
2.528513731e-07
3.01038733e-07
3.447361727e-07
3.827804139e-07
4.145502196e-07
4.399292574e-07
4.591569805e-07
4.73144765e-07
4.822226331e-07
4.87307668e-07
4.89344157e-07
4.889628629e-07
4.864988217e-07
4.821664228e-07
4.759147819e-07
4.679065055e-07
4.589440909e-07
4.497177693e-07
4.405889797e-07
4.317890777e-07
4.230933334e-07
4.142639379e-07
4.050836249e-07
3.957496032e-07
3.862703736e-07
3.769248818e-07
3.679090528e-07
3.590683375e-07
3.50263299e-07
3.413738111e-07
3.326166405e-07
3.237243332e-07
3.149437143e-07
3.062621401e-07
2.978000769e-07
2.89306216e-07
2.808121239e-07
2.72283514e-07
2.637430415e-07
2.552241558e-07
2.466468071e-07
2.382027052e-07
2.299224699e-07
2.218440954e-07
2.138662448e-07
2.059232524e-07
1.978455827e-07
1.897469012e-07
1.81702885e-07
1.737764773e-07
1.65942635e-07
1.581689305e-07
1.503721349e-07
1.42621777e-07
1.348816371e-07
1.272320157e-07
1.196296317e-07
1.121205246e-07
1.048603002e-07
9.763309215e-08
9.032797103e-08
8.33572885e-08
7.664670712e-08
7.012472877e-08
6.370613286e-08
5.770912976e-08
5.197740581e-08
4.660131669e-08
4.160491046e-08
3.685759656e-08
3.211082491e-08
5.431042866e-08
8.327393443e-08
1.276148244e-07
1.802135574e-07
)


101
(
-6.60355228e-13
-3.701502483e-10
-1.410631762e-09
-2.88736122e-09
-4.691149123e-09
-6.800118959e-09
-9.181421896e-09
-1.189754287e-08
-1.49560447e-08
-1.837351128e-08
-2.211373393e-08
-2.62259501e-08
-3.078055832e-08
-3.577226085e-08
-4.098075468e-08
-4.575867641e-08
-4.898741476e-08
-4.910625661e-08
-4.427558562e-08
-3.2538054e-08
-1.262212149e-08
1.62507832e-08
5.381669782e-08
9.885642374e-08
1.494974243e-07
2.032432843e-07
2.575714862e-07
3.101701366e-07
3.591605377e-07
4.031126744e-07
4.411272306e-07
4.728317502e-07
4.98247354e-07
5.18092234e-07
5.325482693e-07
5.424118936e-07
5.486056616e-07
5.51925694e-07
5.529714669e-07
5.521175919e-07
5.492435947e-07
5.442613177e-07
5.377346925e-07
5.302868545e-07
5.224531374e-07
5.147505128e-07
5.071715632e-07
4.995410442e-07
4.915747501e-07
4.833050889e-07
4.746101032e-07
4.658427411e-07
4.573665156e-07
4.490077689e-07
4.406855151e-07
4.322113693e-07
4.238171894e-07
4.151858507e-07
4.064388483e-07
3.976694019e-07
3.89124847e-07
3.804962805e-07
3.716993776e-07
3.628805471e-07
3.540400456e-07
3.449418516e-07
3.357552624e-07
3.264262649e-07
3.172134602e-07
3.081636432e-07
2.991563955e-07
2.902124782e-07
2.810713231e-07
2.717405758e-07
2.622432168e-07
2.526686767e-07
2.43246094e-07
2.33832179e-07
2.242891078e-07
2.147030982e-07
2.048961905e-07
1.950872138e-07
1.852621368e-07
1.753821123e-07
1.655954433e-07
1.55935121e-07
1.460804391e-07
1.362847383e-07
1.268124274e-07
1.176292282e-07
1.083179208e-07
9.956886999e-08
9.090890751e-08
8.283841371e-08
7.517937758e-08
6.796512707e-08
6.075186288e-08
9.742552254e-08
1.44459461e-07
2.121297964e-07
3.002223554e-07
)


101
(
-6.603554725e-13
-3.665396057e-10
-1.397525335e-09
-2.857805042e-09
-4.633322387e-09
-6.695512682e-09
-9.005469961e-09
-1.161159319e-08
-1.451722596e-08
-1.773113629e-08
-2.121410727e-08
-2.497849196e-08
-2.909965651e-08
-3.357996688e-08
-3.824413876e-08
-4.254901307e-08
-4.550142121e-08
-4.568233541e-08
-4.136793305e-08
-3.059420868e-08
-1.201372716e-08
1.542421883e-08
5.182042142e-08
9.632946482e-08
1.474399475e-07
2.028806838e-07
2.601885468e-07
3.169624971e-07
3.711651873e-07
4.211660692e-07
4.658246862e-07
5.044568976e-07
5.367735451e-07
5.633298909e-07
5.841362204e-07
5.998436604e-07
6.112792055e-07
6.193089099e-07
6.247642958e-07
6.281885509e-07
6.295936913e-07
6.286904431e-07
6.257997725e-07
6.213486384e-07
6.159088037e-07
6.10202781e-07
6.044616049e-07
5.987416392e-07
5.927190408e-07
5.862750714e-07
5.793007755e-07
5.720205064e-07
5.648114204e-07
5.576857788e-07
5.506186437e-07
5.434032653e-07
5.36108262e-07
5.285582212e-07
5.205842579e-07
5.124250587e-07
5.042859443e-07
4.961803184e-07
4.877559671e-07
4.793193879e-07
4.707219382e-07
4.616627492e-07
4.52374e-07
4.427262621e-07
4.33124775e-07
4.23394262e-07
4.136197036e-07
4.038959263e-07
3.939292844e-07
3.837277831e-07
3.730886214e-07
3.619333244e-07
3.507504443e-07
3.394710504e-07
3.282152123e-07
3.166144456e-07
3.045611671e-07
2.922712642e-07
2.79753491e-07
2.671106664e-07
2.542988377e-07
2.414461113e-07
2.284165282e-07
2.151045204e-07
2.019389959e-07
1.892261802e-07
1.760918269e-07
1.636539347e-07
1.511260947e-07
1.392962872e-07
1.280774483e-07
1.174590254e-07
1.068215985e-07
1.636190621e-07
2.349938408e-07
3.330389725e-07
4.427648724e-07
)


101
(
-6.603549805e-13
-3.62918463e-10
-1.384445604e-09
-2.828435546e-09
-4.576095326e-09
-6.592462622e-09
-8.832993109e-09
-1.133282898e-08
-1.408969499e-08
-1.710724181e-08
-2.034852817e-08
-2.37909939e-08
-2.750585006e-08
-3.150569583e-08
-3.565176646e-08
-3.949514685e-08
-4.216869736e-08
-4.239086003e-08
-3.856863471e-08
-2.878611276e-08
-1.15790048e-08
1.4307404e-08
4.93336643e-08
9.297532955e-08
1.441274856e-07
2.008285827e-07
2.607055544e-07
3.213327288e-07
3.805764388e-07
4.366516929e-07
4.882040412e-07
5.342530814e-07
5.741557157e-07
6.082588179e-07
6.364082485e-07
6.591008521e-07
6.769973485e-07
6.909110152e-07
7.01833821e-07
7.105162594e-07
7.171283057e-07
7.213673029e-07
7.234122148e-07
7.233785138e-07
7.216993171e-07
7.192069647e-07
7.163877655e-07
7.135983557e-07
7.104242851e-07
7.068187711e-07
7.027233015e-07
6.981134874e-07
6.931887203e-07
6.883547847e-07
6.834986433e-07
6.784031565e-07
6.733141727e-07
6.679332747e-07
6.619018486e-07
6.553488314e-07
6.485925574e-07
6.418784771e-07
6.349201529e-07
6.278662614e-07
6.202398211e-07
6.123551467e-07
6.0380992e-07
5.946961371e-07
5.853029855e-07
5.755133185e-07
5.656342354e-07
5.555497047e-07
5.451893845e-07
5.345392971e-07
5.232636073e-07
5.110012864e-07
4.979215366e-07
4.848345122e-07
4.71566369e-07
4.578372154e-07
4.435618677e-07
4.285084263e-07
4.126356656e-07
3.966662493e-07
3.802242861e-07
3.634115158e-07
3.461783689e-07
3.285382964e-07
3.104533482e-07
2.929533748e-07
2.74924273e-07
2.573504491e-07
2.39896667e-07
2.229023971e-07
2.068650469e-07
1.91733621e-07
1.768205749e-07
2.602070375e-07
3.629896818e-07
5.010237082e-07
6.51022523e-07
)


101
(
-6.603549805e-13
-3.592868218e-10
-1.371365061e-09
-2.799273863e-09
-4.519534411e-09
-6.491113508e-09
-8.664289181e-09
-1.106190992e-08
-1.36748841e-08
-1.650313719e-08
-1.951666961e-08
-2.26641424e-08
-2.600064235e-08
-2.955064619e-08
-3.32065915e-08
-3.660210309e-08
-3.899669453e-08
-3.924192123e-08
-3.587890133e-08
-2.71044891e-08
-1.128278709e-08
1.296709948e-08
4.644378265e-08
8.890461908e-08
1.396500758e-07
1.971157274e-07
2.590899311e-07
3.231892061e-07
3.872439648e-07
4.493361981e-07
5.078738389e-07
5.616414329e-07
6.097320986e-07
6.521747323e-07
6.886553162e-07
7.195235739e-07
7.452180759e-07
7.66359437e-07
7.839577397e-07
7.989874648e-07
8.118330095e-07
8.223751189e-07
8.306882053e-07
8.366029868e-07
8.402952425e-07
8.425842808e-07
8.441344935e-07
8.455492424e-07
8.465269144e-07
8.471157343e-07
8.472204553e-07
8.467225997e-07
8.455828139e-07
8.443898651e-07
8.43103695e-07
8.41415348e-07
8.398704525e-07
8.379773435e-07
8.354522242e-07
8.320441547e-07
8.281851659e-07
8.241016853e-07
8.200084649e-07
8.156128842e-07
8.103607175e-07
8.049830929e-07
7.984273499e-07
7.910342319e-07
7.829030798e-07
7.743370635e-07
7.653073203e-07
7.555606963e-07
7.454805906e-07
7.348639981e-07
7.234111455e-07
7.108028558e-07
6.96707713e-07
6.816914822e-07
6.660862892e-07
6.501247227e-07
6.3355043e-07
6.152851341e-07
5.957272386e-07
5.755279906e-07
5.54530011e-07
5.327857272e-07
5.099727823e-07
4.867611835e-07
4.623302694e-07
4.383761155e-07
4.141184406e-07
3.895025857e-07
3.653984251e-07
3.41621572e-07
3.188886704e-07
2.978500105e-07
2.774375742e-07
3.95305181e-07
5.383090067e-07
7.308200851e-07
9.575895859e-07
)


101
(
-6.603554725e-13
-3.556440342e-10
-1.358312892e-09
-2.770333164e-09
-4.463692084e-09
-6.391580523e-09
-8.499585219e-09
-1.079931031e-08
-1.327476169e-08
-1.592170049e-08
-1.871799952e-08
-2.159631961e-08
-2.458277116e-08
-2.771549755e-08
-3.091502708e-08
-3.388487826e-08
-3.600441462e-08
-3.625234351e-08
-3.329834865e-08
-2.548095578e-08
-1.103258789e-08
1.152126863e-08
4.325015258e-08
8.423838417e-08
1.341283083e-07
1.918137596e-07
2.55355749e-07
3.224731171e-07
3.910134843e-07
4.589500337e-07
5.244491419e-07
5.860988913e-07
6.428388823e-07
6.943275515e-07
7.400559548e-07
7.802309035e-07
8.150679789e-07
8.449016522e-07
8.706015512e-07
8.932879168e-07
9.136055092e-07
9.316608224e-07
9.475845543e-07
9.610852529e-07
9.720261861e-07
9.810049844e-07
9.886511724e-07
9.95837266e-07
1.002740682e-06
1.00926048e-06
1.015227492e-06
1.02055079e-06
1.025056316e-06
1.029227247e-06
1.03330104e-06
1.0370864e-06
1.040885296e-06
1.044187836e-06
1.047195361e-06
1.049216943e-06
1.049979762e-06
1.050514326e-06
1.050941994e-06
1.050858917e-06
1.050008789e-06
1.048616163e-06
1.045897158e-06
1.042017965e-06
1.036932005e-06
1.031176455e-06
1.024052834e-06
1.016075298e-06
1.007387593e-06
9.976345024e-07
9.867815553e-07
9.746925393e-07
9.603600871e-07
9.437396777e-07
9.260537731e-07
9.075880117e-07
8.880946302e-07
8.663779286e-07
8.427448971e-07
8.174504518e-07
7.904038954e-07