/*--------------------------------*- C++ -*----------------------------------*\
| =========                 |                                                 |
| \\      /  F ield         | OpenFOAM: The Open Source CFD Toolbox           |
|  \\    /   O peration     | Version:  2.3.1                                 |
|   \\  /    A nd           | Web:      www.OpenFOAM.org                      |
|    \\/     M anipulation  |                                                 |
\*---------------------------------------------------------------------------*/
FoamFile
{
    version     2.0;
    format      ascii;
    class       dictionary;
    location    "constant";
    object      GRPSI16;
}
// * * * * * * * * * * * * * * * * * * * * * * * * * * * * * * * * * * * * * //

GRPSI16_table
101
(

101
(
1.424195452e-12
4.034793754e-11
2.994754802e-10
9.972679935e-10
2.117522646e-09
3.44559039e-09
4.84663572e-09
6.168275235e-09
7.255956477e-09
8.041133058e-09
8.45745837e-09
8.471293718e-09
8.038440102e-09
7.148448343e-09
5.841850176e-09
4.16680697e-09
2.180703583e-09
1.578788987e-10
-1.862778686e-09
-3.697704994e-09
-5.077168722e-09
-6.10967594e-09
-6.711333573e-09
-6.866276421e-09
-6.685330025e-09
-6.257356824e-09
-5.672450991e-09
-5.003143361e-09
-4.314699391e-09
-3.657201235e-09
-3.0596047e-09
-2.556659426e-09
-2.072409769e-09
-1.648750419e-09
-1.339643005e-09
-9.688282599e-10
-5.826027412e-10
-5.760336169e-10
-6.48114653e-10
-5.034745613e-10
-3.997284373e-10
-3.176158633e-10
-2.471407428e-10
-1.949435017e-10
-1.527588721e-10
-1.184349002e-10
-9.164903251e-11
-7.02392529e-11
-5.376717639e-11
-4.082578178e-11
-3.102225105e-11
-2.330931756e-11
-1.741584292e-11
-1.294490368e-11
-9.577626018e-12
-6.903433628e-12
-4.949806983e-12
-3.570577277e-12
-2.49788864e-12
-1.742802067e-12
-1.193906004e-12
-8.225070418e-13
-5.503134165e-13
-3.572884884e-13
-2.297413826e-13
-1.472748338e-13
-9.090853399e-14
-5.428063946e-14
-3.191406183e-14
-1.84305741e-14
-1.018952574e-14
-5.495825468e-15
-2.838317893e-15
-1.368895311e-15
-6.341591519e-16
-3.937669994e-16
-2.27428991e-16
-9.471279682e-17
-3.90311621e-17
-1.561648777e-17
-5.830221733e-18
-1.992681359e-18
-6.940267247e-19
-2.205450494e-19
-1.18609887e-19
-5.666977581e-20
-1.894965683e-20
-6.228889618e-21
-1.823104089e-21
-5.778002127e-22
-3.593237474e-22
-1.066378157e-22
-2.483297559e-23
-6.304586297e-24
-1.937829961e-24
-5.395452567e-25
-6.077536902e-26
8.71820864e-32
-9.294999558e-42
-1.180321489e-41
1.859000022e-41
)


101
(
8.115560915e-13
3.737760408e-11
2.857684695e-10
9.589131231e-10
2.043214078e-09
3.333102309e-09
4.69557506e-09
5.986784211e-09
7.058669777e-09
7.843404692e-09
8.278398484e-09
8.331687027e-09
7.963143655e-09
7.160903587e-09
5.957370873e-09
4.39448862e-09
2.525893022e-09
5.756128897e-10
-1.38101109e-09
-3.198657198e-09
-4.639475984e-09
-5.729551939e-09
-6.422259056e-09
-6.696011931e-09
-6.622801009e-09
-6.287025656e-09
-5.773085894e-09
-5.153305931e-09
-4.492718559e-09
-3.844055445e-09
-3.241815559e-09
-2.720652761e-09
-2.241567648e-09
-1.812579427e-09
-1.471198006e-09
-1.125514402e-09
-7.680598906e-10
-6.170450052e-10
-6.134751532e-10
-5.416623106e-10
-4.426784555e-10
-3.539262064e-10
-2.781280018e-10
-2.184149048e-10
-1.714236797e-10
-1.338684161e-10
-1.04275124e-10
-8.079279689e-11
-6.233018637e-11
-4.781451307e-11
-3.654201424e-11
-2.776858302e-11
-2.101112305e-11
-1.582816519e-11
-1.182994716e-11
-8.718470101e-12
-6.35374043e-12
-4.613878158e-12
-3.316982129e-12
-2.361318049e-12
-1.663155151e-12
-1.163615443e-12
-8.050887434e-13
-5.473486008e-13
-3.651150736e-13
-2.399412946e-13
-1.55474289e-13
-9.867079504e-14
-6.145714004e-14
-3.741824624e-14
-2.209248985e-14
-1.264721512e-14
-7.085759133e-15
-3.868966975e-15
-1.993004563e-15
-1.008448695e-15
-5.054135197e-16
-2.352814436e-16
-1.040835448e-16
-4.440652439e-17
-1.794953054e-17
-6.682617938e-18
-2.2362322e-18
-7.371575345e-19
-2.231939575e-19
-7.135442011e-20
-3.464618325e-20
-2.105878762e-20
-1.025412207e-20
-3.331703903e-21
-1.277747782e-21
-5.284038291e-22
-2.019431464e-22
-6.954257989e-23
-2.215198403e-23
-8.202719688e-24
-2.034478976e-24
4.312940428e-25
2.082045486e-24
9.30566473e-24
1.504167378e-23
)


101
(
2.382184573e-13
3.453402991e-11
2.725029702e-10
9.216791013e-10
1.971109434e-09
3.224268635e-09
4.550352431e-09
5.813626931e-09
6.872645134e-09
7.660433334e-09
8.11771918e-09
8.213889575e-09
7.912382256e-09
7.200058148e-09
6.101802906e-09
4.652837825e-09
2.90229285e-09
1.032513497e-09
-8.608438605e-10
-2.655620597e-09
-4.146433088e-09
-5.301076481e-09
-6.085996683e-09
-6.480241247e-09
-6.52556123e-09
-6.29490243e-09
-5.866364272e-09
-5.309572661e-09
-4.68922937e-09
-4.059775191e-09
-3.45975994e-09
-2.926410403e-09
-2.442412908e-09
-2.009917543e-09
-1.650024868e-09
-1.301004144e-09
-9.570160052e-10
-7.371484164e-10
-6.512832603e-10
-5.848194858e-10
-5.006440788e-10
-4.1169004e-10
-3.29634327e-10
-2.618341467e-10
-2.07387797e-10
-1.638073156e-10
-1.293917116e-10
-1.020495868e-10
-8.025995017e-11
-6.288598914e-11
-4.908150264e-11
-3.81236153e-11
-2.951251978e-11
-2.282003548e-11
-1.758975181e-11
-1.346015732e-11
-1.020938294e-11
-7.687534649e-12
-5.759157501e-12
-4.285491647e-12
-3.165360484e-12
-2.32953833e-12
-1.701031219e-12
-1.228245456e-12
-8.782981075e-13
-6.218633547e-13
-4.353414362e-13
-2.997367658e-13
-2.03941983e-13
-1.374118415e-13
-9.058240898e-14
-5.803929117e-14
-3.631908592e-14
-2.256554328e-14
-1.361217972e-14
-7.924593177e-15
-4.460912978e-15
-2.410712655e-15
-1.259654129e-15
-6.430167488e-16
-3.194146951e-16
-1.513395709e-16
-6.675939049e-17
-2.857956834e-17
-1.134428499e-17
-4.020532194e-18
-1.293310224e-18
-4.674209999e-19
-2.336956002e-19
-9.252525678e-20
-3.182124509e-20
-1.241267425e-20
-5.349365458e-21
-2.353199954e-21
-9.306609793e-22
-4.315012749e-22
-9.250670741e-23
2.063761409e-22
1.170284819e-21
-1.73323669e-19
-3.486831748e-19
)


101
(
-2.968633716e-13
3.181451789e-11
2.596698291e-10
8.855389889e-10
1.901142466e-09
3.118947763e-09
4.410690925e-09
5.64837051e-09
6.697229271e-09
7.49132483e-09
7.97432657e-09
8.116688071e-09
7.884983603e-09
7.264945942e-09
6.274579e-09
4.942179919e-09
3.311588782e-09
1.530204027e-09
-2.972307882e-10
-2.063221523e-09
-3.592426449e-09
-4.813233269e-09
-5.691825968e-09
-6.208454414e-09
-6.381227354e-09
-6.268338748e-09
-5.940414583e-09
-5.461987813e-09
-4.896282993e-09
-4.29895776e-09
-3.71077999e-09
-3.172643387e-09
-2.680110902e-09
-2.241215148e-09
-1.877979619e-09
-1.515879119e-09
-1.164219234e-09
-9.107933514e-10
-7.577516903e-10
-6.622648739e-10
-5.79291876e-10
-4.916563617e-10
-4.051137171e-10
-3.291576639e-10
-2.652663559e-10
-2.129808613e-10
-1.712351374e-10
-1.379057984e-10
-1.111252885e-10
-8.941819417e-11
-7.180522354e-11
-5.738546789e-11
-4.57303903e-11
-3.644719203e-11
-2.901854674e-11
-2.305532533e-11
-1.824893978e-11
-1.433731474e-11
-1.122562728e-11
-8.744550389e-12
-6.760067023e-12
-5.21590425e-12
-4.005405099e-12
-3.054637791e-12
-2.320534137e-12
-1.749167934e-12
-1.305166006e-12
-9.602298102e-13
-6.966647255e-13
-5.045391921e-13
-3.615260727e-13
-2.53077728e-13
-1.733789019e-13
-1.17679953e-13
-7.862120986e-14
-5.132453749e-14
-3.259609308e-14
-2.001306672e-14
-1.191457512e-14
-6.901526191e-15
-3.942799556e-15
-2.197226261e-15
-1.161858777e-15
-5.950587596e-16
-2.935174083e-16
-1.359726825e-16
-5.774401593e-17
-2.281143697e-17
-9.835647513e-18
-4.285754648e-18
-1.621925935e-18
-5.531539773e-19
-2.121346265e-19
-8.599007325e-20
-3.548112978e-20
-1.688677427e-20
1.060049447e-22
2.775610199e-20
2.144093277e-19
1.020609116e-18
1.656288394e-18
)


101
(
-7.947322633e-13
2.9216381e-11
2.472598055e-10
8.504645041e-10
1.83324111e-09
3.016983997e-09
4.27628178e-09
5.490515788e-09
6.531656061e-09
7.3350093e-09
7.846859112e-09
8.038510965e-09
7.879285394e-09
7.353945687e-09
6.474355276e-09
5.261787627e-09
3.754197589e-09
2.069547596e-09
3.135272208e-10
-1.416801409e-09
-2.972251763e-09
-4.255822727e-09
-5.227854704e-09
-5.868025905e-09
-6.175363549e-09
-6.192465421e-09
-5.980395547e-09
-5.596726543e-09
-5.101901664e-09
-4.552415382e-09
-3.989156387e-09
-3.456501023e-09
-2.957073442e-09
-2.507685207e-09
-2.129977865e-09
-1.771924589e-09
-1.423625101e-09
-1.133194078e-09
-9.271184748e-10
-7.914114553e-10
-6.918297085e-10
-5.995317181e-10
-5.082057629e-10
-4.245526089e-10
-3.504860717e-10
-2.874063191e-10
-2.357222633e-10
-1.938645812e-10
-1.598875266e-10
-1.320030756e-10
-1.090585501e-10
-8.975666671e-11
-7.358810762e-11
-6.032077702e-11
-4.956466391e-11
-4.066072611e-11
-3.325663002e-11
-2.711468032e-11
-2.207517996e-11
-1.791665059e-11
-1.439604865e-11
-1.154452657e-11
-9.228849905e-12
-7.333454933e-12
-5.837321051e-12
-4.631795194e-12
-3.632294501e-12
-2.815871828e-12
-2.155754204e-12
-1.649962561e-12
-1.259279076e-12
-9.420056622e-13
-6.923206556e-13
-5.025931287e-13
-3.61611391e-13
-2.569460728e-13
-1.789354053e-13
-1.21104821e-13
-8.010110463e-14
-5.15187383e-14
-3.263159519e-14
-2.039377538e-14
-1.228826337e-14
-7.167172322e-15
-4.091219838e-15
-2.247715097e-15
-1.161001998e-15
-5.565647605e-16
-2.634126492e-16
-1.279284293e-16
-5.891374566e-17
-2.386782588e-17
-9.543706032e-18
-3.751320339e-18
-1.499050512e-18
-6.865997744e-19
2.87538826e-19
2.370121265e-18
1.7613859e-17
5.3486982e-17
7.548306619e-17
)


101
(
-1.256430852e-12
2.67369544e-11
2.352637961e-10
8.164276797e-10
1.767333915e-09
2.918223641e-09
4.146823079e-09
5.339575656e-09
6.375183831e-09
7.190456928e-09
7.734033711e-09
7.977871497e-09
7.893744157e-09
7.46559429e-09
6.699855907e-09
5.610976538e-09
4.230495198e-09
2.651254542e-09
9.744693115e-10
-7.117159714e-10
-2.280562458e-09
-3.619548002e-09
-4.682064125e-09
-5.445604434e-09
-5.892542582e-09
-6.050217149e-09
-5.968912554e-09
-5.697173547e-09
-5.290882681e-09
-4.805467134e-09
-4.284129876e-09
-3.772330516e-09
-3.272466503e-09
-2.814458838e-09
-2.426170925e-09
-2.06602365e-09
-1.719739123e-09
-1.407375637e-09
-1.157202283e-09
-9.774144912e-10
-8.498711254e-10
-7.439542242e-10
-6.444599943e-10
-5.528093844e-10
-4.686407027e-10
-3.935969885e-10
-3.294107648e-10
-2.75963788e-10
-2.322678769e-10
-1.96278106e-10
-1.664020529e-10
-1.40751987e-10
-1.184798641e-10
-9.94901417e-11
-8.383715442e-11
-7.075473843e-11
-5.957623856e-11
-4.996340093e-11
-4.191425407e-11
-3.523138181e-11
-2.928476539e-11
-2.425125815e-11
-2.006934781e-11
-1.647434867e-11
-1.355525917e-11
-1.118020778e-11
-9.157253734e-12
-7.441593104e-12
-5.951627447e-12
-4.737494236e-12
-3.793707039e-12
-3.001321952e-12
-2.34031176e-12
-1.799055154e-12
-1.371004555e-12
-1.033241507e-12
-7.698404946e-13
-5.666263576e-13
-4.080787176e-13
-2.853066404e-13
-1.954517536e-13
-1.327957739e-13
-8.901516427e-14
-5.759658541e-14
-3.661826763e-14
-2.27812079e-14
-1.362141549e-14
-7.631240648e-15
-4.124193296e-15
-2.226424375e-15
-1.191415378e-15
-5.786397318e-16
-2.685333807e-16
-1.2312151e-16
-5.433723443e-17
-2.632828205e-17
1.459111674e-17
1.07099763e-16
8.5600545e-16
2.425234948e-15
3.306697055e-15
)


101
(
-1.682999309e-12
2.437360268e-11
2.236729176e-10
7.834014183e-10
1.703351907e-09
2.822518884e-09
4.022024516e-09
5.195080319e-09
6.227094199e-09
7.056660124e-09
7.634582386e-09
7.933273387e-09
7.926759257e-09
7.598305906e-09
6.949570594e-09
5.988664432e-09
4.740287367e-09
3.275503286e-09
1.68766596e-09
5.595419104e-11
-1.512428611e-09
-2.895981091e-09
-4.042529576e-09
-4.927123801e-09
-5.516390145e-09
-5.822730492e-09
-5.885764821e-09
-5.743440204e-09
-5.44468049e-09
-5.042159386e-09
-4.580082598e-09
-4.106208708e-09
-3.618992496e-09
-3.158276183e-09
-2.763630879e-09
-2.400563659e-09
-2.055839194e-09
-1.730972545e-09
-1.446737293e-09
-1.22424735e-09
-1.062299411e-09
-9.344848473e-10
-8.211579675e-10
-7.196067998e-10
-6.252795411e-10
-5.380594346e-10
-4.597059327e-10
-3.91700199e-10
-3.353704751e-10
-2.887774936e-10
-2.5008873e-10
-2.167407439e-10
-1.869365177e-10
-1.603979531e-10
-1.379651317e-10
-1.192331522e-10
-1.029431229e-10
-8.85673635e-11
-7.620862047e-11
-6.564128717e-11
-5.606840123e-11
-4.778145795e-11
-4.075455015e-11
-3.450988945e-11
-2.916359368e-11
-2.475425995e-11
-2.097904285e-11
-1.769193701e-11
-1.475828022e-11
-1.218830678e-11
-1.006426066e-11
-8.289958639e-12
-6.781011328e-12
-5.489147012e-12
-4.39933537e-12
-3.480004674e-12
-2.730988674e-12
-2.137012303e-12
-1.645943984e-12
-1.238704707e-12
-9.099614441e-13
-6.609601807e-13
-4.787480645e-13
-3.374251952e-13
-2.333688025e-13
-1.597608478e-13
-1.065760616e-13
-6.771825406e-14
-4.100297769e-14
-2.476785685e-14
-1.497969792e-14
-8.41627968e-15
-4.452698433e-15
-2.358738374e-15
-1.230240264e-15
-6.820980723e-16
6.294877724e-16
3.642806351e-15
2.247479589e-14
5.34912105e-14
6.758795426e-14
)


101
(
-2.075475619e-12
2.212371307e-11
2.124785028e-10
7.513597185e-10
1.641230079e-09
2.72973292e-09
3.901618804e-09
5.056584229e-09
6.086695996e-09
6.932656891e-09
7.547281962e-09
7.903269265e-09
7.976741968e-09
7.750473691e-09
7.221919885e-09
6.393436246e-09
5.282804693e-09
3.941959421e-09
2.454326836e-09
8.89318744e-10
-6.634807274e-10
-2.078061395e-09
-3.298712638e-09
-4.29910629e-09
-5.030759689e-09
-5.490627416e-09
-5.708533626e-09
-5.711710641e-09
-5.539937012e-09
-5.240613012e-09
-4.857049226e-09
-4.440115796e-09
-3.982571135e-09
-3.530256093e-09
-3.135669784e-09
-2.772014796e-09
-2.430896092e-09
-2.100946091e-09
-1.792979981e-09
-1.533618041e-09
-1.335634305e-09
-1.179601669e-09
-1.045940136e-09
-9.310523061e-10
-8.254946734e-10
-7.263270214e-10
-6.339097952e-10
-5.496544483e-10
-4.776439155e-10
-4.174739999e-10
-3.677897284e-10
-3.250243282e-10
-2.861051347e-10
-2.506167004e-10
-2.196483367e-10
-1.931955076e-10
-1.702585118e-10
-1.498766056e-10
-1.319433645e-10
-1.163137107e-10
-1.017061971e-10
-8.868723246e-11
-7.737188114e-11
-6.717746763e-11
-5.8207002e-11
-5.060922465e-11
-4.401413662e-11
-3.818269352e-11
-3.295611027e-11
-2.813578575e-11
-2.396885854e-11
-2.040927906e-11
-1.730245963e-11
-1.458140212e-11
-1.219306018e-11
-1.007388741e-11
-8.238880898e-12
-6.728073411e-12
-5.459822517e-12
-4.378105471e-12
-3.43571146e-12
-2.640326025e-12
-2.024536809e-12
-1.533169464e-12
-1.134813677e-12
-8.358630669e-13
-6.076202133e-13
-4.255501486e-13
-2.85066426e-13
-1.893032149e-13
-1.259921885e-13
-8.010634062e-14
-4.75085389e-14
-2.847617598e-14
-1.701499111e-14
-1.079847042e-14
1.27819894e-14
6.593366441e-14
3.394976534e-13
7.792995874e-13
9.773509403e-13
)


101
(
-2.43489731e-12
1.998470082e-11
2.01672128e-10
7.202776517e-10
1.580906942e-09
2.639739192e-09
3.785362853e-09
4.923668669e-09
5.953329711e-09
6.817530151e-09
7.470981431e-09
7.886492954e-09
8.042172059e-09
7.920502978e-09
7.515270122e-09
6.823709299e-09
5.85684658e-09
4.649722874e-09
3.274784414e-09
1.790639587e-09
2.701213102e-10
-1.159710012e-09
-2.440968698e-09
-3.547948569e-09
-4.418874459e-09
-5.033747598e-09
-5.413148457e-09
-5.575031456e-09
-5.548974999e-09
-5.374136419e-09
-5.089933369e-09
-4.750296392e-09
-4.342306637e-09
-3.914843394e-09
-3.531681118e-09
-3.173857439e-09
-2.840647586e-09
-2.512096944e-09
-2.190484838e-09
-1.90308971e-09
-1.670978515e-09
-1.48394068e-09
-1.326042538e-09
-1.194172963e-09
-1.075083044e-09
-9.633570134e-10
-8.572626772e-10
-7.562089878e-10
-6.666950838e-10
-5.911707011e-10
-5.281826736e-10
-4.734810555e-10
-4.24525435e-10
-3.789806779e-10
-3.370962789e-10
-3.011204858e-10
-2.702528725e-10
-2.421963988e-10
-2.171024522e-10
-1.951838115e-10
-1.743163753e-10
-1.554804363e-10
-1.385463701e-10
-1.226648213e-10
-1.083477872e-10
-9.586598071e-11
-8.521450098e-11
-7.588120978e-11
-6.751819356e-11
-5.945876965e-11
-5.198685961e-11
-4.529286595e-11
-3.932162567e-11
-3.430201925e-11
-2.979736597e-11
-2.556462782e-11
-2.171096736e-11
-1.836794213e-11
-1.552376492e-11
-1.302633687e-11
-1.076110551e-11
-8.712138144e-12
-7.010977592e-12
-5.621494374e-12
-4.431340177e-12
-3.452171753e-12
-2.666907933e-12
-2.02790198e-12
-1.47459458e-12
-1.064707198e-12
-7.690272777e-13
-5.33129572e-13
-3.497822982e-13
-2.329718939e-13
-1.552119844e-13
-1.117290653e-13
1.552387403e-13
7.282050481e-13
3.126551326e-12
7.554515809e-12
9.902828913e-12
)


101
(
-2.762301479e-12
1.79539999e-11
1.9124559e-10
6.901312661e-10
1.522323487e-09
2.55241632e-09
3.67302651e-09
4.795937324e-09
5.826362739e-09
6.710388594e-09
7.404554363e-09
7.881596515e-09
8.121526437e-09
8.106764858e-09
7.827913873e-09
7.277746385e-09
6.460904708e-09
5.397482071e-09
4.148656983e-09
2.761345037e-09
1.291730991e-09
-1.355555225e-10
-1.460474787e-09
-2.659804725e-09
-3.662438186e-09
-4.430402817e-09
-4.974777106e-09
-5.30549985e-09
-5.442105493e-09
-5.413346049e-09
-5.250934134e-09
-5.009729942e-09
-4.671939559e-09
-4.290227979e-09
-3.93512125e-09
-3.591912408e-09
-3.27204534e-09
-2.952006702e-09
-2.627862723e-09
-2.325459366e-09
-2.068158227e-09
-1.851011634e-09
-1.66516939e-09
-1.512752896e-09
-1.377442226e-09
-1.252319013e-09
-1.132956258e-09
-1.016302972e-09
-9.099158152e-10
-8.171938758e-10
-7.377880591e-10
-6.689827109e-10
-6.08827751e-10
-5.527689761e-10
-5.001584843e-10
-4.5279937e-10
-4.122796877e-10
-3.754075644e-10
-3.409325231e-10
-3.116538073e-10
-2.83527689e-10
-2.575023591e-10
-2.339147471e-10
-2.111513394e-10
-1.901317759e-10
-1.709772619e-10
-1.544805454e-10
-1.402817593e-10
-1.273721533e-10
-1.149003075e-10
-1.029950219e-10
-9.211266062e-11
-8.204074652e-11
-7.310355084e-11
-6.515030148e-11
-5.780120449e-11
-5.082826991e-11
-4.421449295e-11
-3.854571392e-11
-3.370576311e-11
-2.897979395e-11
-2.445387704e-11
-2.049414051e-11
-1.719122332e-11
-1.435928813e-11
-1.16829682e-11
-9.474348874e-12
-7.680296636e-12
-5.988820919e-12
-4.633259861e-12
-3.571565249e-12
-2.661677135e-12
-1.907467902e-12
-1.380630119e-12
-1.015372052e-12
-7.97537718e-13
1.280477991e-12
5.394797336e-12
1.895506126e-11
4.774572957e-11
6.507447709e-11
)


101
(
-3.058722926e-12
1.60290674e-11
1.811909427e-10
6.608979015e-10
1.465424121e-09
2.467648304e-09
3.564387538e-09
4.673025611e-09
5.705227563e-09
6.610392873e-09
7.346882477e-09
7.887208309e-09
8.213230948e-09
8.307541797e-09
8.158010615e-09
7.753571027e-09
7.093055607e-09
6.183363973e-09
5.074620704e-09
3.801637915e-09
2.403969631e-09
1.000449774e-09
-3.480958399e-10
-1.621275751e-09
-2.742624575e-09
-3.657925121e-09
-4.367639705e-09
-4.873968583e-09
-5.186986683e-09
-5.324535646e-09
-5.308143112e-09
-5.189264645e-09
-4.941996382e-09
-4.626748215e-09
-4.320191811e-09
-4.004776191e-09
-3.70610236e-09
-3.404283054e-09
-3.09081096e-09
-2.787409778e-09
-2.517483202e-09
-2.275964952e-09
-2.061464746e-09
-1.886225915e-09
-1.731987994e-09
-1.592940823e-09
-1.462794028e-09
-1.333852258e-09
-1.211884999e-09
-1.100824156e-09
-1.002888202e-09
-9.174526674e-10
-8.444541444e-10
-7.795107891e-10
-7.167810722e-10
-6.556851328e-10
-6.039605146e-10
-5.574727556e-10
-5.126805981e-10
-4.750780679e-10
-4.397454914e-10
-4.055872963e-10
-3.741535789e-10
-3.443312501e-10
-3.16185442e-10
-2.883247136e-10
-2.632941765e-10
-2.422650379e-10
-2.236673019e-10
-2.063879475e-10
-1.893729119e-10
-1.728329291e-10
-1.568816076e-10
-1.42607483e-10
-1.301517853e-10
-1.186765069e-10
-1.070856817e-10
-9.571081049e-11
-8.567773158e-11
-7.705667865e-11
-6.852219217e-11
-5.999286303e-11
-5.204846637e-11
-4.518216121e-11
-3.953509341e-11
-3.366435924e-11
-2.830416908e-11
-2.399685039e-11
-1.973678189e-11
-1.616453487e-11
-1.323073185e-11
-1.042579726e-11
-8.006136188e-12
-6.186475626e-12
-4.929311105e-12
-4.24257837e-12
7.56044642e-12
2.913307685e-11
8.329973589e-11
1.623149322e-10
1.971046725e-10
)


101
(
-3.325197984e-12
1.420737221e-11
1.715003983e-10
6.325556973e-10
1.410155639e-09
2.385324316e-09
3.459234269e-09
4.554588929e-09
5.589396388e-09
6.516743976e-09
7.296879192e-09
7.901975918e-09
8.315703511e-09
8.521093589e-09
8.503681468e-09
8.249075391e-09
7.751050587e-09
7.005113378e-09
6.050872598e-09
4.910840224e-09
3.608218142e-09
2.253381286e-09
9.044180942e-10
-4.199153546e-10
-1.641075187e-09
-2.69404777e-09
-3.566266327e-09
-4.250437019e-09
-4.74874871e-09
-5.069367629e-09
-5.222466074e-09
-5.251991312e-09
-5.116913009e-09
-4.888460626e-09
-4.653167703e-09
-4.384218219e-09
-4.119604455e-09
-3.84719017e-09
-3.557219072e-09
-3.267213237e-09
-2.999730118e-09
-2.745310554e-09
-2.506083426e-09
-2.307604946e-09
-2.133489648e-09
-1.981268244e-09
-1.843809069e-09
-1.706611222e-09
-1.571799751e-09
-1.443983987e-09
-1.327886134e-09
-1.223967418e-09
-1.136434168e-09
-1.062607445e-09
-9.882268891e-10
-9.146192337e-10
-8.534568012e-10
-7.972729552e-10
-7.412623412e-10
-6.92926902e-10
-6.505028532e-10
-6.093114547e-10
-5.706879158e-10
-5.329589098e-10
-4.967502354e-10
-4.613055525e-10
-4.264313739e-10
-3.95387829e-10
-3.695703126e-10
-3.464133035e-10
-3.240520163e-10
-3.018384988e-10
-2.792786508e-10
-2.58275124e-10
-2.399343319e-10
-2.231420469e-10
-2.056358836e-10
-1.887631048e-10
-1.731643185e-10
-1.586651402e-10
-1.450262999e-10
-1.310424881e-10
-1.169403572e-10
-1.046234847e-10
-9.489836265e-11
-8.412210458e-11
-7.282779713e-11
-6.358900843e-11
-5.503474027e-11
-4.735246869e-11
-4.026702503e-11
-3.334204831e-11
-2.714290691e-11
-2.200649715e-11
-1.853227434e-11
-1.696596684e-11
3.270324331e-11
1.174400801e-10
2.889553426e-10
5.33382316e-10
6.4162693e-10
)


101
(
-3.562762612e-12
1.248639678e-11
1.621663539e-10
6.050836574e-10
1.356467166e-09
2.305337781e-09
3.357364317e-09
4.440307662e-09
5.47837687e-09
6.428670166e-09
7.253493588e-09
7.92458995e-09
8.427378537e-09
8.745663482e-09
8.863001965e-09
8.762142505e-09
8.432541252e-09
7.860219503e-09
7.07516178e-09
6.087039096e-09
4.90354014e-09
3.624899042e-09
2.301668758e-09
9.514522362e-10
-3.457923594e-10
-1.518737529e-09
-2.542781863e-09
-3.400651856e-09
-4.087577633e-09
-4.603521537e-09
-4.9462894e-09
-5.149367152e-09
-5.15100262e-09
-5.032683765e-09
-4.893211775e-09
-4.693789171e-09
-4.482014863e-09
-4.253414914e-09
-3.997490474e-09
-3.733588807e-09
-3.486530905e-09
-3.236353068e-09
-2.983204302e-09
-2.766078574e-09
-2.573275559e-09
-2.407106818e-09
-2.263188418e-09
-2.122720613e-09
-1.981029697e-09
-1.841340551e-09
-1.710302901e-09
-1.587897396e-09
-1.484261688e-09
-1.399498862e-09
-1.316234572e-09
-1.232658942e-09
-1.163240572e-09
-1.098942458e-09
-1.031542067e-09
-9.719857314e-10
-9.21642529e-10
-8.742458142e-10
-8.297901124e-10
-7.870194122e-10
-7.424515355e-10
-6.986391094e-10
-6.560108229e-10
-6.139021922e-10
-5.790440869e-10
-5.490804992e-10
-5.204024589e-10
-4.939679196e-10
-4.66219188e-10
-4.377722733e-10
-4.116423393e-10
-3.884846578e-10
-3.657433959e-10
-3.424318911e-10
-3.202619878e-10
-3.000210226e-10
-2.801561887e-10
-2.591501785e-10
-2.376137326e-10
-2.173410447e-10
-2.014681067e-10
-1.856962977e-10
-1.662354095e-10
-1.482002555e-10
-1.328094305e-10
-1.188219894e-10
-1.042770617e-10
-8.963497682e-11
-7.66855331e-11
-6.483671757e-11
-5.665835356e-11
-5.394638168e-11
1.147790429e-10
3.839112448e-10
8.196481901e-10
1.352618862e-09
1.550337152e-09
)


101
(
-3.772452391e-12
1.086363341e-11
1.53181362e-10
5.784616006e-10
1.304310194e-09
2.227585389e-09
3.258580561e-09
4.329894444e-09
5.371738766e-09
6.345413516e-09
7.215677726e-09
7.953772429e-09
8.546638631e-09
8.979368566e-09
9.233943169e-09
9.290763889e-09
9.135597808e-09
8.746441699e-09
8.144909849e-09
7.32690456e-09
6.285993597e-09
5.112562702e-09
3.845637196e-09
2.500167898e-09
1.15547872e-09
-1.135180445e-10
-1.271195502e-09
-2.290821498e-09
-3.16247263e-09
-3.880064335e-09
-4.427761844e-09
-4.825950922e-09
-4.988925504e-09
-5.00764789e-09
-4.992353196e-09
-4.889294288e-09
-4.752878785e-09
-4.584324125e-09
-4.373135515e-09
-4.147126033e-09
-3.93884341e-09
-3.713959667e-09
-3.464557481e-09
-3.24048797e-09
-3.034517925e-09
-2.854824269e-09
-2.703725483e-09
-2.562368878e-09
-2.418826187e-09
-2.276633422e-09
-2.140559876e-09
-2.000901804e-09
-1.879443344e-09
-1.784908717e-09
-1.696938432e-09
-1.603239526e-09
-1.525819721e-09
-1.457063683e-09
-1.381125305e-09
-1.311410763e-09
-1.253589442e-09
-1.203781087e-09
-1.154964081e-09
-1.106431092e-09
-1.057111085e-09
-1.010072354e-09
-9.606851732e-10
-9.103533627e-10
-8.653727752e-10
-8.253339499e-10
-7.902229707e-10
-7.611134126e-10
-7.32240083e-10
-6.992031222e-10
-6.665051393e-10
-6.356305726e-10
-6.051828937e-10
-5.775488072e-10
-5.509025563e-10
-5.248868043e-10
-4.990878616e-10
-4.713449712e-10
-4.429874363e-10
-4.125604796e-10
-3.879568521e-10
-3.683481708e-10
-3.408247956e-10
-3.100753012e-10
-2.838039919e-10
-2.617663911e-10
-2.368484629e-10
-2.098913748e-10
-1.855897987e-10
-1.621721076e-10
-1.462353439e-10
-1.418158759e-10
3.301594964e-10
1.039876e-09
1.969581026e-09
3.084851722e-09
3.507403973e-09
)


101
(
-3.955304511e-12
9.336581242e-12
1.445381139e-10
5.526700624e-10
1.253638599e-09
2.151969216e-09
3.16269406e-09
4.223074717e-09
5.269089241e-09
6.266262903e-09
7.182422061e-09
7.988300431e-09
8.671918234e-09
9.220338272e-09
9.614417687e-09
9.83279168e-09
9.858177343e-09
9.661410802e-09
9.257617656e-09
8.627192762e-09
7.750980936e-09
6.712091201e-09
5.535386189e-09
4.231135316e-09
2.873963597e-09
1.538850099e-09
2.7116036e-10
-8.925415121e-10
-1.936760029e-09
-2.851791407e-09
-3.611411115e-09
-4.223116002e-09
-4.571222423e-09
-4.753504205e-09
-4.891324781e-09
-4.913029171e-09
-4.877306609e-09
-4.787770112e-09
-4.635227809e-09
-4.459857047e-09
-4.30617954e-09
-4.127349023e-09
-3.905278494e-09
-3.695104143e-09
-3.487705418e-09
-3.298560702e-09
-3.141478533e-09
-3.000098256e-09
-2.859717794e-09
-2.724566316e-09
-2.59252272e-09
-2.440595602e-09
-2.303855695e-09
-2.200378263e-09
-2.107065078e-09
-2.007515045e-09
-1.925513411e-09
-1.859123068e-09
-1.782252694e-09
-1.702193132e-09
-1.636861862e-09
-1.590214961e-09
-1.541530827e-09
-1.486560704e-09
-1.438144054e-09
-1.392159867e-09
-1.342830161e-09
-1.287943749e-09
-1.232102654e-09
-1.186192811e-09
-1.144599027e-09
-1.112382868e-09
-1.085349012e-09
-1.054253541e-09
-1.022091414e-09
-9.844985704e-10
-9.464098409e-10
-9.160679361e-10
-8.860254501e-10
-8.600124137e-10
-8.332233708e-10
-7.986546927e-10
-7.643552208e-10
-7.280549783e-10
-6.93932074e-10
-6.673304313e-10
-6.359345133e-10
-5.929366763e-10
-5.491161138e-10
-5.191195418e-10
-4.811654579e-10
-4.387677188e-10
-3.992837612e-10
-3.550433807e-10
-3.270376043e-10
-3.23441167e-10
7.938732864e-10
2.393483259e-09
4.127183221e-09
6.423015922e-09
7.46185168e-09
)


101
(
-4.112356452e-12
7.902746991e-12
1.362294476e-10
5.27690301e-10
1.204408321e-09
2.078396753e-09
3.069524193e-09
4.11958668e-09
5.170069425e-09
6.190600321e-09
7.152730078e-09
8.026942866e-09
8.801781131e-09
9.466857638e-09
1.000243712e-08
1.038579787e-08
1.059743817e-08
1.060163827e-08
1.040811885e-08
9.982391314e-09
9.294107775e-09
8.420831891e-09
7.370344341e-09
6.146789054e-09
4.818380925e-09
3.453797189e-09
2.104794355e-09
8.197409273e-10
-3.774008706e-10
-1.473751227e-09
-2.439332675e-09
-3.276607784e-09
-3.831806611e-09
-4.202800744e-09
-4.522149549e-09
-4.697121316e-09
-4.789451315e-09
-4.800746534e-09
-4.723452237e-09
-4.611065841e-09
-4.527229904e-09
-4.416656901e-09
-4.245513293e-09
-4.072035954e-09
-3.882460012e-09
-3.697523157e-09
-3.538480458e-09
-3.39869331e-09
-3.268052372e-09
-3.143872585e-09
-3.022189088e-09
-2.871761827e-09
-2.726521616e-09
-2.613488214e-09
-2.516504452e-09
-2.415171454e-09
-2.332278683e-09
-2.274143556e-09
-2.206362843e-09
-2.128283049e-09
-2.057152051e-09
-2.010412285e-09
-1.964260774e-09
-1.908474734e-09
-1.869544033e-09
-1.834193882e-09
-1.790545897e-09
-1.734728033e-09
-1.67756128e-09
-1.632120764e-09
-1.58531539e-09
-1.552558176e-09
-1.528969447e-09
-1.504027556e-09
-1.487350205e-09
-1.457273909e-09
-1.415655887e-09
-1.377615318e-09
-1.347362827e-09
-1.331531595e-09
-1.309415197e-09
-1.277643516e-09
-1.241737042e-09
-1.199091713e-09
-1.162553393e-09
-1.133937505e-09
-1.100546925e-09
-1.05118219e-09
-9.870242771e-10
-9.480314645e-10
-8.960937443e-10
-8.329953168e-10
-7.759119223e-10
-7.007490002e-10
-6.550842575e-10
-6.595495394e-10
1.669605536e-09
4.865057665e-09
7.771412868e-09
1.08155561e-08
1.180336363e-08
)


101
(
-4.244645921e-12
6.559641369e-12
1.282483235e-10
5.035043094e-10
1.156577733e-09
2.006780962e-09
2.978897982e-09
4.019178481e-09
5.074350257e-09
6.117884254e-09
7.125638472e-09
8.068466822e-09
8.934892107e-09
9.717343617e-09
1.039611671e-08
1.094727138e-08
1.134992093e-08
1.156275624e-08
1.15899986e-08
1.138600615e-08
1.091049776e-08
1.023546921e-08
9.348670547e-09
8.246809399e-09
6.993888375e-09
5.643348806e-09
4.247641876e-09
2.870682923e-09
1.547900669e-09
2.939713996e-10
-8.615748831e-10
-1.923077174e-09
-2.69847331e-09
-3.279429237e-09
-3.804811424e-09
-4.159351651e-09
-4.409026515e-09
-4.547955433e-09
-4.564690129e-09
-4.531865288e-09
-4.534163285e-09
-4.505740352e-09
-4.406840879e-09
-4.299999835e-09
-4.15370898e-09
-3.987531212e-09
-3.83228252e-09
-3.702651334e-09
-3.590428568e-09
-3.477788166e-09
-3.370173276e-09
-3.237014585e-09
-3.09430842e-09
-2.976325198e-09
-2.886625144e-09
-2.783590071e-09
-2.695297426e-09
-2.653157985e-09
-2.609868833e-09
-2.54345239e-09
-2.471380892e-09
-2.424755287e-09
-2.381056457e-09
-2.342718416e-09
-2.315286413e-09
-2.291314453e-09
-2.276471585e-09
-2.236794548e-09
-2.188937989e-09
-2.145566462e-09
-2.100223569e-09
-2.074361965e-09
-2.05674781e-09
-2.045212616e-09
-2.05530492e-09
-2.062290784e-09
-2.030315043e-09
-1.986997272e-09
-1.963948012e-09
-1.955805709e-09
-1.953056219e-09
-1.950036758e-09
-1.922741712e-09
-1.878238937e-09
-1.846267874e-09
-1.823579154e-09
-1.796883442e-09
-1.753268519e-09
-1.674237876e-09
-1.620637087e-09
-1.558531798e-09
-1.471279096e-09
-1.392255726e-09
-1.278660812e-09
-1.202030697e-09
-1.21594405e-09
3.153485071e-09
8.939727734e-09
1.352013382e-08
1.846068395e-08
2.020653632e-08
)


101
(
-4.353211033e-12
5.304700797e-12
1.205877708e-10
4.800946827e-10
1.110107335e-09
1.937040058e-09
2.890650168e-09
3.921592152e-09
4.981606448e-09
6.047655467e-09
7.10027686e-09
8.111662121e-09
9.06992381e-09
9.970206019e-09
1.07935606e-08
1.151476796e-08
1.211236947e-08
1.254088458e-08
1.279707421e-08
1.28311312e-08
1.259442966e-08
1.215018842e-08
1.1465121e-08
1.052618608e-08
9.398127289e-09
8.113479605e-09
6.715994006e-09
5.285747646e-09