/*--------------------------------*- C++ -*----------------------------------*\
| =========                 |                                                 |
| \\      /  F ield         | OpenFOAM: The Open Source CFD Toolbox           |
|  \\    /   O peration     | Version:  2.3.1                                 |
|   \\  /    A nd           | Web:      www.OpenFOAM.org                      |
|    \\/     M anipulation  |                                                 |
\*---------------------------------------------------------------------------*/
FoamFile
{
    version     2.0;
    format      ascii;
    class       dictionary;
    location    "constant";
    object      GRPSI27;
}
// * * * * * * * * * * * * * * * * * * * * * * * * * * * * * * * * * * * * * //

GRPSI27_table
101
(

101
(
3.027523851e-12
2.561214544e-10
4.553973639e-09
3.252050381e-08
1.380264234e-07
4.27362233e-07
1.175074078e-06
2.916592047e-06
6.616818505e-06
1.3780036e-05
2.649692692e-05
4.67682431e-05
7.773408409e-05
0.0001212185605
0.0001769276639
0.0002453176486
0.0003265511686
0.0004122109582
0.0005045253812
0.0005978794646
0.0006808695922
0.0007610398967
0.0008330851323
0.0008903565679
0.000934918891
0.0009673512465
0.0009878748892
0.0009973180134
0.0009965130127
0.0009863742851
0.0009683946395
0.0009458191132
0.0009135839702
0.0008745968616
0.0008348712876
0.0007910721416
0.0007463658308
0.0007013797405
0.0006511432774
0.0005970921156
0.0005477652532
0.0004984465785
0.0004462208665
0.0003977380928
0.0003491145335
0.0003004274106
0.0002525117218
0.0002049723006
0.0001585744736
0.0001133708601
7.021603654e-05
2.765376157e-05
-1.331680701e-05
-5.247494311e-05
-9.004482778e-05
-0.0001286659182
-0.0001644475942
-0.0001982414975
-0.0002319691032
-0.0002636651376
-0.0002945530976
-0.0003234301551
-0.0003514291289
-0.0003783413494
-0.0004040367805
-0.0004284818227
-0.00045152748
-0.0004739490895
-0.0004951435906
-0.0005149751832
-0.0005340299637
-0.0005524472715
-0.0005694827428
-0.0005846557404
-0.0005986730188
-0.0006126775446
-0.0006263095312
-0.0006382506571
-0.00064899594
-0.0006588858297
-0.0006684877904
-0.000677223279
-0.0006848627748
-0.0006919601802
-0.0006982254839
-0.0007037442796
-0.0007086139154
-0.0007128934541
-0.0007165922654
-0.0007197624532
-0.0007223871685
-0.0007244876854
-0.000726199234
-0.0007274973623
-0.0007284619531
-0.000728849801
-0.0003644029154
6.399997596e-12
-1.796399424e-21
-1.60506783e-22
3.592798848e-21
)


101
(
-4.101776491e-12
1.823926906e-10
3.962643119e-09
2.947710151e-08
1.262913836e-07
3.906814446e-07
1.071657777e-06
2.657222875e-06
6.028290899e-06
1.256666213e-05
2.420113016e-05
4.282604813e-05
7.130353998e-05
0.0001115270822
0.0001634521723
0.0002274397282
0.0003036875722
0.0003856967633
0.0004735755687
0.0005637388619
0.0006465136645
0.0007248607454
0.0007966144886
0.0008562697138
0.000903444071
0.0009388272585
0.0009628422141
0.0009760027974
0.000979156099
0.0009731862663
0.0009592816691
0.0009402065271
0.0009124357712
0.0008777943951
0.0008411474986
0.0008007202348
0.0007585416151
0.0007154408837
0.0006688460641
0.0006187243477
0.000570116515
0.0005223047285
0.0004729070364
0.0004248848792
0.0003775774031
0.0003303807601
0.0002836715733
0.0002373747365
0.0001918831172
0.0001473792361
0.0001043856047
6.245599021e-05
2.170456969e-05
-1.757917234e-05
-5.534578605e-05
-9.27356318e-05
-0.0001289754704
-0.0001634135085
-0.0001968265623
-0.0002289942325
-0.0002600001298
-0.0002896233769
-0.000317991063
-0.0003452925563
-0.0003715081016
-0.0003965928849
-0.0004204630737
-0.0004433252696
-0.0004652353386
-0.0004860155671
-0.0005057330731
-0.0005245685479
-0.000542418748
-0.000559002769
-0.0005744003022
-0.0005890909495
-0.0006032690549
-0.0006165138496
-0.0006285788186
-0.0006396568445
-0.0006500504043
-0.00065976383
-0.000668636294
-0.0006767987812
-0.0006843081659
-0.0006910732569
-0.0006970773951
-0.0007024153838
-0.0007071263916
-0.0007113571807
-0.0007150921748
-0.0007181846569
-0.0007207745436
-0.0007229232374
-0.0007231305111
-0.0007203293865
-0.0003380073286
4.244745053e-05
4.410169979e-05
4.557867589e-05
4.557867158e-05
)


101
(
-1.000359842e-11
1.168944913e-10
3.425807971e-09
2.669209923e-08
1.155453771e-07
3.571651937e-07
9.771790727e-07
2.419818903e-06
5.488171487e-06
1.144941203e-05
2.207994946e-05
3.916680367e-05
6.532028215e-05
0.0001024589022
0.000150758977
0.0002105274457
0.0002819799245
0.0003601515296
0.0004438151265
0.0005305584578
0.0006124505602
0.0006893025311
0.0007604145465
0.0008216666843
0.0008712187001
0.0009093600425
0.0009366064366
0.0009533017031
0.0009602283027
0.0009582427758
0.0009483262802
0.0009328620753
0.0009091408182
0.0008787375121
0.0008455756426
0.0008084407193
0.0007690592051
0.0007281407516
0.0006844415435
0.0006378487226
0.0005912659158
0.0005449607672
0.0004977598307
0.0004511219678
0.0004049886544
0.0003591360749
0.000313694067
0.000268621815
0.0002241739531
0.0001805145473
0.0001380149582
9.659740687e-05
5.625303809e-05
1.710983213e-05
-2.070669278e-05
-5.761668364e-05
-9.365772713e-05
-0.0001283800874
-0.0001618757483
-0.0001942244184
-0.0002254296889
-0.0002554522834
-0.0002842512983
-0.0003119435341
-0.0003385936307
-0.0003642021396
-0.0003887250436
-0.0004121783849
-0.0004346956856
-0.0004562355184
-0.0004767267952
-0.0004962110703
-0.0005147271649
-0.0005322182448
-0.0005487053166
-0.0005643773845
-0.0005793822813
-0.0005936351354
-0.0006068748379
-0.0006191245301
-0.0006305638508
-0.0006412702243
-0.0006512085928
-0.0006604498315
-0.0006690669483
-0.0006770624789
-0.000684341591
-0.000690849098
-0.0006966086545
-0.0007018940162
-0.0007066629695
-0.0007108269345
-0.0007144577896
-0.0007174099035
-0.0007167900862
-0.0007106549484
-0.0003109631525
8.489426809e-05
8.820318199e-05
9.115789039e-05
9.11578328e-05
)


101
(
-1.479072848e-11
5.897960965e-11
2.939204395e-09
2.414459423e-08
1.057068524e-07
3.265537327e-07
8.909324344e-07
2.202742113e-06
4.993068184e-06
1.042202911e-05
2.012288848e-05
3.577552166e-05
5.976143146e-05
9.398922699e-05
0.0001388255593
0.0001945556527
0.0002614032196
0.0003356239119
0.0004152135383
0.0004984062412
0.0005788487332
0.0006543143387
0.00072458347
0.0007867812297
0.0008383497542
0.0008790265216
0.0009092615146
0.0009292894212
0.0009398048628
0.0009416220399
0.0009355767449
0.0009237547488
0.0009038490109
0.0008774895492
0.0008480068239
0.0008142329337
0.0007778126192
0.0007393385211
0.0006982288635
0.0006547302145
0.0006106871635
0.000566247665
0.0005210116458
0.0004760698135
0.0004312920255
0.000386741456
0.0003425677588
0.0002987207726
0.000255387137
0.0002126807137
0.0001708867337
0.0001300458407
9.020039591e-05
5.138965352e-05
1.37076715e-05
-2.295202275e-05
-5.8720869e-05
-9.342741627e-05
-0.0001270011514
-0.0001594683168
-0.0001908388878
-0.0002211242185
-0.0002502686752
-0.0002783215268
-0.0003053517445
-0.0003313987058
-0.0003564536765
-0.0003804784912
-0.0004035751982
-0.0004257577061
-0.0004469611152
-0.0004671548356
-0.0004863608289
-0.0005046087751
-0.0005219666985
-0.00053855333
-0.0005544421966
-0.0005696312845
-0.0005839383037
-0.0005973294905
-0.0006098805747
-0.0006216321288
-0.0006326063628
-0.0006429096005
-0.000652591586
-0.0006616961633
-0.0006702230723
-0.0006780330293
-0.0006849332409
-0.0006912944114
-0.0006970986299
-0.0007022679222
-0.0007069900379
-0.0007108237423
-0.0007092663817
-0.000699644287
-0.0002832151047
0.0001273385389
0.0001323033027
0.0001367366861
0.0001367363291
)


101
(
-1.856871465e-11
8.045097837e-12
2.498886411e-09
2.181528167e-08
9.67002966e-08
2.986052951e-07
8.122568458e-07
2.004446979e-06
4.539758514e-06
9.478519008e-06
1.831980126e-05
3.263749866e-05
5.460464483e-05
8.609277528e-05
0.0001276281912
0.0001794984547
0.0002419311141
0.0003121477766
0.0003877560968
0.0004673287347
0.0005458549664
0.0006198957959
0.0006891861608
0.0007518083918
0.0008049758634
0.000847918821
0.0008808995242
0.0009040467114
0.0009179612877
0.000923400625
0.0009210909057
0.0009128858741
0.0008966516473
0.0008741394205
0.0008483478552
0.0008180362651
0.0007847374467
0.0007489018766
0.0007103155323
0.0006696073989
0.0006282139984
0.000585941397
0.0005426897246
0.0004995736957
0.0004563420829
0.000413165223
0.0003702807996
0.0003276679217
0.0002854910381
0.0002438184121
0.0002028736004
0.0001627168534
0.0001234526816
8.510528928e-05
4.772765112e-05
1.131626254e-05
-2.418470992e-05
-5.872801563e-05
-9.226775788e-05
-0.0001247774315
-0.0001562566857
-0.000186722403
-0.0002161285651
-0.0002444862867
-0.0002718419526
-0.0002982527363
-0.0003237430448
-0.0003482710691
-0.0003719050209
-0.0003946595985
-0.0004164926703
-0.0004373578403
-0.0004572424069
-0.0004761957601
-0.0004943240866
-0.0005117393226
-0.0005284671573
-0.0005445236981
-0.0005597890288
-0.0005742523062
-0.0005879332363
-0.0006007685352
-0.0006127827704
-0.0006241298556
-0.0006348615957
-0.0006450378018
-0.0006546899615
-0.0006637815992
-0.0006719518591
-0.0006794512197
-0.0006862913882
-0.0006924232843
-0.0006982351777
-0.0007030190367
-0.0007004239398
-0.0006871562493
-0.0002547130707
0.0001697812395
0.0001763945436
0.0001822999109
0.0001822993858
)


101
(
-2.143635054e-11
-3.647079586e-11
2.101203944e-09
1.968635293e-08
8.845589846e-08
2.730952753e-07
7.405341345e-07
1.82347797e-06
4.125186462e-06
8.613149647e-06
1.666090457e-05
2.973834012e-05
4.982809916e-05
7.874393256e-05
0.0001171419727
0.0001653290818
0.000223535909
0.0002897444652
0.0003614374068
0.0004373585992
0.0005135945001
0.0005860806653
0.0006542738385
0.0007169077858
0.0007712483072
0.0008161465572
0.0008516168174
0.0008776597569
0.0008947760338
0.0009036540591
0.0009049316789
0.0009002784402
0.0008876118401
0.0008687807769
0.0008466240773
0.0008197992785
0.0007897267351
0.0007567200855
0.0007207048349
0.0006826222434
0.0006438424763
0.0006038981842
0.0005627312724
0.0005215400029
0.000480007598
0.0004383225781
0.0003967887473
0.0003554379489
0.0003144524448
0.0002738777202
0.0002338908923
0.0001945300877
0.0001559363522
0.0001181504091
8.12063159e-05
4.512303947e-05
9.924551647e-06
-2.437630511e-05
-5.777504481e-05
-9.022711563e-05
-0.0001217334981
-0.000152301038
-0.0001818901817
-0.000210492519
-0.0002381231623
-0.0002648324945
-0.0002906681427
-0.0003156106881
-0.0003397199704
-0.0003629908682
-0.0003853827056
-0.0004068513175
-0.0004273631189
-0.0004469681711
-0.0004658005198
-0.0004839867617
-0.0005015061437
-0.0005183598006
-0.0005344779084
-0.0005499000346
-0.0005646686283
-0.0005786131766
-0.0005916850395
-0.0006040689564
-0.0006158251004
-0.0006270447054
-0.0006377753243
-0.0006480392671
-0.0006574881119
-0.0006662375141
-0.0006741390748
-0.0006812316638
-0.0006880697888
-0.0006938026494
-0.0006901471635
-0.0006731009561
-0.0002254065145
0.000212215722
0.0002204511776
0.0002278031403
0.0002278007235
)


101
(
-2.348606482e-11
-7.509145523e-11
1.74278228e-09
1.774140052e-08
8.090923155e-08
2.498154308e-07
6.75187418e-07
1.658467413e-06
3.746460954e-06
7.820454849e-06
1.513678929e-05
2.706401757e-05
4.541054219e-05
7.19169752e-05
0.0001073410876
0.0001520199161
0.0002061887025
0.0002684248122
0.0003362571417
0.0004085198028
0.0004821720309
0.0005529244189
0.0006198960344
0.0006822103783
0.0007373181529
0.0007838334184
0.0008215176566
0.0008502208875
0.0008703324653
0.0008824612904
0.0008871664654
0.0008859687343
0.0008767792966
0.0008614915218
0.0008428718624
0.0008195102488
0.0007927195547
0.0007626854931
0.0007293457783
0.0006938397656
0.0006576139829
0.0006200582818
0.0005810655528
0.000541888226
0.0005021791472
0.0004621133198
0.0004220225806
0.0003819873895
0.0003422321403
0.0003028079876
0.0002638662165
0.000225407196
0.0001875816569
0.0001504485878
0.000114041781
7.837734879e-05
4.354373678e-05
9.555812851e-06
-2.361204643e-05
-5.59091907e-05
-8.73463243e-05
-0.0001179229827
-0.000147608643
-0.0001763847736
-0.0002042393414
-0.0002311945811
-0.0002573000056
-0.0002825659701
-0.0003070626264
-0.0003307817033
-0.0003536735979
-0.0003756825411
-0.0003967570961
-0.0004169450492
-0.0004364079552
-0.0004553019392
-0.0004735694562
-0.0004911732857
-0.0005080650126
-0.0005243288743
-0.0005400755793
-0.0005550953262
-0.0005692415719
-0.0005826711196
-0.0005954423724
-0.0006076740006
-0.0006194351656
-0.0006307882748
-0.0006414609935
-0.00065150295
-0.0006605198808
-0.0006685873576
-0.0006763987967
-0.0006830672659
-0.0006783273434
-0.0006573762151
-0.0001952679944
0.0002545805839
0.0002644283694
0.000273221705
0.0002732198254
)


101
(
-2.480430065e-11
-1.083047333e-10
1.420501538e-09
1.596531944e-08
7.400090925e-08
2.285729307e-07
6.156790372e-07
1.508132201e-06
3.400851803e-06
7.095232892e-06
1.373842647e-05
2.460089027e-05
4.133129411e-05
6.558615863e-05
9.819889196e-05
0.000139542487
0.0001898594091
0.0002481904168
0.0003122162429
0.0003808305598
0.0004516740593
0.0005204938556
0.0005861053531
0.0006478260133
0.000703329364
0.0007511125885
0.0007907162108
0.0008218294034
0.0008447191302
0.0008599042739
0.000867867968
0.0008700059169
0.0008642003788
0.0008523387319
0.0008371448402
0.000817184179
0.0007936829817
0.000766715009
0.0007361641071
0.000703262626
0.0006695610363
0.0006344066075
0.0005976437277
0.0005605509054
0.0005227632609
0.0004844368229
0.0004459010074
0.0004072609125
0.0003687852617
0.0003305563546
0.0002927291567
0.0002552694489
0.0002183143427
0.0001819310771
0.0001461596198
0.0001110048
7.660422308e-05
4.299300052e-05
1.013661302e-05
-2.191127011e-05
-5.31781816e-05
-8.366182311e-05
-0.0001133463442
-0.0001422122741
-0.000170228988
-0.0001973834912
-0.0002237022413
-0.0002492101401
-0.0002739989579
-0.0002980794778
-0.0003213980167
-0.0003438827793
-0.0003654599853
-0.0003861641419
-0.0004061771664
-0.0004256984813
-0.0004446587857
-0.0004629734805
-0.0004805800518
-0.0004975918978
-0.0005141952948
-0.0005301964272
-0.0005453859251
-0.0005598597984
-0.0005736444532
-0.0005868838383
-0.0005996404169
-0.0006120182191
-0.0006238105147
-0.0006351375529
-0.0006453302572
-0.0006543707582
-0.0006631225327
-0.0006707023197
-0.0006648533608
-0.0006398839311
-0.0001642612479
0.0002968331346
0.0003082430795
0.0003184304902
0.0003184263065
)


101
(
-2.547188432e-11
-1.365653853e-10
1.131478853e-09
1.434422381e-08
6.767630349e-08
2.091896273e-07
5.6150898e-07
1.371271356e-06
3.08578735e-06
6.432546919e-06
1.245717836e-05
2.233573811e-05
3.757027719e-05
5.972587087e-05
8.968807796e-05
0.00012786755
0.0001745168438
0.0002290354036
0.0002893145732
0.0003543043407
0.0004221720921
0.0004888606723
0.0005529592833
0.0006138504164
0.0006694154321
0.0007181205855
0.0007593350926
0.0007925928652
0.0008180311898
0.0008360694865
0.0008471134289
0.0008524484312
0.0008499236361
0.0008413817937
0.0008295030734
0.0008128588789
0.0007926135127
0.0007687534233
0.000741084938
0.0007108543724
0.0006796871058
0.0006469414063
0.0006124415135
0.0005774816224
0.0005416866139
0.0005051991517
0.0004683306545
0.0004311856462
0.0003940625593
0.0003570793194
0.00032041643
0.0002840323756
0.0002480513577
0.0002125227001
0.0001774843584
0.0001429358417
0.0001090503583
7.587987644e-05
4.33986947e-05
1.167722399e-05
-1.932467368e-05
-4.960752288e-05
-7.917916743e-05
-0.000108032346
-0.0001361319001
-0.0001634347318
-0.0001899233333
-0.0002156096667
-0.000240597097
-0.0002649342507
-0.0002885916507
-0.0003114863243
-0.0003335104342
-0.0003546679451
-0.0003751532613
-0.0003952103227
-0.0004147833019
-0.0004337556011
-0.0004520267665
-0.0004697118287
-0.0004870678311
-0.000503942588
-0.0005201049534
-0.0005355923745
-0.000550367013
-0.0005646091819
-0.0005783355114
-0.0005916863835
-0.0006045119623
-0.0006170612378
-0.0006284623936
-0.0006384802708
-0.0006481535343
-0.0006566135493
-0.0006495875632
-0.0006205457225
-0.0001324026776
0.0003389125217
0.0003518115123
0.0003633132663
0.0003632905885
)


101
(
-2.556434978e-11
-1.602975411e-10
8.73049173e-10
1.286535466e-08
6.188523412e-08
1.915012697e-07
5.122132123e-07
1.246762774e-06
2.798849584e-06
5.827720882e-06
1.12847981e-05
2.025578406e-05
3.41080438e-05
5.431077256e-05
8.178083298e-05
0.0001169651186
0.0001601287962
0.0002109472536
0.0002675495927
0.0003289506749
0.0003937233967
0.0004580960834
0.000520520281
0.0005803699458
0.0006356982462
0.0006849928211
0.0007275031983
0.0007626269278
0.0007903714728
0.0008110498138
0.0008249865417
0.000833364246
0.0008340031593
0.0008286766372
0.000820006602
0.0008065839382
0.0007895310033
0.0007687754467
0.000744047991
0.0007165612696
0.0006879713318
0.0006576552095
0.0006254423761
0.0005926495418
0.0005588973276
0.0005243242413
0.0004892216867
0.0004536774912
0.0004179995646
0.0003823301861
0.0003468811563
0.0003116263489
0.0002766985241
0.0002421292081
0.0002079352379
0.0001740972226
0.0001408202047
0.000108165966
7.612077198e-05
4.479033453e-05
1.413039251e-05
-1.585966593e-05
-4.520614961e-05
-7.392427445e-05
-0.000101995925
-0.0001293707367
-0.000155985123
-0.0001818101205
-0.0002069342447
-0.0002314300213
-0.0002553154247
-0.0002785230793
-0.0003009238961
-0.0003224846881
-0.0003433813008
-0.0003638833596
-0.0003839678957
-0.0004035257227
-0.0004224146001
-0.0004407060065
-0.000458714976
-0.0004763547251
-0.0004934078174
-0.000509854538
-0.0005255674208
-0.0005407832546
-0.0005554722652
-0.0005697459782
-0.0005835283005
-0.0005972213965
-0.000609822452
-0.0006208344315
-0.0006314014703
-0.0006406949492
-0.0006324393687
-0.0005992942403
-9.96989652e-05
0.0003807389881
0.0003950638957
0.0004077827383
0.0004076981454
)


101
(
-2.515223757e-11
-1.798968539e-10
6.427494387e-10
1.151700131e-08
5.658169462e-08
1.753568135e-07
4.673623579e-07
1.133560579e-06
2.537769917e-06
5.276338836e-06
1.02134416e-05
1.834872659e-05
3.09257877e-05
4.931589504e-05
7.444904818e-05
0.0001068046131
0.0001466621836
0.0001939079828
0.0002469149777
0.0003047751856
0.0003663743284
0.0004282679718
0.0004888534467
0.0005474653413
0.0006022896236
0.0006518608613
0.0006953532459
0.0007320544855
0.0007618501826
0.0007849444716
0.0008015768202
0.0008128298824
0.0008165010263
0.0008142792898
0.0008087128425
0.0007984144276
0.000784473931
0.0007667843875
0.0007450173662
0.0007203312676
0.0006943738744
0.0006665256385
0.0006366291138
0.0006060308115
0.0005743558693
0.0005417510992
0.0005084971494
0.0004746558664
0.0004405217786
0.0004062481785
0.0003720771381
0.0003380051697
0.0003041874555
0.000270660273
0.0002374166559
0.0002043993547
0.0001718353843
0.0001397881832
0.0001082526471
7.737460498e-05
4.712211849e-05
1.750046837e-05
-1.152619886e-05
-3.998840568e-05
-6.789943443e-05
-9.523565635e-05
-0.0001219106026
-0.0001478386706
-0.0001730578399
-0.0001976358085
-0.0002216395542
-0.0002450501853
-0.0002677399588
-0.0002896380468
-0.0003108858058
-0.0003317602409
-0.0003522626741
-0.000372300042
-0.0003917359595
-0.0004105918286
-0.0004291689423
-0.0004474521938
-0.0004652941514
-0.0004826463369
-0.0004992386631
-0.0005153511215
-0.0005309941683
-0.0005461655164
-0.0005608237835
-0.0005755543157
-0.0005893302412
-0.0006013703138
-0.0006127889939
-0.0006228575928
-0.0006133377425
-0.0005760402303
-6.615810927e-05
0.0004221944667
0.000437949605
0.0004520231114
0.0004520110806
)


101
(
-2.430137721e-11
-1.957325989e-10
4.383022394e-10
1.028841944e-08
5.172355103e-08
1.606175496e-07
4.265596496e-07
1.03069158e-06
2.300423507e-06
4.774237368e-06
9.235658249e-06
1.660275426e-05
2.800536111e-05
4.471671139e-05
6.766444138e-05
9.735493361e-05
0.0001340830349
0.0001778951074
0.0002274002284
0.0002817789638
0.0003401606946
0.0003994385592
0.0004580254757
0.0005152143459
0.0005692923047
0.0006188497839
0.0006630185455
0.0007010041683
0.0007325849643
0.0007578595036
0.0007769800403
0.0007909288788
0.0007974869003
0.0007982498531
0.0007956788256
0.0007884068045
0.0007774914881
0.000762806029
0.0007439827838
0.0007221249635
0.0006988482192
0.0006735175046
0.0006459776262
0.0006176041905
0.0005880373465
0.000557438358
0.0005260895301
0.0004940375493
0.0004615492762
0.0004287670673
0.0003959516873
0.0003631224167
0.0003304690485
0.0002980444498
0.0002658320462
0.0002337438065
0.000202009548
0.0001706767069
0.0001397382542
0.000109380332
7.95958524e-05
5.040701422e-05
2.177760321e-05
-6.330773094e-06
-3.395511441e-05
-6.110831901e-05
-8.77312102e-05
-0.0001137042614
-0.0001389872252
-0.0001636069427
-0.0001876455615
-0.0002111388505
-0.0002340002975
-0.0002561486824
-0.0002776863541
-0.0002988759063
-0.0003197202068
-0.0003401264821
-0.0003600004447
-0.0003793665034
-0.0003984550441
-0.0004172646441
-0.0004357674476
-0.0004539484747
-0.000471383798
-0.0004883068722
-0.0005048440641
-0.000520921761
-0.0005363727576
-0.0005520249723
-0.0005669349991
-0.0005799999962
-0.000592233897
-0.0006030214436
-0.0005922291013
-0.0005507582598
-3.176254028e-05
0.0004632876053
0.0004804058323
0.0004956635334
0.0004956054051
)


101
(
-2.307314474e-11
-2.081495764e-10
2.576015995e-10
9.169760813e-09
4.727228991e-08
1.471564289e-07
3.894394465e-07
9.372523241e-07
2.084825217e-06
4.317502504e-06
8.344394826e-06
1.50065623e-05
2.532931392e-05
4.048925069e-05
6.139870976e-05
8.8584567e-05
0.0001223567967
0.0001628821337
0.0002089905231
0.0002599590209
0.0003151086543
0.0003716626598
0.0004281022429
0.0004836929417
0.0005368029532
0.0005860782102
0.0006306305364
0.0006696081882
0.0007027000473
0.0007299078178
0.0007512982066
0.0007677522199
0.0007770386425
0.0007806544537
0.0007809638248
0.0007766176506
0.0007686373781
0.0007568812397
0.0007409568142
0.0007219231193
0.00070135662
0.0006785914281
0.0006534569161
0.0006273453928
0.0005999177955
0.0005713565214
0.0005419536222
0.0005117514586
0.000480995775
0.0004498064047
0.0004184411528
0.000386929744
0.0003554965677
0.0003242262216
0.0002931119269
0.0002620411608
0.0002312443896
0.0002007419199
0.0001705078613
0.0001407550382
0.0001115041135
8.280767191e-05
5.463712985e-05
2.696215049e-05
-2.699908736e-07
-2.710366882e-05
-5.352579111e-05
-7.943481582e-05
-0.0001047290347
-0.000129362592
-0.0001533882533
-0.0001768669515
-0.0001997726326
-0.0002220564409
-0.0002438041272
-0.0002652465459
-0.0002863658587
-0.0003070604595
-0.0003272591681
-0.000347031175
-0.0003665789069
-0.0003858342848
-0.0004048473969
-0.0004237376319
-0.0004419954846
-0.0004596696288
-0.0004769832476
-0.0004939458902
-0.000510161974
-0.0005266108305
-0.0005425801497
-0.0005566722276
-0.0005696816257
-0.0005811224458
-0.0005690425439
-0.0005234070934
3.444570868e-06
0.0005039449113
0.0005224803629
0.0005390554988
0.0005390406164
)


101
(
-2.152469785e-11
-2.174698423e-10
9.869917602e-11
8.152001174e-09
4.319274913e-08
1.348573294e-07
3.556656384e-07
8.524054797e-07
1.889122994e-06
3.902463559e-06
7.5329927e-06
1.354936319e-05
2.288090836e-05
3.661019168e-05
5.562367482e-05
8.046171675e-05
0.0001114483223
0.0001488395528
0.0001916665742
0.0002393074546
0.0002912364142
0.0003449872765
0.0003991463555
0.0004529749103
0.0005049129189
0.0005536581152
0.0005983166169
0.0006379998886
0.0006723252491
0.000701209895
0.0007246405003
0.0007433973031
0.000755242035
0.0007615677493
0.0007646328437
0.0007631056689
0.0007579666938
0.0007490584377
0.0007359709346
0.0007197295706
0.0007018753685
0.0006817088569
0.0006590300705
0.0006352263931
0.0006099743245
0.000583481153
0.0005560544895
0.0005277467517
0.0004987919589
0.000469284119
0.0004394662496
0.0004093633197
0.0003792225869
0.0003491610339
0.0003192007703
0.0002892175967
0.0002594464962
0.0002298848947
0.0002004738644
0.000171429739
0.0001427960377
0.0001146616344
8.700736864e-05
5.982001625e-05
3.306107258e-05
6.668811704e-06
-1.940250941e-05
-4.509850859e-05
-7.030643821e-05
-9.491067965e-05
-0.0001188934444
-0.0001422986461
-0.0001651391905
-0.000187423104
-0.0002092602267
-0.0002308756787
-0.0002522178912
-0.0002731341343
-0.0002935557298
-0.0003136149772
-0.0003335422796
-0.0003531846634
-0.0003725822406
-0.0003920195036
-0.0004110338125
-0.0004294439496
-0.0004474294467
-0.0004651763586
-0.0004821597946
-0.0004993268355
-0.0005162186045
-0.0005313074174
-0.0005450799765
-0.0005571174955
-0.0005437248305
-0.0004939604414
3.948999174e-05
0.0005442179738
0.0005642567243
0.0005821751233
0.0005821554325
)


101
(
-1.970918721e-11
-2.239942949e-10
-4.020866946e-11
7.226873517e-09
3.945286135e-08
1.23614273e-07
3.249298661e-07
7.753772357e-07
1.711593154e-06
3.525684042e-06
6.795178194e-06
1.222089664e-05
2.064412918e-05
3.305689201e-05
5.031142014e-05
7.295445888e-05
0.0001013220043
0.0001357352637
0.0001754052366
0.0002198116853
0.0002685535778
0.0003194505255
0.0003712159368
0.0004231313345
0.0004737087436
0.0005216951671
0.0005661998787
0.0006063125794
0.0006415945166
0.0006718926287
0.0006971235862
0.0007179702922
0.0007321911332
0.0007410717524
0.0007467577096
0.0007479337643
0.0007455362059
0.0007393898445
0.000729068369
0.0007155677426
0.0007004012717
0.0006828438474
0.0006626606644
0.0006412129377
0.0006181776674
0.0005937871967
0.0005683690033
0.0005419872332
0.0005148811949
0.0004871308012
0.0004589502332
0.0004303473153
0.0004015850043
0.0003728000304
0.0003440458264
0.0003152105848
0.0002865421351
0.0002580183302
0.000229544216
0.0002013228001
0.0001734054962
0.0001459171101
0.0001188488767
9.220406053e-05
6.597706044e-05
4.011044511e-05
1.452224691e-05
-1.08007488e-05
-3.578017794e-05
-6.026483303e-05
-8.416500802e-05
-0.0001074651108
-0.0001301729598
-0.0001523339134
-0.0001741123498
-0.0001957780656
-0.0002172672771
-0.0002383580601
-0.0002589336997
-0.0002791549032
-0.0002993392115
-0.0003193116108
-0.0003390189833
-0.0003588313961
-0.0003784658864
-0.0003976049502
-0.0004162056495
-0.0004345989738
-0.0004523153368
-0.0004701475022
-0.0004878334642
-0.0005038594715
-0.0005183727273
-0.0005309570066
-0.0005162346043
-0.0004623741263
7.64650127e-05
0.0005842396663
0.0006058654276
0.0006251124963
0.0006250062723
)


101
(
-1.767596153e-11
-2.280041393e-10
-1.607925155e-10
6.386807695e-09
3.602342894e-08
1.133307499e-07
2.96949963e-07
7.054543365e-07
1.550635321e-06
3.183952039e-06
6.125060848e-06
1.101143656e-05
1.860369411e-05
2.980746525e-05
4.543444067e-05
6.603086664e-05
9.194203177e-05
0.000123535118
0.0001601796848
0.0002014546905
0.0002470625236
0.0002950818515
0.0003443629543
0.0003942295787
0.0004432726749
0.0004902893008
0.0005343977687
0.0005746768547
0.0006106438722
0.0006420888607
0.000668870842
0.0006915833786
0.0007079877879
0.0007192575065
0.0007274185702
0.0007311719603
0.0007314072316
0.0007279309141
0.0007202990189
0.0007094760489
0.0006969510924
0.0006819873387
0.0006643195548
0.0006452696218
0.000624498002
0.0006022477124
0.0005788692411
0.0005544469031
0.0005292265336
0.0005032840518
0.0004768186412
0.0004498100511
0.0004225155035
0.0003950869534
0.0003676003343
0.0003399662303
0.0003124651497
0.0002850617947
0.0002576305943
0.0002303527959
0.0002032613957
0.0001765098856
0.0001501101267
0.0001240791555
9.844147489e-05
7.316217182e-05
4.815070221e-05
2.33409941e-05
-1.242968914e-06
-2.547116546e-05
-4.921142828e-05
-7.236907442e-05
-9.490904141e-05
-0.0001168691051
-0.0001384466515
-0.0001599944233
-0.0001815077182
-0.0002027225589
-0.000223409845
-0.0002436956839
-0.0002639960864
-0.000284192441
-0.0003041583734
-0.0003242321764
-0.000344302275
-0.0003640975319
-0.0003833026092
-0.0004022171755
-0.0004205746962
-0.0004390335371
-0.0004573974296
-0.0004743039438
-0.0004895323842
-0.0005025906776
-0.0004865289039
-0.0004286234873
0.0001144212614
0.00062412663
0.0006474718992
0.0006684874733
0.0006686376366
)


101
(
-1.547074823e-11
-2.297622557e-10
-2.646009279e-10
5.624869154e-09
3.287788162e-08
1.03919013e-07
2.714682972e-07
6.41980932e-07
1.404766853e-06
2.874271912e-06
5.517120317e-06
9.911792701e-06
1.674506492e-05
2.684083268e-05
4.096574524e-05
5.965916116e-05
8.327241213e-05
0.0001122035532
0.0001459599576
0.0001842148649
0.0002267583801
0.0002719015385
0.0003186321533
0.000366332735
0.0004136827437
0.0004595347195
0.000503021611
0.0005432192225
0.0005796096159
0.0006119363151
0.00064001371
0.0006643568883
0.0006827402206
0.0006962230159
0.0007067039329
0.0007128984623
0.0007156475733
0.0007147410751
0.0007097168955
0.0007015021837
0.0006915590754
0.0006791506692
0.0006639934417
0.0006473665881
0.0006289013451
0.0006088338775
0.0005875300605
0.0005650987403
0.0005417976706
0.0005177038393
0.0004930100348
0.0004676772481
0.0004419439201
0.0004159587647
0.0003898164506
0.0003634408231
0.000337157227
0.0003109445315
0.0002846512627
0.0002584292266
0.0002322814261
0.0002063728512
0.0001807347409
0.0001554046338
0.0001304225302
0.0001057841274
8.142184594e-05
5.723872448e-05
3.320210106e-05
9.388775047e-06
-1.406409802e-05
-3.700688323e-05
-5.934598407e-05
-8.106748745e-05
-0.0001023505951
-0.0001236093033
-0.0001449715528
-0.0001662017526
-0.0001869641377
-0.0002072757138
-0.0002275614445
-0.0002478257225
-0.0002679733398
-0.0002882324025
-0.0003085694064
-0.0003288911099
-0.0003486840838
-0.0003680343145
-0.0003869021943
-0.0004059544595
-0.0004248856029
-0.0004425951466
-0.000458529941
-0.0004719748025
-0.0004545701076
-0.000392723757
0.0001534302652
0.0006640688004
0.0006891965719
0.0007118321957
0.0007120600591
)


101
(
-1.313577739e-11
-2.295165562e-10
-3.530709741e-10
4.934703525e-09
2.999204514e-08
9.529937155e-08
2.482500243e-07
5.843557986e-07
1.272617949e-06
2.593853505e-06
4.966188766e-06
8.91329982e-06
1.505445062e-05
2.413677056e-05
3.687892151e-05
5.380779353e-05
7.527711347e-05
0.0001017036101
0.0001327133199
0.0001680667418
0.0002076293856
0.0002499207954
0.0002940598565
0.000339498003
0.000385013052
0.0004295208
0.0004721766463
0.0005120604852
0.0005486252898
0.0005815748278
0.0006106896672
0.0006364191484
0.0006565643516
0.0006720730089
0.0006847094543
0.0006931996159
0.0006983337394
0.0006998868478
0.0006973805239
0.000691699258
0.0006842705269
0.0006743632575
0.0006616877564
0.0006474864038
0.0006313591188
0.0006135169748
0.0005943250487
0.0005739175008
0.0005525675578
0.0005303567149
0.0005074809816
0.0004838893182
0.000459800292
0.000435349601
0.0004106336031
0.0003855869995
0.0003605791147
0.0003356102029
0.0003105283298
0.0002854658834
0.0002603836939
0.0002354335772
0.0002106617323
0.0001861272764
0.000161883117
0.0001379548132