/*--------------------------------*- C++ -*----------------------------------*\
| =========                 |                                                 |
| \\      /  F ield         | OpenFOAM: The Open Source CFD Toolbox           |
|  \\    /   O peration     | Version:  2.3.1                                 |
|   \\  /    A nd           | Web:      www.OpenFOAM.org                      |
|    \\/     M anipulation  |                                                 |
\*---------------------------------------------------------------------------*/
FoamFile
{
    version     2.0;
    format      ascii;
    class       dictionary;
    location    "constant";
    object      GRPSI23;
}
// * * * * * * * * * * * * * * * * * * * * * * * * * * * * * * * * * * * * * //

GRPSI23_table
101
(

101
(
4.108022757e-16
1.57589632e-14
1.509948832e-13
6.323162355e-13
1.654416407e-12
3.23592553e-12
5.414484322e-12
8.081735145e-12
1.102107257e-11
1.403062415e-11
1.685983142e-11
1.92376123e-11
2.089961898e-11
2.156659874e-11
2.098955735e-11
1.907668877e-11
1.575040009e-11
1.149774292e-11
6.349886943e-12
8.84580629e-13
-4.039838197e-12
-8.612313862e-12
-1.232450237e-11
-1.477731152e-11
-1.614526438e-11
-1.657243268e-11
-1.622504065e-11
-1.529984376e-11
-1.400581921e-11
-1.252295243e-11
-1.100047205e-11
-9.605523897e-12
-8.144054524e-12
-6.776108789e-12
-5.70872028e-12
-3.639723354e-12
-1.002709891e-12
-1.998416429e-12
-3.681587339e-12
-2.970087888e-12
-2.436871129e-12
-1.998724259e-12
-1.609501981e-12
-1.31046523e-12
-1.059866335e-12
-8.488484901e-13
-6.777626291e-13
-5.363685301e-13
-4.235378435e-13
-3.317584938e-13
-2.597326713e-13
-2.011769866e-13
-1.549017544e-13
-1.184742813e-13
-9.010772765e-14
-6.687405958e-14
-4.937491979e-14
-3.658457816e-14
-2.634166725e-14
-1.891772657e-14
-1.332082589e-14
-9.394858498e-15
-6.466875067e-15
-4.31327291e-15
-2.841444418e-15
-1.866701243e-15
-1.184774133e-15
-7.279919843e-16
-4.395373639e-16
-2.605175304e-16
-1.482617455e-16
-8.22719169e-17
-4.385099076e-17
-2.109286274e-17
-9.653938906e-18
-7.017787721e-18
-4.579240034e-18
-1.983845622e-18
-8.554191963e-19
-3.599992762e-19
-1.413613819e-19
-5.179664054e-20
-1.889244727e-20
-6.315524248e-21
-3.956537584e-21
-2.088771226e-21
-7.271170161e-22
-2.481425753e-22
-7.325793227e-23
-2.379062959e-23
-1.669340309e-23
-5.092929585e-24
-1.192793736e-24
-3.049900318e-25
-1.005479079e-25
-2.928481492e-26
-3.229879133e-27
5.202597877e-33
-6.151061329e-43
-8.096575551e-43
1.230212319e-42
)


101
(
3.196475143e-16
1.445555098e-14
1.399861491e-13
5.838693911e-13
1.525237661e-12
2.993655829e-12
4.99450277e-12
7.426221559e-12
1.011188911e-11
1.286767e-11
1.547640293e-11
1.770108769e-11
1.931723166e-11
2.008542002e-11
1.975898369e-11
1.823600627e-11
1.552195921e-11
1.175933211e-11
7.251661205e-12
2.399184296e-12
-2.414063268e-12
-6.761726716e-12
-1.031243068e-11
-1.293424513e-11
-1.458969822e-11
-1.533828761e-11
-1.531442732e-11
-1.468268348e-11
-1.363461042e-11
-1.23494162e-11
-1.097178382e-11
-9.649039753e-12
-8.328724615e-12
-7.078317941e-12
-6.016242913e-12
-4.561029806e-12
-2.760720297e-12
-2.356139337e-12
-2.888915623e-12
-2.784401468e-12
-2.378329593e-12
-1.968180037e-12
-1.60395784e-12
-1.306041246e-12
-1.061065295e-12
-8.583623578e-13
-6.925388482e-13
-5.560249345e-13
-4.44600631e-13
-3.535738642e-13
-2.799765895e-13
-2.204809451e-13
-1.729366967e-13
-1.348469793e-13
-1.040894955e-13
-7.933358264e-14
-5.993378151e-14
-4.505548742e-14
-3.353093164e-14
-2.473532776e-14
-1.805043161e-14
-1.306434989e-14
-9.355731223e-15
-6.584993522e-15
-4.544080472e-15
-3.094635707e-15
-2.081016069e-15
-1.372091899e-15
-8.870222783e-16
-5.60098054e-16
-3.450839714e-16
-2.07478748e-16
-1.220899747e-16
-6.927650056e-17
-3.725138705e-17
-2.031443414e-17
-1.116289275e-17
-5.707257592e-18
-2.759572566e-18
-1.284574261e-18
-5.749165343e-19
-2.466089797e-19
-1.002098807e-19
-3.931124246e-20
-1.533291222e-20
-6.169803347e-21
-2.613396966e-21
-1.144195296e-21
-4.653530524e-22
-1.748454484e-22
-6.896523403e-23
-2.698472832e-23
-1.030648797e-23
-3.598258866e-24
-1.185597511e-24
-4.460331951e-25
-1.119947354e-25
2.91738825e-26
1.410675721e-25
7.369230127e-25
1.232331021e-24
)


101
(
2.464289961e-16
1.340549392e-14
1.318605931e-13
5.523202812e-13
1.449315732e-12
2.862372095e-12
4.794108128e-12
7.156818331e-12
9.795787868e-12
1.254046417e-11
1.518840608e-11
1.751622215e-11
1.930955532e-11
2.033587745e-11
2.034261738e-11
1.919934378e-11
1.688900514e-11
1.347253103e-11
9.233073173e-12
4.520876343e-12
-3.420355146e-13
-4.872721289e-12
-8.737238864e-12
-1.177967753e-11
-1.38945868e-11
-1.509525195e-11
-1.547950814e-11
-1.518361974e-11
-1.438623322e-11
-1.326624997e-11
-1.197807651e-11
-1.069077866e-11
-9.385070329e-12
-8.137801346e-12
-7.042240382e-12
-5.656005649e-12
-3.969878194e-12
-3.067665009e-12
-3.082902313e-12
-3.080354448e-12
-2.810737603e-12
-2.415223447e-12
-2.009873133e-12
-1.661388189e-12
-1.369326801e-12
-1.12484184e-12
-9.23816548e-13
-7.571168659e-13
-6.186871066e-13
-5.038101386e-13
-4.088319903e-13
-3.302911824e-13
-2.659575498e-13
-2.137563871e-13
-1.710534175e-13
-1.357938239e-13
-1.069171107e-13
-8.360667027e-14
-6.500837467e-14
-5.024177307e-14
-3.85507003e-14
-2.944225508e-14
-2.230564643e-14
-1.670017687e-14
-1.236541389e-14
-9.07749721e-15
-6.60096038e-15
-4.725216103e-15
-3.339435114e-15
-2.32796015e-15
-1.591260299e-15
-1.062613781e-15
-6.940377446e-16
-4.4828395e-16
-2.806078615e-16
-1.703514506e-16
-1.008311724e-16
-5.776979573e-17
-3.2111357e-17
-1.734119239e-17
-9.040424574e-18
-4.535011609e-18
-2.165813911e-18
-9.97385612e-19
-4.313469104e-19
-1.743927436e-19
-6.711280851e-20
-2.720834503e-20
-1.189394379e-20
-4.778285283e-21
-1.8692235e-21
-7.415879038e-22
-2.967299454e-22
-1.28441293e-22
-5.148391383e-23
-2.463136422e-23
-5.183722094e-24
1.367405749e-23
7.614402328e-23
-1.298519345e-20
-2.610230077e-20
)


101
(
1.836846484e-16
1.248284232e-14
1.249483748e-13
5.268926523e-13
1.390226717e-12
2.7612824e-12
4.645275066e-12
6.967114604e-12
9.587368267e-12
1.234811497e-11
1.505960641e-11
1.751086675e-11
1.949658288e-11
2.079148961e-11
2.11406952e-11
2.038817257e-11
1.848689482e-11
1.544307662e-11
1.1494604e-11
6.9424606e-12
2.071373695e-12
-2.625226031e-12
-6.807981916e-12
-1.029001125e-11
-1.290341969e-11
-1.461320941e-11
-1.547935986e-11
-1.560004833e-11
-1.513378341e-11
-1.425375795e-11
-1.311286554e-11
-1.190402854e-11
-1.062648371e-11
-9.395857599e-12
-8.364506191e-12
-6.975622147e-12
-5.288359107e-12
-4.141036231e-12
-3.697301135e-12
-3.567876183e-12
-3.382255657e-12
-3.038124855e-12
-2.617442716e-12
-2.219417849e-12
-1.866000867e-12
-1.56263939e-12
-1.310200891e-12
-1.099525548e-12
-9.226625546e-13
-7.729999006e-13
-6.465358906e-13
-5.38457141e-13
-4.473830521e-13
-3.715493531e-13
-3.078610692e-13
-2.544661416e-13
-2.095988984e-13
-1.712838319e-13
-1.393799574e-13
-1.129145799e-13
-9.086275845e-14
-7.291624373e-14
-5.822284534e-14
-4.615780897e-14
-3.637499046e-14
-2.845563231e-14
-2.208383038e-14
-1.691100912e-14
-1.27762824e-14
-9.602373951e-15
-7.133944822e-15
-5.195042768e-15
-3.707066867e-15
-2.619239603e-15
-1.817898427e-15
-1.231845215e-15
-8.133468952e-16
-5.210959241e-16
-3.243591298e-16
-1.968688285e-16
-1.171094687e-16
-6.778540002e-17
-3.755756887e-17
-2.015662228e-17
-1.036289961e-17
-5.039347035e-18
-2.27876566e-18
-9.741793086e-19
-4.351359047e-19
-1.913368503e-19
-7.612423264e-20
-2.831617943e-20
-1.105637423e-20
-4.60956877e-21
-1.932452952e-21
-9.55986605e-22
1.264306508e-24
1.724065363e-21
1.386661781e-20
7.960743087e-20
1.342431542e-19
)


101
(
1.279735362e-16
1.163582074e-14
1.186301462e-13
5.039916995e-13
1.337246177e-12
2.670024066e-12
4.511601674e-12
6.799147789e-12
9.407239535e-12
1.219147278e-11
1.497542225e-11
1.756115615e-11
1.975322881e-11
2.133459552e-11
2.205055535e-11
2.172209056e-11
2.02718975e-11
1.765601073e-11
1.406213872e-11
9.736556249e-12
4.922577912e-12
1.141190359e-13
-4.353345096e-12
-8.270746332e-12
-1.140944901e-11
-1.368317688e-11
-1.51078362e-11
-1.573590245e-11
-1.569871103e-11
-1.516044071e-11
-1.42560217e-11
-1.319630262e-11
-1.198415819e-11
-1.077710872e-11
-9.757892344e-12
-8.50868517e-12
-6.929725712e-12
-5.54392685e-12
-4.718710662e-12
-4.35383489e-12
-4.140893668e-12
-3.842569683e-12
-3.435164315e-12
-3.008154247e-12
-2.595750809e-12
-2.223145491e-12
-1.904836117e-12
-1.635815946e-12
-1.407545046e-12
-1.211746668e-12
-1.044099071e-12
-8.964652853e-13
-7.674005665e-13
-6.568681688e-13
-5.629424772e-13
-4.812654771e-13
-4.106303061e-13
-3.492030119e-13
-2.961417938e-13
-2.503541218e-13
-2.097659971e-13
-1.753288023e-13
-1.460206506e-13
-1.209727352e-13
-1.00224566e-13
-8.270308121e-14
-6.753779358e-14
-5.454604046e-14
-4.356034158e-14
-3.472287114e-14
-2.752670734e-14
-2.142342471e-14
-1.638858073e-14
-1.239257782e-14
-9.278772551e-15
-6.853024928e-15
-4.952101754e-15
-3.479259729e-15
-2.392768928e-15
-1.604302342e-15
-1.057232512e-15
-6.842262313e-16
-4.273879225e-16
-2.595574847e-16
-1.534713979e-16
-8.724964032e-17
-4.679098174e-17
-2.341257952e-17
-1.151715928e-17
-5.747139843e-18
-2.712345416e-18
-1.146340071e-18
-4.700398671e-19
-1.874400535e-19
-7.717077692e-20
-3.65863303e-20
1.845317744e-20
1.520332767e-19
1.148134346e-18
3.935019934e-18
5.816696652e-18
)


101
(
7.764221658e-17
1.084264222e-14
1.126737352e-13
4.824109252e-13
1.287192673e-12
2.583407771e-12
4.385087035e-12
6.641646836e-12
9.24178267e-12
1.205538829e-11
1.492006909e-11
1.765142961e-11
2.006488834e-11
2.195241734e-11
2.306181684e-11
2.31945674e-11
2.224387282e-11
2.011802036e-11
1.695332047e-11
1.29360082e-11
8.261297399e-12
3.416434113e-12
-1.278146812e-12
-5.602996313e-12
-9.271945555e-12
-1.214773633e-11
-1.419893139e-11
-1.542363296e-11
-1.591739175e-11
-1.582459143e-11
-1.527356011e-11
-1.447120107e-11
-1.33862063e-11
-1.224549245e-11
-1.128705916e-11
-1.017230558e-11
-8.746305686e-12
-7.271614262e-12
-6.137150321e-12
-5.481594425e-12
-5.148159148e-12
-4.853640485e-12
-4.471910172e-12
-4.046721584e-12
-3.597659798e-12
-3.159656527e-12
-2.764114363e-12
-2.420300574e-12
-2.128535625e-12
-1.878985013e-12
-1.664306554e-12
-1.470489844e-12
-1.293739497e-12
-1.136129906e-12
-1.000813226e-12
-8.81900857e-13
-7.760818141e-13
-6.804700469e-13
-5.962701376e-13
-5.234090165e-13
-4.5446828e-13
-3.929881149e-13
-3.392600098e-13
-2.907716176e-13
-2.497306607e-13
-2.148122402e-13
-1.835324218e-13
-1.55471745e-13
-1.29698436e-13
-1.077650623e-13
-8.988643814e-14
-7.405715878e-14
-6.010324707e-14
-4.810682685e-14
-3.816217201e-14
-2.994048139e-14
-2.318591234e-14
-1.769688485e-14
-1.322056708e-14
-9.604411815e-15
-6.839639023e-15
-4.820103811e-15
-3.339558327e-15
-2.240923577e-15
-1.474961408e-15
-9.477446488e-16
-5.856999058e-16
-3.394389018e-16
-1.893718726e-16
-1.05195843e-16
-5.780978135e-17
-2.887524526e-17
-1.381442395e-17
-6.415236379e-18
-2.86749446e-18
-1.429645469e-18
8.90969263e-19
6.795071375e-18
5.932298624e-17
1.921701473e-16
2.765520628e-16
)


101
(
3.184297755e-17
1.009369205e-14
1.069896459e-13
4.617363153e-13
1.239091716e-12
2.500024046e-12
4.26375495e-12
6.491938428e-12
9.087711802e-12
1.193591319e-11
1.488885129e-11
1.777612023e-11
2.042520927e-11
2.263806474e-11
2.416734712e-11
2.479949247e-11
2.439974416e-11
2.283096471e-11
2.017880128e-11
1.65648381e-11
1.212898138e-11
7.346074989e-12
2.509241233e-12
-2.167370034e-12
-6.34402515e-12
-9.834139886e-12
-1.256206017e-11
-1.446514484e-11
-1.559165257e-11
-1.605765984e-11
-1.597766691e-11
-1.555627825e-11
-1.470019635e-11
-1.369074152e-11
-1.284947778e-11
-1.189490045e-11
-1.067154399e-11
-9.239981033e-12
-7.907578141e-12
-6.96601695e-12
-6.447153356e-12
-6.099318462e-12
-5.730927262e-12
-5.33503595e-12
-4.886569801e-12
-4.408550446e-12
-3.939481363e-12
-3.508450805e-12
-3.140926852e-12
-2.829433204e-12
-2.565741726e-12
-2.327716818e-12
-2.10137686e-12
-1.887327768e-12
-1.699758039e-12
-1.536993958e-12
-1.389601359e-12
-1.252351458e-12
-1.127904955e-12
-1.017022231e-12
-9.093434001e-13
-8.106185348e-13
-7.224048702e-13
-6.390911939e-13
-5.643957939e-13
-5.006577322e-13
-4.435013701e-13
-3.906446083e-13
-3.399917565e-13
-2.930518374e-13
-2.524838e-13
-2.169328636e-13
-1.849289592e-13
-1.558854874e-13
-1.300235836e-13
-1.070682393e-13
-8.743600103e-14
-7.105703875e-14
-5.679028631e-14
-4.432830975e-14
-3.378779394e-14
-2.547583165e-14
-1.909317522e-14
-1.392205392e-14
-9.968449589e-15
-7.051531946e-15
-4.859395416e-15
-3.186934014e-15
-1.988569091e-15
-1.235505703e-15
-7.698987534e-16
-4.439326328e-16
-2.413365349e-16
-1.304032743e-16
-6.943294487e-17
-3.968595428e-17
4.283198976e-17
2.515135599e-16
1.652693321e-15
4.262190172e-15
5.608400276e-15
)


101
(
-9.903677906e-18
9.384313935e-15
1.015409475e-13
4.418164278e-13
1.192614518e-12
2.419405817e-12
4.14690739e-12
6.348927713e-12
8.943356072e-12
1.183062488e-11
1.487838112e-11
1.79307481e-11
2.082859947e-11
2.338515914e-11
2.536027835e-11
2.653010314e-11
2.673488078e-11
2.579480405e-11
2.374663316e-11
2.064393342e-11
1.656377704e-11
1.196272023e-11
7.096094823e-12
2.154323594e-12
-2.475938264e-12
-6.558748958e-12
-9.982309773e-12
-1.262475519e-11
-1.447670197e-11
-1.561341163e-11
-1.612669217e-11
-1.622146034e-11
-1.572100674e-11
-1.493764127e-11
-1.428439195e-11
-1.353403114e-11
-1.257332409e-11
-1.130956692e-11
-9.91916446e-12
-8.761586898e-12
-8.042283521e-12
-7.586910447e-12
-7.196509961e-12
-6.842650534e-12
-6.43406869e-12
-5.961725977e-12
-5.453358767e-12
-4.943017592e-12
-4.490640453e-12
-4.108194798e-12
-3.796893567e-12
-3.52166402e-12
-3.251529747e-12
-2.985279498e-12
-2.742632485e-12
-2.527321972e-12
-2.336785812e-12
-2.159739583e-12
-1.994523366e-12
-1.844250345e-12
-1.690867412e-12
-1.54471818e-12
-1.410509899e-12
-1.281154097e-12
-1.160756789e-12
-1.055889159e-12
-9.612041578e-13
-8.726724263e-13
-7.870650975e-13
-7.017202886e-13
-6.238908632e-13
-5.543952602e-13
-4.905457863e-13
-4.31010156e-13
-3.753970829e-13
-3.227804526e-13
-2.747158898e-13
-2.333581316e-13
-1.968096114e-13
-1.637672546e-13
-1.331978218e-13
-1.061697519e-13
-8.438380479e-14
-6.60819747e-14
-5.061717286e-14
-3.85572106e-14
-2.897742231e-14
-2.09448102e-14
-1.445979559e-14
-9.869236326e-15
-6.776646118e-15
-4.442078292e-15
-2.701927545e-15
-1.656294993e-15
-1.014793158e-15
-6.642938393e-16
9.265882912e-16
4.818965661e-15
2.620530167e-14
6.304167817e-14
8.092089685e-14
)


101
(
-4.790742634e-17
8.711888301e-15
9.631013301e-14
4.225868137e-13
1.147621646e-12
2.341325224e-12
4.034135353e-12
6.211844096e-12
8.807361346e-12
1.173742239e-11
1.488566462e-11
1.811129695e-11
2.126999148e-11
2.418777317e-11
2.663407473e-11
2.837967299e-11
2.924378741e-11
2.900760915e-11
2.766205549e-11
2.519097985e-11
2.160066827e-11
1.732198131e-11
1.256690085e-11
7.48227291e-12
2.488010238e-12
-2.127239363e-12
-6.223933804e-12
-9.632317814e-12
-1.228166917e-11
-1.41914332e-11
-1.541623823e-11
-1.616350456e-11
-1.616119632e-11
-1.572912438e-11
-1.536448361e-11
-1.488840826e-11
-1.425876083e-11
-1.327495853e-11
-1.197843212e-11
-1.072666111e-11
-9.842859908e-12
-9.258812634e-12
-8.820912364e-12
-8.509747113e-12
-8.170192455e-12
-7.752239123e-12
-7.257590811e-12
-6.700065709e-12
-6.173881642e-12
-5.730916164e-12
-5.378211771e-12
-5.070783064e-12
-4.781502291e-12
-4.482979196e-12
-4.184577729e-12
-3.920381444e-12
-3.696797363e-12
-3.485313143e-12
-3.285757619e-12
-3.106056258e-12
-2.914439595e-12
-2.728632829e-12
-2.548585136e-12
-2.363196531e-12
-2.18383604e-12
-2.023022352e-12
-1.884234963e-12
-1.758658643e-12
-1.638874354e-12
-1.509223821e-12
-1.378340723e-12
-1.253710765e-12
-1.137291441e-12
-1.035887613e-12
-9.385837532e-13
-8.387153127e-13
-7.410594724e-13
-6.524623509e-13
-5.738088345e-13
-5.006334255e-13
-4.293121127e-13
-3.601897363e-13
-3.005697864e-13
-2.494586372e-13
-2.034635102e-13
-1.6402393e-13
-1.312349451e-13
-1.030434369e-13
-7.720993562e-14
-5.738838988e-14
-4.282882808e-14
-3.06025253e-14
-2.055426348e-14
-1.405507036e-14
-9.609444827e-15
-7.185701617e-15
1.174355169e-14
5.543462003e-14
2.503039631e-13
6.318252202e-13
8.43869001e-13
)


101
(
-8.239700737e-17
8.074639752e-15
9.128691313e-14
4.040122183e-13
1.104030343e-12
2.265617006e-12
3.925102922e-12
6.080016299e-12
8.678492401e-12
1.165434565e-11
1.490789076e-11
1.831398081e-11
2.174455176e-11
2.504017717e-11
2.798230418e-11
3.034130201e-11
3.192019742e-11
3.246576196e-11
3.19274749e-11
3.021998905e-11
2.727121456e-11
2.347508966e-11
1.900208582e-11
1.393830144e-11
8.712595209e-12
3.667058315e-12
-1.037474094e-12
-5.197028475e-12
-8.684050629e-12
-1.145113908e-11
-1.349549237e-11
-1.501956262e-11
-1.565407695e-11
-1.5724064e-11
-1.577871821e-11
-1.565610773e-11
-1.542193865e-11
-1.48192892e-11
-1.377496505e-11
-1.260477929e-11
-1.167913419e-11
-1.099262509e-11
-1.047882888e-11
-1.019782608e-11
-9.943765459e-12
-9.628236197e-12
-9.210663812e-12
-8.671134514e-12
-8.120817295e-12
-7.634202024e-12
-7.24157373e-12
-6.91585669e-12
-6.637624864e-12
-6.347453432e-12
-6.04008828e-12
-5.741752939e-12
-5.501625237e-12
-5.278842303e-12
-5.051977752e-12
-4.869361236e-12
-4.665233508e-12
-4.459977642e-12
-4.257293926e-12
-4.030947324e-12
-3.800108399e-12
-3.578148336e-12
-3.389608323e-12
-3.230874628e-12
-3.081021771e-12
-2.914233609e-12
-2.733454536e-12
-2.553880135e-12
-2.375975208e-12
-2.213678184e-12
-2.062982676e-12
-1.910305626e-12
-1.749026309e-12
-1.583766131e-12
-1.438204887e-12
-1.309584246e-12
-1.17129293e-12
-1.025123893e-12
-8.906778605e-13
-7.747158104e-13
-6.70024789e-13
-5.644093927e-13
-4.743551051e-13
-3.977252862e-13
-3.196533694e-13
-2.548732236e-13
-2.031832547e-13
-1.561652601e-13
-1.14800808e-13
-8.552518568e-14
-6.470143972e-14
-5.273023756e-14
1.000804933e-13
4.225997737e-13
1.554367795e-12
4.030786507e-12
5.547935446e-12
)


101
(
-1.135609513e-16
7.471146542e-15
8.646376222e-14
3.860678641e-13
1.061777704e-12
2.192138493e-12
3.81950187e-12
5.95285301e-12
8.555679612e-12
1.157961444e-11
1.494238011e-11
1.853510111e-11
2.224748815e-11
2.593656347e-11
2.939825403e-11
3.240735097e-11
3.475630567e-11
3.616290738e-11
3.654067356e-11
3.573863894e-11
3.360172574e-11
3.047424914e-11
2.648197066e-11
2.164186664e-11
1.636657279e-11
1.1039365e-11
5.838818145e-12
9.916326019e-13
-3.327029906e-12
-7.002231364e-12
-9.960854345e-12
-1.237982427e-11
-1.376801434e-11
-1.447762908e-11
-1.509939211e-11
-1.542808442e-11
-1.565551916e-11
-1.553481491e-11
-1.490285934e-11
-1.400376683e-11
-1.321056817e-11
-1.251085342e-11
-1.192596575e-11
-1.166139995e-11
-1.148987952e-11
-1.131714675e-11
-1.106244965e-11
-1.064074624e-11
-1.014006921e-11
-9.644199024e-12
-9.224746016e-12
-8.889835845e-12
-8.651215734e-12
-8.448855048e-12
-8.202004834e-12
-7.889078038e-12
-7.660348421e-12
-7.466523177e-12
-7.248424699e-12
-7.104926492e-12
-6.948178534e-12
-6.766840647e-12
-6.58255737e-12
-6.374658463e-12
-6.143175678e-12
-5.867804149e-12
-5.618764825e-12
-5.431772762e-12
-5.278617295e-12
-5.122992886e-12
-4.932686848e-12
-4.713205375e-12
-4.474025125e-12
-4.255410555e-12
-4.067970042e-12
-3.88247748e-12
-3.65779703e-12
-3.405686344e-12
-3.176961116e-12
-2.981813584e-12
-2.764564766e-12
-2.514355336e-12
-2.261678294e-12
-2.038844767e-12
-1.852919846e-12
-1.634451806e-12
-1.423341437e-12
-1.25038063e-12
-1.061915933e-12
-8.975304566e-13
-7.60464031e-13
-6.185320636e-13
-4.874935646e-13
-3.880150521e-13
-3.195548549e-13
-2.867635194e-13
6.074859523e-13
2.334618414e-12
6.930914279e-12
1.38547973e-11
1.701967545e-11
)


101
(
-1.415689498e-16
6.900155425e-15
8.18342802e-14
3.687328853e-13
1.02080867e-12
2.120759845e-12
3.717049092e-12
5.829814494e-12
8.437959929e-12
1.151158613e-11
1.49866087e-11
1.877111213e-11
2.277410984e-11
2.687115841e-11
3.087512673e-11
3.456965064e-11
3.774286553e-11
4.009045415e-11
4.14963508e-11
4.174941915e-11
4.061098274e-11
3.836522665e-11
3.508072763e-11
3.070681306e-11
2.56170128e-11
2.020382978e-11
1.466742706e-11
9.255948956e-12
4.17471924e-12
-4.059114286e-13
-4.33839795e-12
-7.753700871e-12
-9.989778051e-12
-1.144916302e-11
-1.278518566e-11
-1.368647264e-11
-1.445667842e-11
-1.490231418e-11
-1.481382928e-11
-1.436624539e-11
-1.39093492e-11
-1.33534041e-11
-1.27525029e-11
-1.249887865e-11
-1.240099192e-11
-1.240501052e-11
-1.240238811e-11
-1.220750793e-11
-1.185252476e-11
-1.142127906e-11
-1.102469759e-11
-1.069506045e-11
-1.051713609e-11
-1.046276063e-11
-1.032158652e-11
-1.007564001e-11
-9.946495326e-12
-9.843905356e-12
-9.68051935e-12
-9.601289631e-12
-9.567897475e-12
-9.507904909e-12
-9.434017007e-12
-9.31228762e-12
-9.152227968e-12
-8.928018791e-12
-8.654492005e-12
-8.430925204e-12
-8.307467491e-12
-8.219743899e-12
-8.105407337e-12
-7.933358415e-12
-7.692208513e-12
-7.452275064e-12
-7.265014283e-12
-7.095685739e-12
-6.85120937e-12
-6.567060281e-12
-6.28546728e-12
-6.021312061e-12
-5.75240989e-12
-5.412905435e-12
-5.013854224e-12
-4.661785955e-12
-4.407985441e-12
-4.059116477e-12
-3.638462855e-12
-3.292844503e-12
-2.950640212e-12
-2.625917571e-12
-2.312229812e-12
-1.978038229e-12
-1.655789383e-12
-1.382585914e-12
-1.204656437e-12
-1.154420235e-12
2.677058441e-12
9.544492066e-12
2.427265474e-11
4.580747689e-11
5.563783592e-11
)


101
(
-1.665790181e-16
6.360485932e-15
7.739259184e-14
3.519883565e-13
9.810727844e-13
2.051360294e-12
3.617482543e-12
5.710417122e-12
8.324460076e-12
1.144871802e-11
1.503819606e-11
1.901864216e-11
2.331984493e-11
2.783818185e-11
3.240592508e-11
3.68197708e-11
4.086977139e-11
4.423784695e-11
4.678597466e-11
4.824767474e-11
4.830483657e-11
4.71749383e-11
4.485076604e-11
4.121441412e-11
3.659187468e-11
3.135787193e-11
2.572156093e-11
1.994426937e-11
1.424444535e-11
8.830625895e-12
3.925206729e-12
-5.429194389e-13
-3.69917162e-12
-5.999652069e-12
-8.179683537e-12
-9.783995275e-12
-1.120018825e-11
-1.229208345e-11
-1.282020396e-11
-1.295455785e-11
-1.304624669e-11
-1.28442382e-11
-1.235810821e-11
-1.216102835e-11
-1.21262834e-11
-1.228894461e-11
-1.25732163e-11
-1.271307034e-11
-1.263386748e-11
-1.238036729e-11
-1.209036092e-11
-1.180170307e-11
-1.169569468e-11
-1.180216182e-11
-1.18616533e-11
-1.178711151e-11
-1.185238761e-11
-1.193618911e-11
-1.188984751e-11
-1.192954761e-11
-1.207904436e-11
-1.224084097e-11
-1.240055851e-11
-1.252217961e-11
-1.25296829e-11
-1.245634457e-11
-1.230803105e-11
-1.210391561e-11
-1.204985872e-11
-1.210122263e-11
-1.215318886e-11
-1.219867594e-11
-1.212306961e-11
-1.195832487e-11
-1.182308706e-11
-1.175548198e-11
-1.164151007e-11
-1.142871131e-11
-1.119089289e-11
-1.098228046e-11
-1.074681176e-11
-1.039035342e-11
-9.911222394e-12
-9.429804499e-12
-9.144165222e-12
-8.794678378e-12
-8.161281249e-12
-7.536385992e-12
-7.009100343e-12
-6.515769462e-12
-5.922727465e-12
-5.254333454e-12
-4.633644194e-12
-4.041022088e-12
-3.659208919e-12
-3.655109915e-12
9.529964546e-12
3.151145902e-11
6.920669115e-11
1.164594224e-10
1.347191458e-10
)


101
(
-1.887412843e-16
5.851007336e-15
7.313312291e-14
3.358165754e-13
9.425232705e-13
1.983826016e-12
3.520554132e-12
5.594243448e-12
8.214441771e-12
1.138952967e-11
1.509481903e-11
1.927442941e-11
2.387999108e-11
2.883143301e-11
3.398314315e-11
3.914929394e-11
4.412781435e-11
4.859452973e-11
5.239821243e-11
5.522038013e-11
5.66720038e-11
5.690634931e-11
5.582619734e-11
5.324001084e-11
4.941301379e-11
4.468424179e-11
3.926048942e-11
3.340310311e-11
2.731889462e-11
2.122954133e-11
1.543311465e-11
9.92935591e-12
5.829734599e-12
2.62041514e-12
-5.183927158e-13
-2.951625139e-12
-5.116498209e-12
-6.911742902e-12
-8.076717265e-12
-8.857818964e-12
-9.675106285e-12
-1.005718248e-11
-9.878644026e-12
-9.852898048e-12
-9.903569304e-12
-1.018090014e-11
-1.071643094e-11
-1.122815626e-11
-1.151826084e-11
-1.16021154e-11
-1.158522593e-11
-1.13749801e-11
-1.132922463e-11
-1.162825189e-11
-1.198140392e-11
-1.212016504e-11
-1.245018167e-11
-1.284431642e-11
-1.302195121e-11
-1.325529661e-11
-1.365558358e-11
-1.418288523e-11
-1.469525298e-11
-1.515348044e-11
-1.551472487e-11
-1.582680186e-11
-1.596487486e-11
-1.596618999e-11
-1.605309147e-11
-1.626028115e-11
-1.65893236e-11
-1.704903768e-11
-1.743243731e-11
-1.760369719e-11
-1.771164829e-11
-1.784864203e-11
-1.795407322e-11
-1.807181703e-11
-1.814518677e-11
-1.819347909e-11
-1.819552756e-11
-1.803535075e-11
-1.770970601e-11
-1.718748638e-11
-1.694082717e-11
-1.68830838e-11
-1.625871953e-11
-1.532884638e-11
-1.457607403e-11
-1.402173645e-11
-1.316547316e-11
-1.204659426e-11
-1.099767299e-11
-9.921489499e-12
-9.284966705e-12
-9.457556775e-12
2.768632006e-11
8.576850514e-11
1.663499584e-10
2.646111602e-10
3.029212335e-10
)


101
(
-2.082034651e-16
5.370629965e-15
6.905050784e-14
3.202007503e-13
9.05116703e-13
1.918052503e-12
3.426033707e-12
5.480907201e-12
8.107248908e-12
1.133265577e-11
1.515427932e-11
1.953537573e-11
2.444997809e-11
2.984468039e-11
3.559890767e-11
4.154903732e-11
4.750690261e-11
5.314854802e-11
5.832092869e-11
6.265267238e-11
6.569392528e-11
6.754747297e-11
6.801992211e-11
6.683925094e-11
6.418797679e-11
6.034932999e-11
5.551577931e-11
4.994061475e-11
4.380686638e-11
3.731998329e-11
3.08242691e-11
2.438340594e-11
1.938404204e-11
1.525938163e-11
1.109809361e-11
7.747200867e-12
4.752728415e-12
2.219602289e-12
4.253252422e-13
-1.003220557e-12
-2.625771229e-12
-3.76530505e-12
-4.121205422e-12
-4.47127444e-12
-4.684192247e-12
-5.030624007e-12
-5.738778188e-12
-6.573673086e-12
-7.273736995e-12
-7.824324836e-12
-8.214850275e-12
-8.147066551e-12
-8.174068545e-12
-8.648002559e-12
-9.271581254e-12
-9.683693179e-12
-1.034952345e-11
-1.12109351e-11
-1.178344595e-11
-1.224022996e-11
-1.292201825e-11
-1.39711945e-11
-1.498315353e-11
-1.583594014e-11
-1.676533896e-11
-1.768382331e-11
-1.840964785e-11
-1.884424959e-11
-1.917694283e-11
-1.97375595e-11
-2.044799015e-11
-2.145040901e-11
-2.257165445e-11
-2.350577413e-11
-2.430822719e-11
-2.488013218e-11
-2.537942984e-11
-2.609549533e-11
-2.67895171e-11
-2.759032334e-11
-2.830126925e-11
-2.861865167e-11
-2.879624228e-11
-2.870829821e-11
-2.872536095e-11
-2.915872523e-11
-2.911342833e-11
-2.820520822e-11
-2.715223935e-11
-2.685719748e-11
-2.589259133e-11
-2.444974475e-11
-2.300945575e-11
-2.111672344e-11
-2.021704906e-11
-2.105837359e-11
6.697340122e-11
1.974674222e-10
3.47052387e-10
5.454325206e-10
6.357063293e-10
)


101
(
-2.251091938e-16
4.918305921e-15
6.513955802e-14
3.051248991e-13
8.688124264e-13
1.853943967e-12
3.333708008e-12
5.370052121e-12
8.002298567e-12
1.127693599e-11
1.521442735e-11
1.979838938e-11
2.502554432e-11
3.087204604e-11
3.724546011e-11
4.400855554e-11
5.09936043e-11
5.788258743e-11
6.452916261e-11
7.051662036e-11
7.534702206e-11
7.908619124e-11
8.143775609e-11
8.204665811e-11
8.100253567e-11
7.849993113e-11
7.469533051e-11
6.983553277e-11
6.408473698e-11
5.761596757e-11
5.07641632e-11
4.359315613e-11
3.78194256e-11
3.285529423e-11
2.768142739e-11
2.338590193e-11
1.952132307e-11
1.625060247e-11
1.387708206e-11
1.188775198e-11
9.479847532e-12
7.476654021e-12
6.421306819e-12
5.513062298e-12
5.001210904e-12
4.546213512e-12
3.777931967e-12
2.759289085e-12
1.679182018e-12
6.702296809e-13
-1.73414642e-13
-3.767378283e-13
-5.016039439e-13
-1.05404219e-12
-1.874222985e-12
-2.544997536e-12
-3.553735491e-12
-4.962653728e-12
-6.106635453e-12
-7.001200987e-12
-7.970337462e-12
-9.472855622e-12
-1.103187022e-11
-1.239566056e-11
-1.41233403e-11
-1.594481273e-11
-1.750481663e-11
-1.86014008e-11
-1.95290483e-11
-2.071382072e-11
-2.193677211e-11
-2.365225047e-11
-2.569981848e-11
-2.775540757e-11
-3.002546047e-11
-3.178459277e-11
-3.304675614e-11
-3.441226433e-11
-3.610478113e-11
-3.838517064e-11
-4.045245155e-11
-4.200773557e-11
-4.324524077e-11
-4.403540225e-11
-4.50195109e-11
-4.655116851e-11
-4.772379059e-11
-4.765594907e-11
-4.655222546e-11
-4.694092174e-11
-4.627012938e-11
-4.469565257e-11
-4.320323325e-11
-4.022489833e-11
-3.913691858e-11
-4.169370472e-11
1.409824374e-10
3.993906968e-10
6.475036775e-10
9.110784021e-10
9.998981613e-10
)


101
(
-2.3959822e-16
4.49304543e-15
6.139524173e-14
2.905737934e-13
8.335728422e-13
1.791413064e-12
3.243379061e-12
5.261347655e-12
7.899073628e-12
1.122136802e-11
1.527319588e-11
2.00603887e-11
2.560266389e-11
3.190793916e-11
3.891517531e-11
4.651675573e-11
5.457162282e-11
6.277464864e-11
7.099055049e-11
7.877685459e-11
8.560076129e-11
9.150098446e-11
9.607085061e-11
9.887288295e-11
9.991375468e-11
9.925211464e-11
9.697646656e-11
9.334191022e-11
8.850378896e-11
8.258324295e-11
7.586020828e-11
6.833270743e-11
6.204709924e-11
5.642886803e-11
5.036787101e-11
4.520171472e-11
4.04880679e-11
3.651337818e-11
3.367147131e-11
3.124985049e-11
2.816585637e-11
2.539607194e-11
2.360448655e-11
2.19498123e-11
2.09849007e-11
2.041910004e-11
1.974404873e-11
1.869270994e-11
1.735847015e-11
1.607086484e-11
1.486852303e-11
1.430417054e-11
1.407465162e-11
1.354403122e-11
1.255335335e-11
1.182169955e-11
1.070830892e-11
8.746518699e-12
6.845385462e-12
5.404361889e-12
4.153513249e-12
2.321690439e-12
3.293369474e-13
-1.828386011e-12
-4.344861109e-12
-7.095515326e-12
-1.005691875e-11
-1.230713398e-11
-1.420522569e-11
-1.615937209e-11
-1.814413824e-11
-2.084354943e-11
-2.39684925e-11
-2.748370325e-11
-3.188026207e-11
-3.619785557e-11
-3.903827874e-11
-4.139343897e-11
-4.455272637e-11
-4.861516641e-11
-5.310484559e-11
-5.74621815e-11
-6.069790575e-11
-6.312253376e-11
-6.59831639e-11
-6.953080808e-11
-7.296518312e-11
-7.512603137e-11
-7.487085949e-11
-7.627319752e-11
-7.681097768e-11
-7.556289478e-11
-7.447158468e-11
-7.054957172e-11
-6.904065914e-11
-7.415122382e-11
2.653104627e-10
7.269880626e-10
1.110863869e-09
1.525803418e-09
1.674646903e-09
)


101
(
-2.518033576e-16
4.093481118e-15
5.781264876e-14
2.765332289e-13
7.993630368e-13
1.730380305e-12
3.15486359e-12
5.154461826e-12
7.797076875e-12
1.116511012e-11
1.53287143e-11
2.03183508e-11
2.617731478e-11
3.294670529e-11
4.060029117e-11
4.90624728e-11
5.822482871e-11
6.780342236e-11
7.767071766e-11
8.739261323e-11
9.641691602e-11
1.047534622e-10
1.118857607e-10
1.172917988e-10
1.209233359e-10
1.226724917e-10
1.225100765e-10
1.207003113e-10
1.174005891e-10
1.126550946e-10
1.066631263e-10
9.933129474e-11
9.298611304e-11
8.705468044e-11
8.03847131e-11