/*--------------------------------*- C++ -*----------------------------------*\
| =========                 |                                                 |
| \\      /  F ield         | OpenFOAM: The Open Source CFD Toolbox           |
|  \\    /   O peration     | Version:  2.3.1                                 |
|   \\  /    A nd           | Web:      www.OpenFOAM.org                      |
|    \\/     M anipulation  |                                                 |
\*---------------------------------------------------------------------------*/
FoamFile
{
    version     2.0;
    format      ascii;
    class       dictionary;
    location    "constant";
    object      GRPSI12;
}
// * * * * * * * * * * * * * * * * * * * * * * * * * * * * * * * * * * * * * //

GRPSI12_table
101
(

101
(
1.099188214e-05
1.77546648e-05
2.731312266e-05
3.087177433e-05
3.137529267e-05
3.029674319e-05
2.822416947e-05
2.546799262e-05
2.225714053e-05
1.865286018e-05
1.469922255e-05
1.049482908e-05
5.995408249e-06
1.318111132e-06
-3.25747004e-06
-7.620801362e-06
-1.156848068e-05
-1.467266337e-05
-1.689779003e-05
-1.822318042e-05
-1.860365063e-05
-1.828158996e-05
-1.741851714e-05
-1.625051345e-05
-1.492233033e-05
-1.353805184e-05
-1.217342284e-05
-1.085190156e-05
-9.606579126e-06
-8.465032107e-06
-7.436050483e-06
-6.562063796e-06
-5.694420083e-06
-4.900923552e-06
-4.273473536e-06
-3.499981587e-06
-2.679497854e-06
-2.515009395e-06
-2.514865766e-06
-2.165310635e-06
-1.893761253e-06
-1.661451907e-06
-1.447172754e-06
-1.274314429e-06
-1.12122581e-06
-9.849452711e-07
-8.668596756e-07
-7.625969216e-07
-6.727704446e-07
-5.937434602e-07
-5.258322676e-07
-4.652565701e-07
-4.119846956e-07
-3.654486437e-07
-3.251620224e-07
-2.871921078e-07
-2.544707723e-07
-2.263862516e-07
-2.003580116e-07
-1.779536548e-07
-1.576187626e-07
-1.401028914e-07
-1.241765415e-07
-1.096898714e-07
-9.715468839e-08
-8.602200262e-08
-7.594507295e-08
-6.684428548e-08
-5.879307723e-08
-5.162109984e-08
-4.518512241e-08
-3.938928095e-08
-3.405270713e-08
-2.613887216e-08
-2.028678483e-08
-2.079841123e-08
-2.01168005e-08
-1.712173643e-08
-1.461373587e-08
-1.239158295e-08
-1.029688195e-08
-8.40859872e-09
-5.862740149e-09
-4.411382608e-09
-4.588296718e-09
-4.04504716e-09
-3.168518285e-09
-2.423041525e-09
-1.485395021e-09
-1.092154129e-09
-1.119604961e-09
-7.44578534e-10
-4.435145459e-10
-2.733344471e-10
-2.017066546e-10
-1.631720532e-10
-5.924468192e-11
2.014434695e-17
-6.208947979e-28
-3.747673179e-28
1.241789588e-27
)


101
(
1.082013008e-05
1.748987004e-05
2.694482109e-05
3.05048548e-05
3.104067336e-05
3.001102416e-05
2.80052501e-05
2.533358044e-05
2.222274461e-05
1.873660821e-05
1.491805049e-05
1.085690102e-05
6.523026685e-06
2.00666812e-06
-2.445974211e-06
-6.716033706e-06
-1.06208708e-05
-1.379620122e-05
-1.613352593e-05
-1.761809233e-05
-1.821341617e-05
-1.807314106e-05
-1.737417405e-05
-1.633385561e-05
-1.509663204e-05
-1.377422064e-05
-1.244827655e-05
-1.11537312e-05
-9.921335067e-06
-8.779070114e-06
-7.74048452e-06
-6.840007568e-06
-5.988336784e-06
-5.195409196e-06
-4.530453366e-06
-3.825535343e-06
-3.065785179e-06
-2.650772166e-06
-2.51235906e-06
-2.280980535e-06
-2.017125062e-06
-1.775047854e-06
-1.553225084e-06
-1.363439275e-06
-1.199527021e-06
-1.055552318e-06
-9.302234712e-07
-8.20231162e-07
-7.243007493e-07
-6.402217717e-07
-5.670723828e-07
-5.027284786e-07
-4.462191725e-07
-3.965710149e-07
-3.528058892e-07
-3.130476885e-07
-2.776766811e-07
-2.468663878e-07
-2.193318015e-07
-1.950182457e-07
-1.733499128e-07
-1.54243128e-07
-1.37264895e-07
-1.219607555e-07
-1.082025443e-07
-9.598064616e-08
-8.516430259e-08
-7.546616056e-08
-6.672699822e-08
-5.885741745e-08
-5.185810354e-08
-4.56585093e-08
-4.017592451e-08
-3.410416918e-08
-2.784937511e-08
-2.395190295e-08
-2.175004882e-08
-1.955138839e-08
-1.724531081e-08
-1.494819607e-08
-1.275387617e-08
-1.078342882e-08
-8.737253312e-09
-6.780265461e-09
-5.545793242e-09
-4.808838033e-09
-4.106592134e-09
-3.353211794e-09
-2.57454101e-09
-1.899267539e-09
-1.439588754e-09
-1.121162924e-09
-8.353458791e-10
-5.551504408e-10
-3.808441266e-10
-3.369714809e-10
-1.521045827e-10
3.60372483e-11
8.040007895e-11
1.19274771e-10
1.185255461e-10
)


101
(
1.064904999e-05
1.722622202e-05
2.657810635e-05
3.01400586e-05
3.070973615e-05
2.973110781e-05
2.779432136e-05
2.520937086e-05
2.220060419e-05
1.883390185e-05
1.515080506e-05
1.123282114e-05
7.061549358e-06
2.705701865e-06
-1.620581409e-06
-5.795152718e-06
-9.65180098e-06
-1.288042254e-05
-1.532461626e-05
-1.696096798e-05
-1.776170406e-05
-1.781152703e-05
-1.728349841e-05
-1.638234331e-05
-1.52478982e-05
-1.399728456e-05
-1.271847433e-05
-1.145573953e-05
-1.02415527e-05
-9.103807549e-06
-8.058819797e-06
-7.137752986e-06
-6.2854092e-06
-5.496250286e-06
-4.812539095e-06
-4.131782065e-06
-3.420444598e-06
-2.890895945e-06
-2.605795154e-06
-2.378193306e-06
-2.139080738e-06
-1.900461601e-06
-1.673453682e-06
-1.471851091e-06
-1.295436337e-06
-1.141105022e-06
-1.007221266e-06
-8.903327511e-07
-7.881031168e-07
-6.9837092e-07
-6.197815617e-07
-5.505834036e-07
-4.896957562e-07
-4.362557312e-07
-3.891863422e-07
-3.469777719e-07
-3.091570736e-07
-2.755681612e-07
-2.457211002e-07
-2.192594713e-07
-1.956956073e-07
-1.74869541e-07
-1.562910916e-07
-1.395431185e-07
-1.244895082e-07
-1.111158923e-07
-9.924720561e-08
-8.855896644e-08
-7.896511578e-08
-7.02989052e-08
-6.250603861e-08
-5.550936061e-08
-4.934491773e-08
-4.359755106e-08
-3.768870261e-08
-3.2299568e-08
-2.80283387e-08
-2.472109871e-08
-2.203553619e-08
-1.956035222e-08
-1.712558546e-08
-1.484664101e-08
-1.273445943e-08
-1.069590424e-08
-8.822083654e-09
-7.259777406e-09
-6.117793085e-09
-5.237303856e-09
-4.331393047e-09
-3.509547397e-09
-2.811457364e-09
-2.153282895e-09
-1.677870821e-09
-1.28814527e-09
-1.010971697e-09
-1.080747366e-09
-3.67867293e-10
4.922598856e-10
7.568494618e-10
9.918706845e-10
9.904814536e-10
)


101
(
1.047864509e-05
1.69637164e-05
2.621294652e-05
2.977728436e-05
3.0382262e-05
2.945662402e-05
2.759082989e-05
2.509460243e-05
2.218974998e-05
1.894365629e-05
1.539637753e-05
1.162146423e-05
7.61023522e-06
3.414297262e-06
-7.823474379e-07
-4.858421713e-06
-8.661305542e-06
-1.192710632e-05
-1.446983083e-05
-1.625058061e-05
-1.724744009e-05
-1.749187572e-05
-1.714178253e-05
-1.639053974e-05
-1.537083599e-05
-1.420257841e-05
-1.298006124e-05
-1.175540155e-05
-1.056494007e-05
-9.437430576e-06
-8.390311427e-06
-7.453662256e-06
-6.591679301e-06
-5.801529451e-06
-5.11511662e-06
-4.440716219e-06
-3.755835822e-06
-3.181805427e-06
-2.783611086e-06
-2.503227909e-06
-2.264138666e-06
-2.031582818e-06
-1.804796168e-06
-1.596296866e-06
-1.408493783e-06
-1.242477992e-06
-1.098290624e-06
-9.730630596e-07
-8.639296816e-07
-7.68115589e-07
-6.839176766e-07
-6.093575574e-07
-5.435807837e-07
-4.857192465e-07
-4.346041095e-07
-3.89193778e-07
-3.487612942e-07
-3.123893432e-07
-2.798974338e-07
-2.509839448e-07
-2.250835729e-07
-2.021288459e-07
-1.816431494e-07
-1.632301538e-07
-1.467102642e-07
-1.319184434e-07
-1.187353444e-07
-1.067717014e-07
-9.592697475e-08
-8.62332044e-08
-7.750221834e-08
-6.954765399e-08
-6.241266197e-08
-5.609053806e-08
-5.007993665e-08
-4.423903313e-08
-3.881279999e-08
-3.40669333e-08
-3.014298592e-08
-2.688432882e-08
-2.39974144e-08
-2.129012502e-08
-1.875091199e-08
-1.640897459e-08
-1.419240827e-08
-1.205588301e-08
-1.010410644e-08
-8.629663437e-09
-7.502111721e-09
-6.399021719e-09
-5.31649684e-09
-4.209886497e-09
-3.384381588e-09
-2.780132919e-09
-2.441628496e-09
-2.920582889e-09
-6.544357597e-10
2.167340152e-09
3.029960954e-09
3.848654371e-09
3.896338848e-09
)


101
(
1.030891905e-05
1.670234923e-05
2.584931056e-05
2.941643343e-05
3.005803706e-05
2.918721311e-05
2.739424391e-05
2.498854898e-05
2.218925989e-05
1.906485278e-05
1.565372648e-05
1.202181725e-05
8.168418539e-06
4.131650962e-06
6.780163384e-08
-3.906209774e-06
-7.649507474e-06
-1.093746366e-05
-1.356821479e-05
-1.548550367e-05
-1.666925599e-05
-1.710951943e-05
-1.694354116e-05
-1.635223349e-05
-1.545922885e-05
-1.438480032e-05
-1.322840056e-05
-1.204907977e-05
-1.088836974e-05
-9.777389208e-06
-8.733665449e-06
-7.786914503e-06
-6.911574869e-06
-6.112800483e-06
-5.415301186e-06
-4.754572154e-06
-4.098145259e-06
-3.498876762e-06
-3.02470023e-06
-2.677321478e-06
-2.409476436e-06
-2.171807282e-06
-1.945048334e-06
-1.73350516e-06
-1.537560079e-06
-1.360535117e-06
-1.205093866e-06
-1.069983526e-06
-9.52655513e-07
-8.49961246e-07
-7.598121659e-07
-6.79622218e-07
-6.084095255e-07
-5.455389066e-07
-4.901518262e-07
-4.407459338e-07
-3.968667969e-07
-3.57576249e-07
-3.223314964e-07
-2.908328741e-07
-2.622470228e-07
-2.367662751e-07
-2.139472535e-07
-1.934316643e-07
-1.752314499e-07
-1.589311655e-07
-1.441335533e-07
-1.306322448e-07
-1.18332178e-07
-1.07415734e-07
-9.760794047e-08
-8.852705701e-08
-8.022052361e-08
-7.280681412e-08
-6.6094974e-08
-5.97995477e-08
-5.367279142e-08
-4.781904142e-08
-4.258848129e-08
-3.80525033e-08
-3.423178734e-08
-3.085564222e-08
-2.768809866e-08
-2.47826927e-08
-2.2081565e-08
-1.947345242e-08
-1.684541296e-08
-1.43675585e-08
-1.251204971e-08
-1.108731585e-08
-9.657473842e-09
-8.14695303e-09
-6.60959592e-09
-5.391786729e-09
-5.066673635e-09
-6.170964739e-09
-5.884197107e-10
6.115668068e-09
7.790420043e-09
9.23582648e-09
9.172888811e-09
)


101
(
1.013987558e-05
1.64421169e-05
2.548716845e-05
2.905740957e-05
2.973685273e-05
2.892252553e-05
2.720406119e-05
2.489053964e-05
2.21982964e-05
1.919659411e-05
1.592201887e-05
1.24331087e-05
8.735714324e-06
4.857397794e-06
9.292935464e-07
-2.938594153e-06
-6.616163185e-06
-9.912311667e-06
-1.261905698e-05
-1.466400106e-05
-1.602539341e-05
-1.666025413e-05
-1.668321029e-05
-1.626112921e-05
-1.550655723e-05
-1.453785427e-05
-1.345827125e-05
-1.233268152e-05
-1.120836866e-05
-1.011964565e-05
-9.086100828e-06
-8.136426216e-06
-7.247980445e-06
-6.436862504e-06
-5.72845521e-06
-5.071461926e-06
-4.435738415e-06
-3.832702463e-06
-3.310736021e-06
-2.900693526e-06
-2.588418479e-06
-2.330183749e-06
-2.096683686e-06
-1.882294115e-06
-1.681177485e-06
-1.495180709e-06
-1.328339992e-06
-1.181790623e-06
-1.054844358e-06
-9.444706065e-07
-8.479911435e-07
-7.620128328e-07
-6.850436288e-07
-6.164824511e-07
-5.560934586e-07
-5.023730367e-07
-4.546595405e-07
-4.117943842e-07
-3.733625316e-07
-3.392530446e-07
-3.078473394e-07
-2.795417934e-07
-2.54125725e-07
-2.30993197e-07
-2.105398606e-07
-1.924647044e-07
-1.760803507e-07
-1.610575175e-07
-1.469631119e-07
-1.343253498e-07
-1.232689093e-07
-1.130814179e-07
-1.036058813e-07
-9.490176299e-08
-8.701984979e-08
-7.975168119e-08
-7.286560856e-08
-6.631996098e-08
-6.003753551e-08
-5.408557932e-08
-4.878908214e-08
-4.433893288e-08
-4.040641929e-08
-3.673549286e-08
-3.33249868e-08
-3.013285718e-08
-2.696330429e-08
-2.358025102e-08
-2.051292048e-08
-1.830788596e-08
-1.636919462e-08
-1.4248067e-08
-1.216090526e-08
-1.008640263e-08
-9.476121703e-09
-1.170594429e-08
-8.325091602e-10
1.256393383e-08
1.917031703e-08
2.521694951e-08
2.536544337e-08
)


101
(
9.971518941e-06
1.618301647e-05
2.512649129e-05
2.870011907e-05
2.941850554e-05
2.866222069e-05
2.701979357e-05
2.479992657e-05
2.221604682e-05
1.933800055e-05
1.620044239e-05
1.285458945e-05
9.311720616e-06
5.591200541e-06
1.801561482e-06
-1.955779782e-06
-5.561135154e-06
-8.852323929e-06
-1.162196173e-05
-1.378444002e-05
-1.531393062e-05
-1.614011525e-05
-1.635508296e-05
-1.611059773e-05
-1.550589205e-05
-1.465497496e-05
-1.366363961e-05
-1.260141097e-05
-1.152114352e-05
-1.046127895e-05
-9.443979663e-06
-8.498325353e-06
-7.600834624e-06
-6.776085777e-06
-6.055368949e-06
-5.395576031e-06
-4.772707641e-06
-4.175157109e-06
-3.62747183e-06
-3.167840247e-06
-2.807162948e-06
-2.516161687e-06
-2.265643206e-06
-2.044211346e-06
-1.838468998e-06
-1.645639004e-06
-1.468517871e-06
-1.309863659e-06
-1.171826328e-06
-1.052305348e-06
-9.486326188e-07
-8.566957542e-07
-7.739416836e-07
-6.992817782e-07
-6.33139547e-07
-5.745763314e-07
-5.226593281e-07
-4.760162253e-07
-4.340386309e-07
-3.966031562e-07
-3.621022715e-07
-3.308742161e-07
-3.02765853e-07
-2.769250827e-07
-2.536762026e-07
-2.332963665e-07
-2.151037842e-07
-1.984786103e-07
-1.828114803e-07
-1.682339229e-07
-1.552262252e-07
-1.435942914e-07
-1.32958537e-07
-1.230819503e-07
-1.139112409e-07
-1.052925726e-07
-9.731811887e-08
-9.002064353e-08
-8.290600014e-08
-7.579491765e-08
-6.889704592e-08
-6.292398518e-08
-5.790308486e-08
-5.323206854e-08
-4.893377393e-08
-4.502205474e-08
-4.121778632e-08
-3.701729803e-08
-3.259211236e-08
-2.921647071e-08
-2.666112592e-08
-2.364780758e-08
-2.060889623e-08
-1.750053716e-08
-1.711309179e-08
-2.12506896e-08
1.678949991e-09
2.872584195e-08
4.135100837e-08
5.227011548e-08
5.18808514e-08
)


101
(
9.803853617e-06
1.592504508e-05
2.47672506e-05
2.834447257e-05
2.91028081e-05
2.840599505e-05
2.68410093e-05
2.471608639e-05
2.224170096e-05
1.948823807e-05
1.648823343e-05
1.328558723e-05
9.896072266e-06
6.332802708e-06
2.684154582e-06
-9.581268814e-07
-4.484528559e-06
-7.758132476e-06
-1.057680796e-05
-1.28454168e-05
-1.453291983e-05
-1.554566049e-05
-1.595400887e-05
-1.589422853e-05
-1.54503331e-05
-1.472916283e-05
-1.383773297e-05
-1.28493266e-05
-1.182179597e-05
-1.079805639e-05
-9.803402771e-06
-8.868709126e-06
-7.967993872e-06
-7.131250542e-06
-6.397156182e-06
-5.729580391e-06
-5.112516718e-06
-4.522702751e-06
-3.96429285e-06
-3.470628317e-06
-3.066164401e-06
-2.736194254e-06
-2.458737857e-06
-2.223031725e-06
-2.009889767e-06
-1.810946739e-06
-1.625477616e-06
-1.455445081e-06
-1.305266848e-06
-1.174938097e-06
-1.062773779e-06
-9.640531249e-07
-8.751599831e-07
-7.944994662e-07
-7.222703896e-07
-6.578456078e-07
-6.010891065e-07
-5.504467088e-07
-5.048213512e-07
-4.640516298e-07
-4.262260894e-07
-3.917150726e-07
-3.604395049e-07
-3.31622897e-07
-3.053965943e-07
-2.822694331e-07
-2.617654468e-07
-2.432431531e-07
-2.260291374e-07
-2.095991039e-07
-1.94589664e-07
-1.81192969e-07
-1.691006544e-07
-1.579737246e-07
-1.475515071e-07
-1.375173005e-07
-1.28054692e-07
-1.195720443e-07
-1.116406953e-07
-1.037972219e-07
-9.568537229e-08
-8.789354603e-08
-8.135051908e-08
-7.550592017e-08
-7.001187936e-08
-6.518552255e-08
-6.069288223e-08
-5.567419881e-08
-4.999030123e-08
-4.494623441e-08
-4.145308404e-08
-3.782409281e-08
-3.340633716e-08
-2.908761702e-08
-2.867680867e-08
-3.512430559e-08
7.929502897e-09
5.84070099e-08
8.485723308e-08
1.074294227e-07
1.062875108e-07
)


101
(
9.636884506e-06
1.566820072e-05
2.440941936e-05
2.799038392e-05
2.878958416e-05
2.815357876e-05
2.666734187e-05
2.463842917e-05
2.227445768e-05
1.96465076e-05
1.678471714e-05
1.372554482e-05
1.048848892e-05
7.082021691e-06
3.5766843e-06
5.396799596e-08
-3.386634627e-06
-6.630485908e-06
-9.48381367e-06
-1.184582227e-05
-1.36803966e-05
-1.487369859e-05
-1.547504812e-05
-1.560534771e-05
-1.533246748e-05
-1.475290944e-05
-1.397314555e-05
-1.306959377e-05
-1.210450807e-05
-1.11250745e-05
-1.015995384e-05
-9.243072592e-06
-8.345853546e-06
-7.501407049e-06
-6.755002808e-06
-6.076552841e-06
-5.45899232e-06
-4.874856411e-06
-4.314103972e-06
-3.800288133e-06
-3.360967192e-06
-2.992253624e-06
-2.681953442e-06
-2.424326018e-06
-2.19833302e-06
-1.991392631e-06
-1.798332599e-06
-1.618075836e-06
-1.455830239e-06
-1.313963224e-06
-1.191807385e-06
-1.084768348e-06
-9.894640062e-07
-9.027852617e-07
-8.238771931e-07
-7.531287626e-07
-6.91004418e-07
-6.355439517e-07
-5.856901861e-07
-5.413734464e-07
-5.002446864e-07
-4.626914498e-07
-4.282263249e-07
-3.959908192e-07
-3.66274942e-07
-3.396880768e-07
-3.164686743e-07
-2.959810422e-07
-2.774506974e-07
-2.595120315e-07
-2.424145649e-07
-2.26630391e-07
-2.12374676e-07
-2.000189992e-07
-1.885846506e-07
-1.772626426e-07
-1.662777646e-07
-1.563089188e-07
-1.473830819e-07
-1.387506997e-07
-1.297012816e-07
-1.202532095e-07
-1.119162638e-07
-1.046965806e-07
-9.805940177e-08
-9.191870674e-08
-8.649158304e-08
-8.083491301e-08
-7.38847929e-08
-6.733911213e-08
-6.265398699e-08
-5.773156541e-08
-5.156249676e-08
-4.596673186e-08
-4.544247673e-08
-5.629935536e-08
2.052073351e-08
1.116200937e-07
1.655160291e-07
2.141525786e-07
2.144639031e-07
)


101
(
9.470616601e-06
1.541248139e-05
2.405297183e-05
2.763776948e-05
2.847865871e-05
2.790470402e-05
2.649844211e-05
2.456639626e-05
2.231353131e-05
1.981200585e-05
1.70892172e-05
1.417391602e-05
1.108868345e-05
7.838695155e-06
4.478816798e-06
1.080099554e-06
-2.267821182e-06
-5.470144535e-06
-8.3434126e-06
-1.078483731e-05
-1.275437834e-05
-1.41211001e-05
-1.491336891e-05
-1.523689286e-05
-1.514387981e-05
-1.471773952e-05
-1.406206093e-05
-1.325524454e-05
-1.236334003e-05
-1.143750164e-05
-1.050962185e-05
-9.617355428e-06
-8.730348614e-06
-7.884390453e-06
-7.129080698e-06
-6.43807729e-06
-5.814376394e-06
-5.231756303e-06
-4.672109881e-06
-4.149167284e-06
-3.686499161e-06
-3.283949158e-06
-2.938414379e-06
-2.652642523e-06
-2.407337312e-06
-2.188467363e-06
-1.986828212e-06
-1.797394446e-06
-1.624153543e-06
-1.470124104e-06
-1.336215837e-06
-1.219316004e-06
-1.1165929e-06
-1.023749106e-06
-9.38837868e-07
-8.613814578e-07
-7.93175624e-07
-7.322976321e-07
-6.771328453e-07
-6.28851056e-07
-5.842767052e-07
-5.434942008e-07
-5.060131263e-07
-4.705807291e-07
-4.374981299e-07
-4.071234097e-07
-3.804441634e-07
-3.573513145e-07
-3.368538336e-07
-3.173971745e-07
-2.986115416e-07
-2.809889723e-07
-2.646436948e-07
-2.502051729e-07
-2.373151196e-07
-2.250648896e-07
-2.128957491e-07
-2.010750674e-07
-1.908324987e-07
-1.817724261e-07
-1.71871642e-07
-1.609222748e-07
-1.506024582e-07
-1.419197187e-07
-1.344998979e-07
-1.265959188e-07
-1.198828373e-07
-1.13755386e-07
-1.056755063e-07
-9.773187287e-08
-9.147153616e-08
-8.501515587e-08
-7.725830907e-08
-7.017888744e-08
-6.993101497e-08
-8.507796063e-08
4.75591878e-08
2.028859543e-07
3.02298794e-07
4.02792111e-07
4.143843164e-07
)


101
(
9.30505585e-06
1.515788643e-05
2.369788547e-05
2.728655361e-05
2.81698666e-05
2.765910276e-05
2.633394857e-05
2.449949422e-05
2.235827362e-05
1.998397214e-05
1.74009785e-05
1.463005048e-05
1.169626305e-05
8.602586545e-06
5.390185613e-06
2.119763513e-06
-1.128637968e-06
-4.278013492e-06
-7.156388583e-06
-9.662127929e-06
-1.175293103e-05
-1.328390914e-05
-1.426354779e-05
-1.478175486e-05
-1.48756362e-05
-1.461439479e-05
-1.409593331e-05
-1.33987188e-05
-1.259166292e-05
-1.172970458e-05
-1.08480804e-05
-9.988142763e-06
-9.117719627e-06
-8.276480713e-06
-7.517488873e-06
-6.814683351e-06
-6.180810398e-06
-5.595203771e-06
-5.036726031e-06
-4.511215812e-06
-4.035664722e-06
-3.607179042e-06
-3.228179691e-06
-2.910901135e-06
-2.640301375e-06
-2.404436478e-06
-2.192124295e-06
-1.993823237e-06
-1.81026141e-06
-1.643839498e-06
-1.497074866e-06
-1.368580713e-06
-1.256841093e-06
-1.157756087e-06
-1.067004617e-06
-9.823221728e-07
-9.074727314e-07
-8.406326016e-07
-7.795878333e-07
-7.266218091e-07
-6.785384495e-07
-6.343027572e-07
-5.936402618e-07
-5.555609999e-07
-5.196979897e-07
-4.853198267e-07
-4.542083561e-07
-4.274735398e-07
-4.044605281e-07
-3.836866873e-07
-3.637020572e-07
-3.44314198e-07
-3.257032965e-07
-3.090606137e-07
-2.946694295e-07
-2.815322883e-07
-2.681571757e-07
-2.548442332e-07
-2.431756335e-07
-2.333048678e-07
-2.228074046e-07
-2.108318447e-07
-1.98601404e-07
-1.881746728e-07
-1.804999493e-07
-1.713845567e-07
-1.625497749e-07
-1.556320841e-07
-1.464609616e-07
-1.374892159e-07
-1.300259292e-07
-1.214515771e-07
-1.118654894e-07
-1.029530204e-07
-1.039577646e-07
-1.264894975e-07
9.94153754e-08
3.600462477e-07
5.217732933e-07
6.661171844e-07
6.660069531e-07
)


101
(
9.140208048e-06
1.490441502e-05
2.334413777e-05
2.693666156e-05
2.786304503e-05
2.741651096e-05
2.617350785e-05
2.443725372e-05
2.240809548e-05
2.016167352e-05
1.77192298e-05
1.509327114e-05
1.231077866e-05
9.373442721e-06
6.31046221e-06
3.172426309e-06
3.021475401e-08
-3.055073543e-06
-5.92359879e-06
-8.477673587e-06
-1.067456269e-05
-1.235834801e-05
-1.352015701e-05
-1.423283956e-05
-1.451860222e-05
-1.443325746e-05
-1.406570144e-05
-1.349159395e-05
-1.278177073e-05
-1.199482053e-05
-1.116942292e-05
-1.035062584e-05
-9.503592986e-06
-8.673278257e-06
-7.916997839e-06
-7.205902267e-06
-6.560571993e-06
-5.967763779e-06
-5.407708772e-06
-4.881946385e-06
-4.401231847e-06
-3.955918724e-06
-3.548736999e-06
-3.19987642e-06
-2.900111594e-06
-2.642231532e-06
-2.415757643e-06
-2.207372623e-06
-2.013664174e-06
-1.835253343e-06
-1.675368752e-06
-1.533849181e-06
-1.41129425e-06
-1.304558792e-06
-1.206800799e-06
-1.115355723e-06
-1.034386275e-06
-9.612764258e-07
-8.936217731e-07
-8.345120262e-07
-7.822882873e-07
-7.347438026e-07
-6.911076498e-07
-6.501150139e-07
-6.114537357e-07
-5.743224135e-07
-5.389020696e-07
-5.072765851e-07
-4.807581532e-07
-4.578349716e-07
-4.367183986e-07
-4.163508895e-07
-3.961594496e-07
-3.773950461e-07
-3.610252784e-07
-3.464272828e-07
-3.317479365e-07
-3.177951713e-07
-3.052164601e-07
-2.939154337e-07
-2.829629042e-07
-2.704864258e-07
-2.56510003e-07
-2.444043402e-07
-2.368286148e-07
-2.274991298e-07
-2.159735986e-07
-2.070382343e-07
-1.980588012e-07
-1.889277878e-07
-1.793251376e-07
-1.687511856e-07
-1.577147892e-07
-1.462221006e-07
-1.48160439e-07
-1.789852012e-07
1.864170914e-07
6.059987002e-07
8.694067593e-07
1.118722707e-06
1.135462302e-06
)


101
(
8.976079574e-06
1.46520673e-05
2.299170768e-05
2.658802028e-05
2.755803207e-05
2.717666136e-05
2.601676883e-05
2.437925241e-05
2.246245558e-05
2.034436333e-05
1.804318976e-05
1.556291129e-05
1.293174908e-05
1.015097594e-05
7.239322896e-06
4.23763054e-06
1.20806388e-06
-1.802330779e-06
-4.646008388e-06
-7.232049242e-06
-9.518894814e-06
-1.134212794e-05
-1.267905167e-05
-1.358474814e-05
-1.406554663e-05
-1.416453023e-05
-1.396011111e-05
-1.352273847e-05
-1.292349416e-05
-1.222389224e-05
-1.146559777e-05
-1.069746246e-05
-9.881853284e-06
-9.069737425e-06
-8.323491612e-06
-7.609891032e-06
-6.954933895e-06
-6.352286598e-06
-5.78597886e-06
-5.258480758e-06
-4.777264175e-06
-4.323643057e-06
-3.895982852e-06
-3.519042317e-06
-3.188961063e-06
-2.904499797e-06
-2.658897033e-06
-2.437752256e-06
-2.233506792e-06
-2.043703089e-06
-1.871002334e-06
-1.715570871e-06
-1.58034439e-06
-1.463675272e-06
-1.358360033e-06
-1.260200139e-06
-1.173114162e-06
-1.093825177e-06
-1.019066438e-06
-9.529063741e-07
-8.951890867e-07
-8.43689929e-07
-7.969337359e-07
-7.535910302e-07
-7.119432761e-07
-6.719891492e-07
-6.335370908e-07
-5.970560885e-07
-5.66051687e-07
-5.399042114e-07
-5.166819663e-07
-4.958812518e-07
-4.753498081e-07
-4.550774972e-07
-4.36266029e-07
-4.194541654e-07
-4.036746582e-07
-3.88859672e-07
-3.757945081e-07
-3.643548106e-07
-3.529404113e-07
-3.399859438e-07
-3.253238218e-07
-3.111139801e-07
-3.025943955e-07
-2.951640802e-07
-2.825961325e-07
-2.703613847e-07
-2.610588708e-07
-2.52928233e-07
-2.41051186e-07
-2.277686706e-07
-2.161880181e-07
-2.023864633e-07
-2.049301659e-07
-2.440666049e-07
3.345103325e-07
9.918409542e-07
1.385875791e-06
1.743933804e-06
1.757562008e-06
)


101
(
8.812677359e-06
1.440084399e-05
2.264057487e-05
2.624055839e-05
2.725466769e-05
2.693927625e-05
2.58633633e-05
2.432515028e-05
2.252095208e-05
2.053123537e-05
1.837196966e-05
1.603828952e-05
1.355855314e-05
1.093471333e-05
8.17639868e-06
5.315160016e-06
2.404781382e-06
-5.203921618e-07
-3.324694244e-06
-5.926656144e-06
-8.287157852e-06
-1.023482864e-05
-1.173680638e-05
-1.283121075e-05
-1.350827721e-05
-1.379816424e-05
-1.376760733e-05
-1.348005166e-05
-1.300525622e-05
-1.240657133e-05
-1.172742448e-05
-1.102020721e-05
-1.02448947e-05
-9.459483964e-06
-8.731918724e-06
-8.023454507e-06
-7.363239813e-06
-6.750089588e-06
-6.173056852e-06
-5.639998724e-06
-5.159265375e-06
-4.703578232e-06
-4.263927586e-06
-3.865486828e-06
-3.507140917e-06
-3.193478656e-06
-2.923663738e-06
-2.685403156e-06
-2.468564849e-06
-2.267809287e-06
-2.08347675e-06
-1.913488085e-06
-1.76376745e-06
-1.635431238e-06
-1.521574065e-06
-1.415403265e-06
-1.321513745e-06
-1.236371396e-06
-1.154701626e-06
-1.080896441e-06
-1.016481064e-06
-9.605532161e-07
-9.099066424e-07
-8.631285188e-07
-8.189966465e-07
-7.773237739e-07
-7.361561627e-07
-6.95977044e-07
-6.59976857e-07
-6.288512601e-07
-6.023815481e-07
-5.805448148e-07
-5.606561568e-07
-5.405851159e-07
-5.207702466e-07
-5.012052657e-07
-4.82247846e-07
-4.666240835e-07
-4.540286649e-07
-4.431594399e-07
-4.319767551e-07
-4.190741622e-07
-4.050200179e-07
-3.890391721e-07
-3.782860717e-07
-3.735136738e-07
-3.627082232e-07
-3.476162395e-07
-3.360591268e-07
-3.296104859e-07
-3.170451574e-07
-3.016497994e-07
-2.88697667e-07
-2.722475726e-07
-2.760014891e-07
-3.217099898e-07
5.645534949e-07
1.562084996e-06
2.119431641e-06
2.641061492e-06
2.682492221e-06
)


101
(
8.650008568e-06
1.415074613e-05
2.229071963e-05
2.589420509e-05
2.695279443e-05
2.670408334e-05
2.57129218e-05
2.427460971e-05
2.258324022e-05
2.072152869e-05
1.870466516e-05
1.651872899e-05
1.419056452e-05
1.172414115e-05
9.121264066e-06
6.404724194e-06
3.620256527e-06
7.902284999e-07
-1.96047997e-06
-4.562684677e-06
-6.980851379e-06
-9.036817532e-06
-1.069105841e-05
-1.196648295e-05
-1.283826312e-05
-1.332369329e-05
-1.347674562e-05
-1.335190568e-05
-1.301541114e-05
-1.253124187e-05
-1.194409811e-05
-1.130965806e-05
-1.058475583e-05
-9.835070991e-06
-9.135296778e-06
-8.440736438e-06
-7.78192995e-06
-7.160389986e-06
-6.570083197e-06
-6.026992704e-06
-5.544423848e-06
-5.089385307e-06
-4.645187691e-06
-4.233753149e-06
-3.852252772e-06
-3.50968727e-06
-3.212231726e-06
-2.951894459e-06
-2.7191159e-06
-2.506580536e-06
-2.310786585e-06
-2.126063963e-06
-1.960829119e-06
-1.818808382e-06
-1.693859377e-06
-1.578609512e-06
-1.477310523e-06
-1.386854018e-06
-1.299241286e-06
-1.216978311e-06
-1.144380614e-06
-1.083281681e-06
-1.028087799e-06
-9.764715752e-07
-9.300223115e-07
-8.867133983e-07
-8.439627475e-07
-8.007304287e-07
-7.594799388e-07
-7.238425579e-07
-6.928697431e-07
-6.680770055e-07
-6.479024583e-07
-6.29394214e-07
-6.115500231e-07
-5.905068467e-07
-5.678385504e-07
-5.497425146e-07
-5.363933844e-07
-5.28086133e-07
-5.196157632e-07
-5.06814625e-07
-4.933633151e-07
-4.78742419e-07
-4.662147466e-07
-4.610775808e-07
-4.550205939e-07
-4.404213752e-07
-4.240412053e-07
-4.201649249e-07
-4.078372226e-07
-3.928031775e-07
-3.800456805e-07
-3.580532915e-07
-3.621990181e-07
-4.177116439e-07
8.908839907e-07
2.356947452e-06
3.114013943e-06
3.905350181e-06
4.054155636e-06
)


101
(
8.48808113e-06
1.390177572e-05
2.194212361e-05
2.554889038e-05
2.665225363e-05
2.647081567e-05
2.556507652e-05
2.42272972e-05
2.264902401e-05
2.091464606e-05
1.904030483e-05
1.700340473e-05
1.482728326e-05
1.251889487e-05
1.007358341e-05
7.505759378e-06
4.853700329e-06
2.128293925e-06
-5.558181847e-07
-3.142460536e-06
-5.600769739e-06
-7.746991662e-06
-9.538650817e-06
-1.098533657e-05
-1.204732452e-05
-1.273048349e-05
-1.307577195e-05
-1.312622018e-05
-1.294176744e-05
-1.258534785e-05
-1.210307883e-05
-1.155481848e-05
-1.089213189e-05
-1.018797704e-05
-9.525504225e-06
-8.854223263e-06
-8.205334021e-06
-7.580396013e-06
-6.977007784e-06
-6.420094397e-06
-5.931625595e-06
-5.476864089e-06
-5.0324445e-06
-4.615741673e-06
-4.218629538e-06
-3.851127706e-06
-3.524859164e-06
-3.238386863e-06
-2.985870625e-06
-2.758419912e-06
-2.549999774e-06
-2.351500352e-06
-2.170272238e-06
-2.01220924e-06
-1.873697402e-06
-1.747399806e-06
-1.637288093e-06
-1.541133949e-06
-1.448625767e-06
-1.359544965e-06
-1.277656687e-06
-1.208443642e-06
-1.14693174e-06
-1.089848527e-06
-1.040996998e-06
-9.965275845e-07
-9.522072204e-07
-9.059491889e-07
-8.610439405e-07
-8.214770232e-07
-7.851310147e-07
-7.560293763e-07
-7.332846137e-07
-7.150870321e-07
-7.023201919e-07
-6.84904054e-07
-6.604246021e-07
-6.365901423e-07
-6.203557373e-07
-6.151857497e-07
-6.110199491e-07
-6.022309351e-07
-5.899422504e-07
-5.759231562e-07
-5.653470672e-07
-5.610997262e-07
-5.592233631e-07
-5.498656415e-07
-5.2968667e-07
-5.27278481e-07
-5.17384889e-07
-5.023199402e-07
-4.919145825e-07
-4.646494131e-07
-4.68185531e-07
-5.37188284e-07
1.340039834e-06
3.430906809e-06
4.416041799e-06
5.283043051e-06
5.325018422e-06
)


101
(
8.326903651e-06
1.365393552e-05
2.159476923e-05
2.520454626e-05
2.635289083e-05
2.623921148e-05
2.541945516e-05
2.418287373e-05
2.271804785e-05
2.111011502e-05
1.937789466e-05
1.749136634e-05
1.546828192e-05
1.331873142e-05
1.103310388e-05
8.617615027e-06
6.103783658e-06
3.491939576e-06
8.861535375e-07
-1.668696308e-06
-4.147655611e-06
-6.364232817e-06
-8.276528065e-06
-9.883048909e-06
-1.112788438e-05
-1.200816994e-05
-1.255257302e-05
-1.27896184e-05
-1.277042301e-05
-1.255566677e-05
-1.219209012e-05
-1.174371286e-05
-1.115588073e-05
-1.05080194e-05
-9.892433813e-06
-9.25400549e-06
-8.625149064e-06
-8.005016648e-06
-7.391866601e-06
-6.819895442e-06
-6.321529052e-06
-5.863026944e-06
-5.418963891e-06
-5.003342114e-06
-4.598895886e-06
-4.212339198e-06
-3.858584845e-06
-3.544257537e-06
-3.268510913e-06
-3.021759743e-06
-2.798186101e-06
-2.586451812e-06
-2.389322111e-06
-2.213680712e-06
-2.060303629e-06
-1.91970852e-06
-1.797103338e-06
-1.69412349e-06
-1.597835934e-06
-1.502863048e-06
-1.411448426e-06
-1.331890995e-06
-1.261312582e-06
-1.199355097e-06
-1.145964726e-06
-1.09838429e-06
-1.054920088e-06
-1.007518823e-06
-9.59841629e-07
-9.155335694e-07
-8.739665348e-07
-8.400495155e-07
-8.123898127e-07
-7.924378609e-07
-7.839366737e-07
-7.763926348e-07
-7.548695695e-07
-7.262736974e-07
-7.056961111e-07
-6.98258905e-07
-7.000319447e-07
-7.025830937e-07
-6.941611007e-07
-6.809957425e-07
-6.743347583e-07
-6.737257799e-07
-6.767309429e-07
-6.773352786e-07
-6.58409157e-07
-6.536426071e-07
-6.506428364e-07
-6.369153385e-07
-6.285253384e-07
-5.999489276e-07
-5.9833975e-07
-6.761305667e-07
1.932407232e-06
4.821222386e-06
6.095313685e-06
7.278429191e-06
7.405331534e-06
)


101
(
8.166484379e-06
1.340723528e-05
2.124863806e-05
2.486109651e-05
2.605455442e-05
2.600901478e-05
2.527568208e-05
2.414092999e-05
2.279001661e-05
2.130763078e-05
1.971657391e-05
1.798158735e-05
1.611303502e-05
1.412333091e-05
1.199953651e-05
9.739735678e-06
7.369417883e-06
4.879741342e-06
2.362538026e-06
-1.44332484e-07
-2.622687043e-06
-4.888596748e-06
-6.902968753e-06