/*--------------------------------*- C++ -*----------------------------------*\
| =========                 |                                                 |
| \\      /  F ield         | OpenFOAM: The Open Source CFD Toolbox           |
|  \\    /   O peration     | Version:  2.3.1                                 |
|   \\  /    A nd           | Web:      www.OpenFOAM.org                      |
|    \\/     M anipulation  |                                                 |
\*---------------------------------------------------------------------------*/
FoamFile
{
    version     2.0;
    format      ascii;
    class       dictionary;
    location    "constant";
    object      GRPSI5;
}
// * * * * * * * * * * * * * * * * * * * * * * * * * * * * * * * * * * * * * //

GRPSI5_table
101
(

101
(
1.492182466e-05
2.76009685e-05
4.569498551e-05
5.109752627e-05
4.846783376e-05
4.202450504e-05
3.379072876e-05
2.490087621e-05
1.630153661e-05
8.225992863e-06
7.523039899e-07
-5.804311747e-06
-1.152926642e-05
-1.632714708e-05
-1.999927984e-05
-2.257924369e-05
-2.403666517e-05
-2.43996242e-05
-2.375723278e-05
-2.236509175e-05
-2.056198755e-05
-1.836737475e-05
-1.600254237e-05
-1.377854631e-05
-1.171691408e-05
-9.846083802e-06
-8.201627524e-06
-6.772392399e-06
-5.554722762e-06
-4.542806808e-06
-3.710454029e-06
-3.057394335e-06
-2.466149578e-06
-1.97033943e-06
-1.620342963e-06
-1.148566886e-06
-6.191902269e-07
-6.789422863e-07
-8.67253012e-07
-7.034114749e-07
-5.834681683e-07
-4.861711676e-07
-4.004372921e-07
-3.347846624e-07
-2.794989902e-07
-2.326643653e-07
-1.941395061e-07
-1.616806812e-07
-1.350948609e-07
-1.127238222e-07
-9.44517991e-08
-7.895927588e-08
-6.605411395e-08
-5.518928993e-08
-4.617507977e-08
-3.823807486e-08
-3.175249651e-08
-2.650531937e-08
-2.189835252e-08
-1.81264245e-08
-1.493329294e-08
-1.240526604e-08
-1.022595526e-08
-8.274871073e-09
-6.696500828e-09
-5.464991653e-09
-4.397881523e-09
-3.506066081e-09
-2.789708059e-09
-2.208042459e-09
-1.729351414e-09
-1.343450894e-09
-1.030959259e-09
-6.809508934e-10
-4.471363439e-10
-4.513044886e-10
-4.073848127e-10
-2.924363146e-10
-2.101313786e-10
-1.486493243e-10
-1.006654567e-10
-6.681103101e-11
-3.913115276e-11
-2.248476321e-11
-1.963209189e-11
-1.477748723e-11
-8.706211454e-12
-4.974429052e-12
-2.399718819e-12
-1.297068266e-12
-1.051384941e-12
-5.275854775e-13
-2.240906055e-13
-9.825769221e-14
-4.539943611e-14
-1.80485505e-14
-3.796000217e-15
2.007506057e-21
-1.187263278e-31
-1.168884397e-31
2.374526659e-31
)


101
(
1.466106716e-05
2.715395582e-05
4.504438118e-05
5.050180803e-05
4.803102057e-05
4.176831015e-05
3.37272226e-05
2.503553038e-05
1.660527658e-05
8.688948728e-06
1.359394496e-06
-5.100430181e-06
-1.073297982e-05
-1.547683873e-05
-1.91663193e-05
-2.180788873e-05
-2.33747013e-05
-2.390450477e-05
-2.34538012e-05
-2.224067088e-05
-2.058857774e-05
-1.854200389e-05
-1.629001678e-05
-1.411190678e-05
-1.207452408e-05
-1.021171831e-05
-8.555934063e-06
-7.106903852e-06
-5.860798895e-06
-4.81259765e-06
-3.943256706e-06
-3.249724266e-06
-2.653790433e-06
-2.147548779e-06
-1.764445118e-06
-1.361635226e-06
-9.130135384e-07
-7.446881337e-07
-7.854082464e-07
-7.216407537e-07
-6.120955034e-07
-5.108488632e-07
-4.223719634e-07
-3.511196749e-07
-2.929333629e-07
-2.444558191e-07
-2.045325798e-07
-1.711983336e-07
-1.434809143e-07
-1.202582217e-07
-1.009345958e-07
-8.475869222e-08
-7.139851278e-08
-6.023688603e-08
-5.067229594e-08
-4.23705881e-08
-3.537903664e-08
-2.962252418e-08
-2.476137678e-08
-2.068880376e-08
-1.725903634e-08
-1.441946914e-08
-1.204852867e-08
-1.000946898e-08
-8.244592168e-09
-6.773879119e-09
-5.563008654e-09
-4.54806887e-09
-3.699591093e-09
-2.98714146e-09
-2.394804858e-09
-1.906693596e-09
-1.514879427e-09
-1.170486061e-09
-8.699677849e-10
-6.726854151e-10
-5.390785912e-10
-4.18662344e-10
-3.163268439e-10
-2.343727403e-10
-1.698175191e-10
-1.205245196e-10
-8.276801358e-11
-5.479663357e-11
-3.648227471e-11
-2.463883666e-11
-1.642740721e-11
-1.061135928e-11
-6.452303714e-12
-3.787657585e-12
-2.224284489e-12
-1.284543505e-12
-7.2627484e-13
-3.800243305e-13
-1.902735813e-13
-1.021481176e-13
-3.296979244e-14
8.20449228e-15
2.457615688e-14
5.591556126e-14
7.333651501e-14
)


101
(
1.440206319e-05
2.671090936e-05
4.440318513e-05
4.992444924e-05
4.762743519e-05
4.156528387e-05
3.373938252e-05
2.526969729e-05
1.703387168e-05
9.297857705e-06
2.129228207e-06
-4.221583299e-06
-9.760600011e-06
-1.445289218e-05
-1.816576704e-05
-2.088437081e-05
-2.258022983e-05
-2.329993853e-05
-2.306694494e-05
-2.206613685e-05
-2.060368246e-05
-1.872727385e-05
-1.661373324e-05
-1.451586701e-05
-1.252150189e-05
-1.067822916e-05
-9.020629783e-06
-7.555117694e-06
-6.281562535e-06
-5.196544599e-06
-4.285550322e-06
-3.547131135e-06
-2.923805306e-06
-2.399674007e-06
-1.988938291e-06
-1.590814383e-06
-1.18329451e-06
-9.260274825e-07
-8.382227306e-07
-7.714212389e-07
-6.796885013e-07
-5.794212723e-07
-4.847416051e-07
-4.058113674e-07
-3.406220034e-07
-2.862400783e-07
-2.416190467e-07
-2.045603728e-07
-1.735156577e-07
-1.473440617e-07
-1.251911215e-07
-1.063277813e-07
-9.047104245e-08
-7.732989417e-08
-6.623272212e-08
-5.660961931e-08
-4.823936316e-08
-4.103734425e-08
-3.492167336e-08
-2.970359776e-08
-2.524928627e-08
-2.151965576e-08
-1.832992104e-08
-1.555972807e-08
-1.316959752e-08
-1.112846863e-08
-9.382984815e-09
-7.864082827e-09
-6.583097262e-09
-5.499435395e-09
-4.562272651e-09
-3.742162816e-09
-3.048211877e-09
-2.483588495e-09
-1.991395711e-09
-1.577002928e-09
-1.24180109e-09
-9.694346399e-10
-7.525720282e-10
-5.79812786e-10
-4.409658312e-10
-3.299836669e-10
-2.426134707e-10
-1.755657748e-10
-1.238785146e-10
-8.451301946e-11
-5.641506125e-11
-3.842262539e-11
-2.58836112e-11
-1.671057031e-11
-1.059230677e-11
-6.385460244e-12
-3.784241941e-12
-2.295894106e-12
-1.322012291e-12
-8.708815768e-13
-2.341963109e-13
3.781759145e-13
1.015622781e-12
1.878510777e-12
2.209968473e-12
)


101
(
1.414479592e-05
2.627172534e-05
4.377097481e-05
4.936436565e-05
4.725489721e-05
4.141174254e-05
3.382162254e-05
2.55956643e-05
1.757728674e-05
1.004107462e-05
3.049049432e-06
-3.181000007e-06
-8.624132747e-06
-1.326565545e-05
-1.700482736e-05
-1.981052423e-05
-2.164990947e-05
-2.257791677e-05
-2.258450482e-05
-2.18242231e-05
-2.058599777e-05
-1.890492583e-05
-1.695461549e-05
-1.496897958e-05
-1.304044078e-05
-1.123088636e-05
-9.582885712e-06
-8.107578163e-06
-6.809735934e-06
-5.689501476e-06
-4.734725037e-06
-3.947657572e-06
-3.28165429e-06
-2.726475643e-06
-2.301016798e-06
-1.880011865e-06
-1.468333289e-06
-1.177490996e-06
-9.971985246e-07
-8.833301494e-07
-7.874681011e-07
-6.864252761e-07
-5.859745955e-07
-4.980263737e-07
-4.224812357e-07
-3.58533086e-07
-3.057965815e-07
-2.621920416e-07
-2.257625962e-07
-1.948710737e-07
-1.684552708e-07
-1.453287291e-07
-1.254399074e-07
-1.087399087e-07
-9.455287958e-08
-8.243894122e-08
-7.191928792e-08
-6.24805802e-08
-5.429763599e-08
-4.713819438e-08
-4.081546188e-08
-3.544715565e-08
-3.080674339e-08
-2.675885822e-08
-2.328479321e-08
-2.02283981e-08
-1.752110899e-08
-1.505535823e-08
-1.287060465e-08
-1.106426777e-08
-9.502468688e-09
-8.067512368e-09
-6.777783752e-09
-5.69657722e-09
-4.76531743e-09
-3.95237354e-09
-3.240376373e-09
-2.614083635e-09
-2.081578206e-09
-1.645793587e-09
-1.301223848e-09
-1.019042649e-09
-7.823650633e-10
-5.948973161e-10
-4.455023239e-10
-3.252922522e-10
-2.275267586e-10
-1.56155591e-10
-1.103384002e-10
-7.680643437e-11
-5.068629618e-11
-3.187936193e-11
-2.008419446e-11
-1.285314409e-11
-8.09132077e-12
-5.94670985e-12
-5.77490498e-13
6.427831434e-12
2.204793178e-11
5.036104722e-11
6.51821242e-11
)


101
(
1.388925011e-05
2.583630319e-05
4.314733928e-05
4.882050974e-05
4.691131788e-05
4.130420422e-05
3.396875894e-05
2.600639667e-05
1.822652086e-05
1.090843637e-05
4.108003256e-06
-1.989360712e-06
-7.332677427e-06
-1.192237141e-05
-1.568717181e-05
-1.858509732e-05
-2.057739735e-05
-2.172593104e-05
-2.198941435e-05
-2.149420489e-05
-2.051086978e-05
-1.905060932e-05
-1.728830427e-05
-1.544541048e-05
-1.360869159e-05
-1.185183964e-05
-1.0227372e-05
-8.751697508e-06
-7.435641813e-06
-6.285075436e-06
-5.288282765e-06
-4.451650203e-06
-3.732945961e-06
-3.130513542e-06
-2.661491107e-06
-2.236009472e-06
-1.829110307e-06
-1.491363584e-06
-1.244053318e-06
-1.074025517e-06
-9.493730259e-07
-8.366302516e-07
-7.272321522e-07
-6.292721994e-07
-5.418876708e-07
-4.656718161e-07
-4.016509944e-07
-3.484062528e-07
-3.039144495e-07
-2.662298186e-07
-2.341284797e-07
-2.055054264e-07
-1.800197754e-07
-1.581201152e-07
-1.397402558e-07
-1.237386495e-07
-1.096942076e-07
-9.723568636e-08
-8.633834741e-08
-7.66257061e-08
-6.752382031e-08
-5.962486764e-08
-5.269843369e-08
-4.655577321e-08
-4.147888116e-08
-3.704809931e-08
-3.286570623e-08
-2.892824938e-08
-2.528272651e-08
-2.227806331e-08
-1.972802235e-08
-1.727773267e-08
-1.497416483e-08
-1.291937828e-08
-1.114432175e-08
-9.614877878e-09
-8.220107398e-09
-6.908986369e-09
-5.737269616e-09
-4.696277912e-09
-3.846389512e-09
-3.145396307e-09
-2.51956045e-09
-1.995991764e-09
-1.57378178e-09
-1.22170771e-09
-9.135967036e-10
-6.539334524e-10
-4.691122014e-10
-3.452620605e-10
-2.458228903e-10
-1.645309917e-10
-1.071235932e-10
-6.833663791e-11
-4.52033315e-11
-3.457507344e-11
1.162050665e-11
8.477330314e-11
3.184497059e-10
6.086132769e-10
6.948920847e-10
)


101
(
1.363541141e-05
2.540454547e-05
4.253187916e-05
4.829186912e-05
4.659469621e-05
4.123937182e-05
3.417603423e-05
2.64956086e-05
1.897372629e-05
1.189140118e-05
5.297661288e-06
-6.545248032e-07
-5.891994235e-06
-1.042623399e-05
-1.421288658e-05
-1.720308395e-05
-1.935239866e-05
-2.072889503e-05
-2.126185766e-05
-2.105190488e-05
-2.035087954e-05
-1.913713128e-05
-1.758788499e-05
-1.59179166e-05
-1.420124328e-05
-1.251957141e-05
-1.093635317e-05
-9.473393726e-06
-8.148191681e-06
-6.972443376e-06
-5.940298883e-06
-5.059539939e-06
-4.282894051e-06
-3.624385502e-06
-3.10781976e-06
-2.657695426e-06
-2.243512381e-06
-1.874863286e-06
-1.571856583e-06
-1.343738237e-06
-1.177327315e-06
-1.039730954e-06
-9.1412287e-07
-8.034066804e-07
-7.032119628e-07
-6.13024062e-07
-5.343871743e-07
-4.675045408e-07
-4.119673602e-07
-3.656033923e-07
-3.265698151e-07
-2.915641394e-07
-2.592750138e-07
-2.303333618e-07
-2.060177719e-07
-1.851656103e-07
-1.666432125e-07
-1.497780197e-07
-1.35137494e-07
-1.225516217e-07
-1.099703415e-07
-9.859850431e-08
-8.861339839e-08
-7.926196067e-08
-7.15719294e-08
-6.524785246e-08
-5.936059731e-08
-5.374420829e-08
-4.791720055e-08
-4.2818985e-08
-3.883269843e-08
-3.506464545e-08
-3.138991222e-08
-2.785211463e-08
-2.464526091e-08
-2.176665203e-08
-1.92165492e-08
-1.694770817e-08
-1.473274677e-08
-1.251936864e-08
-1.053137012e-08
-8.930833925e-09
-7.539312317e-09
-6.228786484e-09
-5.132464203e-09
-4.222279484e-09
-3.389576922e-09
-2.595552968e-09
-1.944673617e-09
-1.48469495e-09
-1.135326137e-09
-8.108847676e-10
-5.673940756e-10
-3.88656296e-10
-2.657291036e-10
-2.085396781e-10
1.658470349e-10
8.528888117e-10
3.576953048e-09
6.908772799e-09
7.848066336e-09
)


101
(
1.338326712e-05
2.497635819e-05
4.192420609e-05
4.777746377e-05
4.630311116e-05
4.12141114e-05
3.443897799e-05
2.705748636e-05
1.981172273e-05
1.298225166e-05
6.610677983e-06
8.169449727e-07
-4.306482896e-06
-8.7789347e-06
-1.25806454e-05
-1.565828297e-05
-1.796329162e-05
-1.957025858e-05
-2.038030023e-05
-2.047114511e-05
-2.007651128e-05
-1.913412843e-05
-1.782278124e-05
-1.635615469e-05
-1.478990685e-05
-1.320878195e-05
-1.168818698e-05
-1.025541129e-05
-8.934145479e-06
-7.742759324e-06
-6.681664825e-06
-5.763434036e-06
-4.931485359e-06
-4.211568516e-06
-3.642123524e-06
-3.155084366e-06
-2.722206328e-06
-2.327602624e-06
-1.978463233e-06
-1.694598402e-06
-1.480043349e-06
-1.306921158e-06
-1.155464088e-06
-1.026558267e-06
-9.112840236e-07
-8.059127845e-07
-7.102846814e-07
-6.258100892e-07
-5.555234736e-07
-4.973937798e-07
-4.495115612e-07
-4.07516581e-07
-3.678969082e-07
-3.304264293e-07
-2.982342054e-07
-2.714077642e-07
-2.475306693e-07
-2.255474805e-07
-2.062780603e-07
-1.893989111e-07
-1.724837547e-07
-1.570398097e-07
-1.435065454e-07
-1.303685127e-07
-1.187628318e-07
-1.095553098e-07
-1.015655018e-07
-9.40779656e-08
-8.619439971e-08
-7.834231793e-08
-7.16589617e-08
-6.592631746e-08
-6.066775484e-08
-5.55335994e-08
-5.051809155e-08
-4.554039024e-08
-4.112421479e-08
-3.751225056e-08
-3.395626621e-08
-3.014298484e-08
-2.618817501e-08
-2.282447e-08
-2.010453086e-08
-1.734094166e-08
-1.485640793e-08
-1.281726154e-08
-1.095561463e-08
-8.989825998e-09
-7.097643616e-09
-5.720912239e-09
-4.700303407e-09
-3.60963465e-09
-2.674064769e-09
-1.993430306e-09
-1.517834189e-09
-1.280384577e-09
2.01847798e-09
7.667403555e-09
2.587325519e-08
4.611829987e-08
5.061084629e-08
)


101
(
1.313280588e-05
2.455164999e-05
4.132394166e-05
4.727636345e-05
4.603480392e-05
4.122564513e-05
3.47536707e-05
2.768663518e-05
2.07337455e-05
1.417412425e-05
8.040756007e-06
2.419810353e-06
-2.579250293e-06
-6.980805216e-06
-1.07876626e-05
-1.394403205e-05
-1.639831476e-05
-1.823280517e-05
-1.93222e-05
-1.97243845e-05
-1.965664901e-05
-1.900991585e-05
-1.79613038e-05
-1.672830288e-05
-1.534467678e-05
-1.389161775e-05
-1.245709921e-05
-1.107521555e-05
-9.775087151e-06
-8.581314785e-06
-7.500648701e-06
-6.553745653e-06
-5.673303345e-06
-4.892047548e-06
-4.265289185e-06
-3.732263487e-06
-3.271770904e-06
-2.851019867e-06
-2.462586982e-06
-2.128321522e-06
-1.864284002e-06
-1.648028167e-06
-1.460804022e-06
-1.306152694e-06
-1.17096337e-06
-1.048363803e-06
-9.351115394e-07
-8.307191719e-07
-7.414828424e-07
-6.675224754e-07
-6.080561698e-07
-5.572323515e-07
-5.091058687e-07
-4.628013392e-07
-4.215229883e-07
-3.862869676e-07
-3.55861237e-07
-3.283894567e-07
-3.041783573e-07
-2.830485772e-07
-2.61184778e-07
-2.406329924e-07
-2.222647708e-07
-2.044511717e-07
-1.881645324e-07
-1.750332298e-07
-1.640131623e-07
-1.542041015e-07
-1.44506645e-07
-1.338550456e-07
-1.241898065e-07
-1.159285392e-07
-1.085762123e-07
-1.017345507e-07
-9.499471345e-08
-8.771462699e-08
-8.054242882e-08
-7.470125868e-08
-6.963868479e-08
-6.456224923e-08
-5.855040417e-08
-5.22212227e-08
-4.726710114e-08
-4.256010595e-08
-3.7687133e-08
-3.369562477e-08
-3.030022794e-08
-2.63393835e-08
-2.203604077e-08
-1.863638139e-08
-1.619444527e-08
-1.338801443e-08
-1.048045552e-08
-8.45674728e-09
-6.951427102e-09
-6.411485239e-09
1.331751014e-08
4.536808923e-08
1.299332927e-07
2.218647851e-07
2.415644363e-07
)


101
(
1.28840177e-05
2.413033326e-05
4.073071796e-05
4.678767119e-05
4.578812965e-05
4.127150931e-05
3.511677387e-05
2.837809822e-05
2.173341787e-05
1.546083234e-05
9.582720065e-06
4.15017308e-06
-7.121330783e-07
-5.031122555e-06
-8.830324635e-06
-1.205305701e-05
-1.464568644e-05
-1.669952594e-05
-1.806492147e-05
-1.878322159e-05
-1.905841351e-05
-1.873085459e-05
-1.796939075e-05
-1.699898749e-05
-1.583166567e-05
-1.453673006e-05
-1.321350748e-05
-1.190560086e-05
-1.064769389e-05
-9.469068436e-06
-8.381577985e-06
-7.416632696e-06
-6.497589185e-06
-5.661060406e-06
-4.977557407e-06
-4.393318058e-06
-3.897752073e-06
-3.447151455e-06
-3.022857139e-06
-2.644087155e-06
-2.331148724e-06
-2.068184662e-06
-1.839658018e-06
-1.651927372e-06
-1.489703439e-06
-1.344979131e-06
-1.211853394e-06
-1.085430692e-06
-9.742325102e-07
-8.821604581e-07
-8.077529268e-07
-7.441996669e-07
-6.871536119e-07
-6.317393285e-07
-5.787133619e-07
-5.336044875e-07
-4.959761661e-07
-4.612961094e-07
-4.307302482e-07
-4.050363214e-07
-3.78359145e-07
-3.535402329e-07
-3.303931049e-07
-3.065081011e-07
-2.83782603e-07
-2.644146702e-07
-2.495722607e-07
-2.379271952e-07
-2.278653113e-07
-2.156336658e-07
-2.026551888e-07
-1.901642808e-07
-1.788897214e-07
-1.710050986e-07
-1.637822709e-07
-1.549131207e-07
-1.451783344e-07
-1.365282148e-07
-1.298934284e-07
-1.236315002e-07
-1.160046233e-07
-1.064202822e-07
-9.84054238e-08
-9.174294353e-08
-8.459046635e-08
-7.735947693e-08
-7.160598513e-08
-6.570563216e-08
-5.766781752e-08
-5.124716595e-08
-4.657036005e-08
-4.03437207e-08
-3.336509422e-08
-2.879264884e-08
-2.495273505e-08
-2.497313597e-08
6.042818622e-08
1.923742796e-07
4.731719255e-07
8.009049859e-07
8.924553301e-07
)


101
(
1.263689363e-05
2.371232303e-05
4.014418393e-05
4.631052405e-05
4.5561487e-05
4.134932486e-05
3.552519122e-05
2.912732848e-05
2.280476622e-05
1.683656252e-05
1.123189802e-05
6.004781631e-06
1.293689421e-06
-2.928496606e-06
-6.704379109e-06
-9.977611804e-06
-1.269335249e-05
-1.495331632e-05
-1.658559669e-05
-1.761851433e-05
-1.824713702e-05
-1.826083456e-05
-1.781010762e-05
-1.71282812e-05
-1.621057905e-05
-1.510706863e-05
-1.392466232e-05
-1.271741301e-05
-1.152661028e-05
-1.038535173e-05
-9.308187527e-06
-8.337516476e-06
-7.390361119e-06
-6.50985374e-06
-5.77597391e-06
-5.136447606e-06
-4.597719446e-06
-4.112173698e-06
-3.653956054e-06
-3.238813444e-06
-2.88410389e-06
-2.573726326e-06
-2.297702736e-06
-2.069729654e-06
-1.872690518e-06
-1.699610199e-06
-1.542415286e-06
-1.39250189e-06
-1.258552703e-06
-1.144417715e-06
-1.049369517e-06
-9.691807936e-07
-9.010125492e-07
-8.362503875e-07
-7.735313282e-07
-7.165501873e-07
-6.69781442e-07
-6.270282732e-07
-5.867805622e-07
-5.559552042e-07
-5.245396452e-07
-4.948687724e-07
-4.676712754e-07
-4.385333626e-07
-4.098596395e-07
-3.829177071e-07
-3.619997695e-07
-3.47318925e-07
-3.355527707e-07
-3.222539043e-07
-3.073983157e-07
-2.929439319e-07
-2.787025392e-07
-2.675000126e-07
-2.590338094e-07
-2.508284945e-07
-2.407246424e-07
-2.285330222e-07
-2.202255784e-07
-2.155096152e-07
-2.069933963e-07
-1.944971013e-07
-1.827794838e-07
-1.749830065e-07
-1.686057254e-07
-1.566520986e-07
-1.477104706e-07
-1.413342624e-07
-1.297825546e-07
-1.202125802e-07
-1.125868949e-07
-1.015490477e-07
-8.837288556e-08
-8.012711565e-08
-7.413092836e-08
-7.648744562e-08
2.100187472e-07
6.249747834e-07
1.320864569e-06
2.209342876e-06
2.524311159e-06
)


101
(
1.239142705e-05
2.329753976e-05
3.956401077e-05
4.584412405e-05
4.535336838e-05
4.145676419e-05
3.597584505e-05
2.993036984e-05
2.394292502e-05
1.829605847e-05
1.298354057e-05
7.980247862e-06
3.437002623e-06
-6.714950111e-07
-4.405499253e-06
-7.710115068e-06
-1.052969671e-05
-1.297764373e-05
-1.486209306e-05
-1.620140472e-05
-1.71862351e-05
-1.755733539e-05
-1.744058769e-05
-1.707262595e-05
-1.643588379e-05
-1.555998235e-05
-1.455318276e-05
-1.347788764e-05
-1.238249794e-05
-1.130475013e-05
-1.0261233e-05
-9.302651708e-06
-8.337409702e-06
-7.423256973e-06
-6.649821108e-06
-5.955507904e-06
-5.366798591e-06
-4.842442012e-06
-4.352199794e-06
-3.906309735e-06
-3.517862851e-06
-3.162884652e-06
-2.835570366e-06
-2.561378833e-06
-2.321479958e-06
-2.11356991e-06
-1.929682715e-06
-1.755607745e-06
-1.596487933e-06
-1.45549586e-06
-1.334469275e-06
-1.231925623e-06
-1.148325263e-06
-1.076093685e-06
-1.00446087e-06
-9.317904719e-07
-8.732636207e-07
-8.211922635e-07
-7.698994743e-07
-7.322640177e-07
-6.974092338e-07
-6.623629278e-07
-6.303578609e-07
-5.985567483e-07
-5.666742851e-07
-5.30581931e-07
-4.99054372e-07
-4.776880699e-07
-4.63344494e-07
-4.515379827e-07
-4.377139179e-07
-4.215094158e-07
-4.034228387e-07
-3.892209321e-07
-3.811827812e-07
-3.756978471e-07
-3.660191312e-07
-3.528660911e-07
-3.441226033e-07
-3.416007915e-07
-3.34884492e-07
-3.225228467e-07
-3.082178021e-07
-2.99429947e-07
-2.994231908e-07
-2.870028249e-07
-2.733076092e-07
-2.67814929e-07
-2.537083592e-07
-2.437108558e-07
-2.361176018e-07
-2.185661325e-07
-1.980270607e-07
-1.852555943e-07
-1.803028573e-07
-1.973029932e-07
5.861105735e-07
1.657232655e-06
3.016917669e-06
4.462059935e-06
4.816107248e-06
)


101
(
1.214761198e-05
2.288590569e-05
3.89898762e-05
4.538769309e-05
4.516231285e-05
4.159158777e-05
3.646581458e-05
3.07835719e-05
2.514359834e-05
1.983449218e-05
1.483312529e-05
1.007339475e-05
5.716688396e-06
1.741502294e-06
-1.929109479e-06
-5.243075335e-06
-8.143714317e-06
-1.075643424e-05
-1.287214967e-05
-1.450299522e-05
-1.583904984e-05
-1.65755325e-05
-1.681413902e-05
-1.678459641e-05
-1.645744868e-05
-1.584843705e-05
-1.505772454e-05
-1.414947247e-05
-1.318038206e-05
-1.219520448e-05
-1.121297383e-05
-1.02904478e-05
-9.320061131e-06
-8.382025156e-06
-7.582695345e-06
-6.840993828e-06
-6.200943841e-06
-5.633580728e-06
-5.109564401e-06
-4.635217144e-06
-4.220194944e-06
-3.827558863e-06
-3.448963081e-06
-3.123694972e-06
-2.834681073e-06
-2.586479745e-06
-2.37312935e-06
-2.172793512e-06
-1.985387811e-06
-1.81422706e-06
-1.663582478e-06
-1.532494167e-06
-1.427589899e-06
-1.344499525e-06
-1.258740726e-06
-1.171502958e-06
-1.103270848e-06
-1.040719805e-06
-9.755551291e-07
-9.247063135e-07
-8.852330788e-07
-8.469560227e-07
-8.118748346e-07
-7.758501914e-07
-7.397908099e-07
-7.006310018e-07
-6.583361336e-07
-6.236796162e-07
-6.033357778e-07
-5.905876977e-07
-5.793342653e-07
-5.658332284e-07
-5.473552758e-07
-5.309213788e-07
-5.225575065e-07
-5.191443701e-07
-5.107455834e-07
-5.029920901e-07
-4.985199669e-07
-4.96824364e-07
-4.958734081e-07
-4.886329852e-07
-4.742592838e-07
-4.681161791e-07
-4.809653218e-07
-4.765998662e-07
-4.576091517e-07
-4.518919633e-07
-4.457249127e-07
-4.431092658e-07
-4.348036455e-07
-4.134470278e-07
-3.890962248e-07
-3.703975165e-07
-3.694386225e-07
-4.133189775e-07
1.334412509e-06
3.635591623e-06
5.976546353e-06
8.462346673e-06
9.120375507e-06
)


101
(
1.190544417e-05
2.247734815e-05
3.84214695e-05
4.494047202e-05
4.498688629e-05
4.175158241e-05
3.699228401e-05
3.168371389e-05
2.640295497e-05
2.144716126e-05
1.677632948e-05
1.228137818e-05
8.131756057e-06
4.312118046e-06
7.293433145e-07
-2.568752702e-06
-5.524338038e-06
-8.274059282e-06
-1.059380313e-05
-1.249585821e-05
-1.417212724e-05
-1.527439021e-05
-1.588611007e-05
-1.622056358e-05
-1.623013544e-05
-1.592167507e-05
-1.538494289e-05
-1.468088787e-05
-1.387288277e-05
-1.30136433e-05
-1.212368571e-05
-1.126484982e-05
-1.030891871e-05
-9.362209956e-06
-8.553821244e-06
-7.77837759e-06
-7.093135025e-06
-6.481097768e-06
-5.915455436e-06
-5.408912344e-06
-4.974137649e-06
-4.554310988e-06
-4.130604814e-06
-3.754220023e-06
-3.41153834e-06
-3.114322558e-06
-2.863391827e-06
-2.633805725e-06
-2.416881091e-06
-2.213777702e-06
-2.030696733e-06
-1.864980325e-06
-1.730930437e-06
-1.628143413e-06
-1.528093119e-06
-1.426632696e-06
-1.347413466e-06
-1.274036612e-06
-1.191871811e-06
-1.123386139e-06
-1.073541786e-06
-1.030129048e-06
-9.919614948e-07
-9.55756497e-07
-9.133093079e-07
-8.686748536e-07
-8.21839615e-07
-7.728668668e-07
-7.417035688e-07
-7.240535896e-07
-7.111067791e-07
-7.049112793e-07
-6.935773523e-07
-6.774623198e-07
-6.6588913e-07
-6.627622841e-07
-6.615179508e-07
-6.597847644e-07
-6.631397301e-07
-6.733769715e-07
-6.821385623e-07
-6.831426937e-07
-6.784433297e-07
-6.762488092e-07
-7.006861054e-07
-7.237151217e-07
-7.13342397e-07
-7.061445375e-07
-7.133131431e-07
-7.28034905e-07
-7.23415503e-07
-7.012372319e-07
-6.84082155e-07
-6.629959749e-07
-6.674454675e-07
-7.502408237e-07
2.667377393e-06
6.983138502e-06
1.042872171e-05
1.380176095e-05
1.455952899e-05
)


101
(
1.166492109e-05
2.2071798e-05
3.785848738e-05
4.450172133e-05
4.482568864e-05
4.193450806e-05
3.755240666e-05
3.262821203e-05
2.771816029e-05
2.312916582e-05
1.880839116e-05
1.460148221e-05
1.068069103e-05
7.041144848e-06
3.57409953e-06
3.216085119e-07
-2.658031318e-06
-5.513295845e-06
-8.00570096e-06
-1.015577931e-05
-1.215803534e-05
-1.361918775e-05
-1.461186882e-05
-1.532894652e-05
-1.570040829e-05
-1.572414555e-05
-1.547715599e-05
-1.501417604e-05
-1.440442578e-05
-1.370896714e-05
-1.294623856e-05
-1.218140703e-05
-1.126403653e-05
-1.033114569e-05
-9.537430673e-06
-8.748304222e-06
-8.029727708e-06
-7.373165202e-06
-6.756261077e-06
-6.209187893e-06
-5.757415899e-06
-5.3214219e-06
-4.864253616e-06
-4.443698538e-06
-4.046885066e-06
-3.692376989e-06
-3.392314277e-06
-3.124867997e-06
-2.873262684e-06
-2.639385508e-06
-2.42660116e-06
-2.218369083e-06
-2.044085138e-06
-1.915100752e-06
-1.79941908e-06
-1.676696789e-06
-1.580860606e-06
-1.496929253e-06
-1.397435228e-06
-1.307083726e-06
-1.240642715e-06
-1.192046202e-06
-1.14728727e-06
-1.10359423e-06
-1.05769225e-06
-1.014097432e-06
-9.619807814e-07
-9.045133074e-07
-8.584051919e-07
-8.252355788e-07
-8.059704084e-07
-8.058146392e-07
-8.097708059e-07
-8.040725119e-07
-7.973685224e-07
-7.921078497e-07
-7.881291381e-07
-7.998476957e-07
-8.214609584e-07
-8.48996011e-07
-8.75496004e-07
-8.942274956e-07
-9.129685565e-07
-9.206780145e-07
-9.551591231e-07
-1.019424852e-06
-1.041451282e-06
-1.040804675e-06
-1.060174559e-06
-1.105384812e-06
-1.119799692e-06
-1.105461036e-06
-1.097659493e-06
-1.079701738e-06
-1.097310318e-06
-1.217848412e-06
4.700880226e-06
1.189900026e-05
1.639146284e-05
2.06739141e-05
2.164582508e-05
)


101
(
1.142604153e-05
2.166918863e-05
3.730063387e-05
4.407071362e-05
4.467735749e-05
4.213820395e-05
3.814340178e-05
3.36145933e-05
2.908684291e-05
2.487600887e-05
2.092459564e-05
1.703114521e-05
1.336206619e-05
9.92915614e-06
6.608914218e-06
3.436123904e-06
4.685913674e-07
-2.456844708e-06
-5.085388856e-06
-7.457102198e-06
-9.769775755e-06
-1.157707976e-05
-1.29485767e-05
-1.405639902e-05
-1.480844577e-05
-1.519388315e-05
-1.527387651e-05
-1.509188697e-05
-1.471832661e-05
-1.422291717e-05
-1.36239082e-05
-1.299010184e-05
-1.214150083e-05
-1.124826539e-05
-1.049622695e-05
-9.717882841e-06
-8.983952594e-06
-8.288129905e-06
-7.613996736e-06
-7.016668704e-06
-6.543269561e-06
-6.096878673e-06
-5.621194853e-06
-5.172252987e-06
-4.727050366e-06
-4.310489888e-06
-3.950985583e-06
-3.633484156e-06
-3.339987929e-06
-3.073562847e-06
-2.828783704e-06
-2.571696637e-06
-2.348224338e-06
-2.182048726e-06
-2.038306778e-06
-1.890381688e-06
-1.773501048e-06
-1.681102124e-06
-1.568804202e-06
-1.448485869e-06
-1.355200242e-06
-1.299532437e-06
-1.246159086e-06
-1.185361389e-06
-1.137974824e-06
-1.095168872e-06
-1.044515256e-06
-9.802503995e-07
-9.14586998e-07
-8.71408087e-07
-8.40599953e-07
-8.371252008e-07
-8.538675946e-07
-8.696538445e-07
-8.869034946e-07
-8.859119015e-07
-8.805268898e-07
-9.047639406e-07
-9.44173555e-07
-1.008095948e-06
-1.072984493e-06
-1.114150663e-06
-1.162942772e-06
-1.2104907e-06
-1.266550043e-06
-1.358378821e-06
-1.440724789e-06
-1.475268638e-06
-1.499751298e-06
-1.594286978e-06
-1.640114276e-06
-1.654654888e-06
-1.672104505e-06
-1.643632084e-06
-1.675068817e-06
-1.861256724e-06
7.380253719e-06
1.827338112e-05
2.363206306e-05
2.897549126e-05
3.045632194e-05
)


101
(
1.118880632e-05
2.126945699e-05
3.674762152e-05
4.364673048e-05
4.454053523e-05
4.236057834e-05
3.876256296e-05
3.464049424e-05
3.050702757e-05
2.668424685e-05
2.3119945e-05
1.956703486e-05
1.617520588e-05
1.297747253e-05
9.837768804e-06
6.78114763e-06
3.865136308e-06
9.084587068e-07
-1.819099799e-06
-4.379863177e-06
-6.976017514e-06
-9.105777762e-06
-1.084590512e-05
-1.234772206e-05
-1.349114969e-05
-1.426305603e-05
-1.47090981e-05
-1.485192982e-05
-1.475417801e-05
-1.449181049e-05
-1.408957685e-05
-1.362953186e-05
-1.288809063e-05
-1.206476524e-05
-1.138459787e-05
-1.064467181e-05
-9.919677351e-06
-9.197121507e-06
-8.465178055e-06
-7.806761043e-06
-7.303009889e-06
-6.848649091e-06
-6.364368531e-06
-5.901966659e-06
-5.421840071e-06
-4.94923633e-06
-4.522242698e-06
-4.141858969e-06
-3.799113338e-06
-3.488900585e-06
-3.203603911e-06
-2.899344906e-06
-2.619457935e-06
-2.399293943e-06
-2.214397801e-06
-2.032536343e-06
-1.886329912e-06
-1.781504349e-06
-1.660997276e-06
-1.520129615e-06
-1.390855848e-06
-1.308113501e-06
-1.236045519e-06
-1.156084977e-06
-1.109113464e-06
-1.072300116e-06
-1.022531441e-06
-9.497059667e-07
-8.761187521e-07
-8.286480392e-07
-7.837297213e-07
-7.744631428e-07
-7.956377553e-07
-8.303981113e-07
-8.975519327e-07
-9.369639234e-07
-9.449520507e-07
-9.665132713e-07
-1.026028353e-06
-1.144499681e-06
-1.261662855e-06
-1.358896918e-06
-1.451715416e-06
-1.538999142e-06
-1.651734637e-06
-1.795220481e-06
-1.940686898e-06
-2.045812889e-06
-2.09415519e-06
-2.242892922e-06
-2.338521265e-06
-2.382608762e-06
-2.441036304e-06
-2.404615354e-06
-2.452160974e-06
-2.7396678e-06
1.061398743e-05
2.589035271e-05
3.182847996e-05
3.676634067e-05
3.745794464e-05
)


101
(
1.095321813e-05
2.087254357e-05
3.61991686e-05
4.322907178e-05
4.441390724e-05
4.259960285e-05
3.940720693e-05
3.570359107e-05
3.197707514e-05
2.855124136e-05
2.538936085e-05
2.220514332e-05
1.911986339e-05
1.618801607e-05
1.326483198e-05
1.036214065e-05
7.53780534e-06
4.591791397e-06
1.802301737e-06
-9.066988056e-07
-3.744496754e-06
-6.160768909e-06
-8.250362371e-06
-1.014577375e-05
-1.168331373e-05
-1.28598938e-05
-1.371042173e-05
-1.42220506e-05
-1.444054081e-05
-1.444834878e-05
-1.427877739e-05
-1.403304108e-05
-1.343884535e-05
-1.272008069e-05
-1.214263269e-05
-1.147016426e-05
-1.078590674e-05
-1.00613886e-05
-9.278520711e-06
-8.555258326e-06
-8.012277976e-06
-7.537816795e-06
-7.046479234e-06
-6.589826674e-06
-6.093896785e-06
-5.572059331e-06
-5.071188561e-06
-4.621732205e-06
-4.222406904e-06
-3.851476517e-06
-3.512471188e-06
-3.162491678e-06
-2.821332046e-06
-2.53377699e-06
-2.302321427e-06
-2.068560129e-06
-1.870091516e-06
-1.746136433e-06
-1.624364421e-06
-1.465674186e-06
-1.295879732e-06
-1.170241946e-06
-1.062780251e-06
-9.759806438e-07
-9.168990146e-07
-8.73429775e-07
-8.484376932e-07
-7.852008751e-07
-7.128325711e-07
-6.559449412e-07
-6.036254497e-07
-5.94921748e-07
-6.164457588e-07
-6.714822706e-07
-7.939883751e-07
-9.259444177e-07
-9.803926224e-07
-1.012758555e-06
-1.10382484e-06
-1.258845539e-06
-1.454801639e-06
-1.667312785e-06
-1.832275549e-06
-1.973431971e-06
-2.161664925e-06
-2.384537344e-06
-2.612833927e-06
-2.8218286e-06
-2.932612286e-06
-3.123577056e-06
-3.295874008e-06
-3.379745001e-06
-3.479299901e-06
-3.452403794e-06
-3.496098108e-06
-3.876908594e-06
1.421258316e-05
3.43778792e-05
4.088454993e-05
4.638586705e-05
4.715065109e-05
)


101
(
1.071927938e-05
2.047844422e-05
3.565499639e-05
4.281699212e-05
4.429620074e-05
4.285332171e-05
4.007467994e-05
3.680119299e-05
3.349519776e-05
3.047542394e-05
2.772855653e-05
2.494101628e-05
2.21952491e-05
1.956223466e-05
1.689381693e-05
1.418457473e-05
1.149332268e-05
8.603604748e-06
5.7878329e-06
2.977843947e-06