/*--------------------------------*- C++ -*----------------------------------*\
| =========                 |                                                 |
| \\      /  F ield         | OpenFOAM: The Open Source CFD Toolbox           |
|  \\    /   O peration     | Version:  2.3.1                                 |
|   \\  /    A nd           | Web:      www.OpenFOAM.org                      |
|    \\/     M anipulation  |                                                 |
\*---------------------------------------------------------------------------*/
FoamFile
{
    version     2.0;
    format      ascii;
    class       dictionary;
    location    "constant";
    object      GRPSI55;
}
// * * * * * * * * * * * * * * * * * * * * * * * * * * * * * * * * * * * * * //

GRPSI55_table
101
(

101
(
-4.500074517e-23
-1.038621286e-12
-2.285436064e-11
-1.794826687e-10
-8.741067241e-10
-3.062959861e-09
-8.346093509e-09
-1.979100701e-08
-4.076322925e-08
-7.617802683e-08
-1.313122128e-07
-2.128557124e-07
-3.248489038e-07
-4.797762024e-07
-6.751985156e-07
-9.137864193e-07
-1.198039028e-06
-1.526574968e-06
-1.857206485e-06
-2.233789643e-06
-2.571666732e-06
-2.878663744e-06
-3.152007406e-06
-3.344021329e-06
-3.444712234e-06
-3.446691354e-06
-3.344029066e-06
-3.138332014e-06
-2.825156546e-06
-2.424640384e-06
-1.947870596e-06
-1.428612935e-06
-9.294673073e-07
-2.855349482e-07
2.343467869e-07
6.648603874e-07
4.771818431e-07
3.10140275e-07
1.935268427e-06
2.720475194e-06
3.205547249e-06
3.532035678e-06
3.819577221e-06
4.054738782e-06
4.239957194e-06
4.38793643e-06
4.48827611e-06
4.541468419e-06
4.554332428e-06
4.522405353e-06
4.458666547e-06
4.362972948e-06
4.23710255e-06
4.084830187e-06
3.915827628e-06
3.735489809e-06
3.523632709e-06
3.3303488e-06
3.112671032e-06
2.90416379e-06
2.686630436e-06
2.472527623e-06
2.265022874e-06
2.05743021e-06
1.85576762e-06
1.665692871e-06
1.485414209e-06
1.314459534e-06
1.149351729e-06
9.998736293e-07
8.607685387e-07
7.344281453e-07
6.156325153e-07
5.081473168e-07
3.795504766e-07
2.97924663e-07
2.541709198e-07
2.062482471e-07
1.619180282e-07
1.237820826e-07
9.239373949e-08
6.598498611e-08
4.609375297e-08
2.796375402e-08
1.747598462e-08
1.157318764e-08
7.180672555e-09
4.047223625e-09
2.109212372e-09
9.242743741e-10
3.761625922e-10
1.433256375e-10
5.262942555e-11
1.274087612e-11
3.758496992e-12
1.081542859e-12
1.227664993e-13
2.089025244e-13
4.750327908e-13
2.245546824e-12
3.685381267e-12
)


101
(
-4.500074507e-23
-9.420778235e-13
-2.16063387e-11
-1.720983995e-10
-8.446125479e-10
-2.971081361e-09
-8.110465187e-09
-1.924852438e-08
-3.967450989e-08
-7.416117523e-08
-1.278567355e-07
-2.072484405e-07
-3.163785446e-07
-4.670472077e-07
-6.576413915e-07
-8.904304009e-07
-1.16776355e-06
-1.488466869e-06
-1.814456735e-06
-2.181024574e-06
-2.516720137e-06
-2.820684072e-06
-3.090003103e-06
-3.283170972e-06
-3.386348782e-06
-3.391233107e-06
-3.291652028e-06
-3.088061579e-06
-2.77675532e-06
-2.373951678e-06
-1.891108377e-06
-1.357528934e-06
-8.293086717e-07
-1.839184755e-07
3.792071536e-07
8.551428167e-07
8.39521783e-07
7.422900109e-07
2.018094782e-06
2.907267634e-06
3.505410497e-06
3.911179248e-06
4.239988801e-06
4.507424185e-06
4.720466149e-06
4.892034131e-06
5.016967675e-06
5.093117448e-06
5.125501464e-06
5.111417947e-06
5.060411246e-06
4.974392993e-06
4.856498373e-06
4.711616913e-06
4.545214826e-06
4.361514894e-06
4.147448812e-06
3.937867166e-06
3.709714784e-06
3.482545114e-06
3.248261076e-06
3.013717753e-06
2.782615455e-06
2.55285286e-06
2.328314848e-06
2.112022243e-06
1.904102339e-06
1.705195685e-06
1.513823847e-06
1.334909052e-06
1.167340944e-06
1.012245727e-06
8.679983435e-07
7.356169044e-07
5.927675894e-07
4.80400774e-07
4.013220777e-07
3.301638538e-07
2.670180825e-07
2.1166286e-07
1.644336856e-07
1.243458021e-07
9.215608664e-08
6.452524669e-08
4.445915423e-08
3.031533274e-08
2.027037502e-08
1.307928189e-08
7.985204995e-09
4.609160452e-09
2.521078766e-09
1.245406945e-09
6.277453288e-10
2.751191306e-10
1.162009382e-10
5.012559932e-11
9.990856722e-12
2.368898801e-11
4.735786526e-11
1.512234111e-10
2.509080738e-10
)


101
(
-4.500074507e-23
-7.574846525e-13
-1.919172719e-11
-1.577394451e-10
-7.871038015e-10
-2.79167486e-09
-7.65009974e-09
-1.818856837e-08
-3.754685192e-08
-7.022190691e-08
-1.21110591e-07
-1.963102751e-07
-2.998561523e-07
-4.422742174e-07
-6.23427062e-07
-8.44957651e-07
-1.108914286e-06
-1.414501527e-06
-1.731118031e-06
-2.079419768e-06
-2.410036703e-06
-2.709099895e-06
-2.972069252e-06
-3.167917142e-06
-3.277487679e-06
-3.290188367e-06
-3.199098559e-06
-3.002653298e-06
-2.698028063e-06
-2.295050841e-06
-1.804928492e-06
-1.249221837e-06
-6.717970852e-07
-1.56264842e-08
6.219866778e-07
1.172480695e-06
1.442017028e-06
1.50478455e-06
2.266896198e-06
3.219199019e-06
3.998250843e-06
4.569787623e-06
5.002794798e-06
5.34533398e-06
5.620704377e-06
5.84593644e-06
6.023791436e-06
6.15222558e-06
6.230480357e-06
6.25931264e-06
6.241864676e-06
6.183146309e-06
6.08718544e-06
5.959464135e-06
5.803101156e-06
5.622024209e-06
5.410265477e-06
5.181847512e-06
4.938283164e-06
4.683492879e-06
4.421065975e-06
4.15291238e-06
3.882684676e-06
3.612536158e-06
3.344301943e-06
3.078996739e-06
2.819703393e-06
2.567181946e-06
2.323962011e-06
2.089887315e-06
1.866688164e-06
1.65528621e-06
1.45745008e-06
1.273028413e-06
1.093368779e-06
9.254166067e-07
7.801055706e-07
6.548841646e-07
5.457761656e-07
4.499041761e-07
3.65693597e-07
2.922133553e-07
2.29584783e-07
1.764545858e-07
1.32390293e-07
9.696904301e-08
6.943928912e-08
4.917502551e-08
3.380755499e-08
2.223405086e-08
1.40672353e-08
8.552154816e-09
5.151366469e-09
2.892196902e-09
1.577373362e-09
8.158029233e-10
1.782305661e-10
6.301388793e-10
1.242588885e-09
3.07620632e-09
5.184497185e-09
)


101
(
-4.500074507e-23
-5.894804538e-13
-1.69368393e-11
-1.441849369e-10
-7.325014364e-10
-2.62081071e-09
-7.211105499e-09
-1.717762655e-08
-3.551664509e-08
-6.646700201e-08
-1.146855747e-07
-1.859092318e-07
-2.841453021e-07
-4.188211042e-07
-5.909525104e-07
-8.018575973e-07
-1.053303402e-06
-1.34480033e-06
-1.651890162e-06
-1.984970631e-06
-2.309440756e-06
-2.605371633e-06
-2.864958734e-06
-3.064279925e-06
-3.182452825e-06
-3.206396166e-06
-3.127953558e-06
-2.943796577e-06
-2.651092378e-06
-2.255516463e-06
-1.766982757e-06
-1.201167467e-06
-5.918131441e-07
8.347001138e-08
7.779737316e-07
1.419194705e-06
1.852899126e-06
2.087266138e-06
2.633291815e-06
3.475661082e-06
4.335079701e-06
5.057311962e-06
5.623882742e-06
6.067427148e-06
6.422173042e-06
6.713563281e-06
6.952108884e-06
7.140973367e-06
7.276419453e-06
7.360073557e-06
7.391297815e-06
7.374647355e-06
7.31382171e-06
7.214126805e-06
7.079483916e-06
6.913402023e-06
6.717284244e-06
6.493101917e-06
6.247652674e-06
5.982348484e-06
5.703430885e-06
5.414562019e-06
5.118647622e-06
4.818332452e-06
4.515180955e-06
4.209733773e-06
3.906795785e-06
3.608189728e-06
3.316317563e-06
3.032544836e-06
2.755867132e-06
2.489783993e-06
2.235400865e-06
1.99534023e-06
1.766205818e-06
1.547148612e-06
1.34201169e-06
1.155476904e-06
9.879391425e-07
8.386501265e-07
7.057137657e-07
5.867760635e-07
4.817252868e-07
3.899044759e-07
3.103397462e-07
2.425007134e-07
1.8534447e-07
1.394729101e-07
1.040595132e-07
7.54711327e-08
5.300723514e-08
3.604083569e-08
2.381922525e-08
1.554897008e-08
9.922985956e-09
5.883617567e-09
2.117681566e-09
6.103071233e-09
1.075826557e-08
2.037831932e-08
3.022795419e-08
)


101
(
-4.500074926e-23
-4.37278834e-13
-1.483545878e-11
-1.314057852e-10
-6.807014448e-10
-2.458177704e-09
-6.792675671e-09
-1.62137358e-08
-3.357977352e-08
-6.288771916e-08
-1.085652175e-07
-1.760147047e-07
-2.691974241e-07
-3.965908352e-07
-5.600986285e-07
-7.609260896e-07
-1.000605699e-06
-1.27889143e-06
-1.576348174e-06
-1.896383216e-06
-2.214179489e-06
-2.507811051e-06
-2.766162624e-06
-2.969761485e-06
-3.097831133e-06
-3.135370919e-06
-3.072731282e-06
-2.904857509e-06
-2.628353302e-06
-2.245903168e-06
-1.765248602e-06
-1.199501665e-06
-5.7315724e-07
1.182398309e-07
8.518632214e-07
1.580526849e-06
2.135354348e-06
2.522983485e-06
3.015705171e-06
3.744833443e-06
4.600821953e-06
5.421252665e-06
6.119813436e-06
6.685704035e-06
7.140056147e-06
7.511272008e-06
7.819735418e-06
8.075996664e-06
8.279190639e-06
8.428017135e-06
8.520661494e-06
8.559120193e-06
8.547065297e-06
8.490272961e-06
8.392412549e-06
8.254623e-06
8.0840989e-06
7.87959684e-06
7.648145634e-06
7.389097832e-06
7.107386873e-06
6.810648581e-06
6.500233058e-06
6.181048489e-06
5.855429941e-06
5.522845376e-06
5.186577007e-06
4.850461574e-06
4.515497746e-06
4.187811797e-06
3.863639317e-06
3.546342383e-06
3.236884848e-06
2.939663749e-06
2.654603119e-06
2.380846654e-06
2.118946216e-06
1.871398929e-06
1.639447922e-06
1.426476617e-06
1.232846803e-06
1.058059049e-06
8.986670189e-07
7.555672741e-07
6.273326425e-07
5.141989533e-07
4.142036866e-07
3.281151729e-07
2.573745607e-07
1.999127401e-07
1.512038002e-07
1.120230152e-07
8.099058144e-08
5.733638389e-08
4.049970428e-08
2.688165279e-08
1.296028212e-08
2.66272751e-08
4.380282365e-08
8.688046888e-08
1.324521459e-07
)


101
(
-4.500074517e-23
-3.001099753e-13
-1.288148559e-11
-1.193735376e-10
-6.316025638e-10
-2.303474467e-09
-6.394030427e-09
-1.529501888e-08
-3.173233887e-08
-5.947592484e-08
-1.027343634e-07
-1.665988344e-07
-2.549691101e-07
-3.754985048e-07
-5.307607022e-07
-7.219934465e-07
-9.505503047e-07
-1.216382795e-06
-1.504153894e-06
-1.812675793e-06
-2.123579504e-06
-2.415194393e-06
-2.673763725e-06
-2.88236833e-06
-3.021184432e-06
-3.07391904e-06
-3.029416347e-06
-2.881053154e-06
-2.624517451e-06
-2.260124301e-06
-1.792935907e-06
-1.234480159e-06
-6.02517938e-07
9.820819971e-08
8.541667991e-07
1.628185344e-06
2.303455036e-06
2.828939682e-06
3.348067844e-06
4.015355418e-06
4.834361469e-06
5.699133574e-06
6.503034338e-06
7.193544885e-06
7.76331646e-06
8.23087603e-06
8.621063686e-06
8.95363737e-06
9.233411146e-06
9.45740633e-06
9.623648259e-06
9.730564089e-06
9.780962692e-06
9.780343491e-06
9.734686959e-06
9.643469265e-06
9.510668196e-06
9.339216202e-06
9.134392885e-06
8.89768982e-06
8.631661223e-06
8.342655725e-06
8.032997834e-06
7.706597973e-06
7.369217608e-06
7.022259183e-06
6.665479312e-06
6.302034181e-06
5.933802987e-06
5.56707811e-06
5.203819695e-06
4.843539641e-06
4.486494084e-06
4.135913722e-06
3.794564423e-06
3.463730976e-06
3.145231548e-06
2.837085282e-06
2.540469219e-06
2.25964777e-06
1.99705925e-06
1.756530863e-06
1.532896271e-06
1.327105145e-06
1.138735889e-06
9.671119262e-07
8.107866594e-07
6.702340808e-07
5.475288845e-07
4.452440046e-07
3.554884616e-07
2.788161564e-07
2.161760049e-07
1.640488072e-07
1.244331261e-07
8.753061978e-08
4.943428616e-08
9.866019351e-08
1.564159979e-07
2.743976424e-07
3.942643216e-07
)


101
(
-4.500074507e-23
-1.772170803e-13
-1.106894785e-11
-1.080604629e-10
-5.851067198e-10
-2.156410616e-09
-6.014421257e-09
-1.441968332e-08
-2.997066726e-08
-5.622408345e-08
-9.717909538e-08
-1.576367522e-07
-2.41421857e-07
-3.554716372e-07
-5.028509152e-07
-6.849242766e-07
-9.029294964e-07
-1.156979073e-06
-1.43507444e-06
-1.73316627e-06
-2.037147992e-06
-2.326752131e-06
-2.586472429e-06
-2.800732929e-06
-2.950928593e-06
-3.020066381e-06
-2.995565513e-06
-2.869348772e-06
-2.636066517e-06
-2.294100795e-06
-1.84619471e-06
-1.300769429e-06
-6.720416574e-07
3.123800969e-08
8.004939896e-07
1.607764601e-06
2.370015818e-06
3.01798546e-06
3.607446666e-06
4.262861132e-06
5.046857614e-06
5.919696648e-06
6.79401363e-06
7.595310469e-06
8.286740939e-06
8.866806952e-06
9.353660527e-06
9.771169752e-06
1.013272453e-05
1.04391304e-05
1.068859472e-05
1.087615965e-05
1.100336675e-05
1.107366544e-05
1.109294467e-05
1.106316593e-05
1.09867722e-05
1.086430356e-05
1.070050783e-05
1.049941861e-05
1.026443184e-05
9.99841288e-06
9.705908967e-06
9.389164291e-06
9.053433669e-06
8.703795799e-06
8.339370587e-06
7.963402533e-06
7.576449931e-06
7.181431351e-06
6.787115137e-06
6.39202292e-06
5.996755441e-06
5.601625389e-06
5.210503982e-06
4.82524765e-06
4.450284993e-06
4.084256861e-06
3.727471287e-06
3.380447927e-06
3.046238305e-06
2.731245176e-06
2.436741866e-06
2.158798093e-06
1.900514098e-06
1.659656651e-06
1.435328323e-06
1.22703616e-06
1.038482895e-06
8.727935613e-07
7.278167952e-07
5.953615278e-07
4.828795641e-07
3.873161741e-07
3.073850713e-07
2.321377738e-07
1.497887043e-07
2.787920209e-07
4.252377692e-07
6.917951007e-07
9.584282203e-07
)


101
(
-4.500074507e-23
-6.785889464e-14
-9.39199286e-12
-9.743942917e-11
-5.411183397e-10
-2.016704729e-09
-5.653126022e-09
-1.358600236e-08
-2.829124574e-08
-5.312504679e-08
-9.188628161e-08
-1.491050148e-07
-2.285196895e-07
-3.364437602e-07
-4.762879657e-07
-6.495978235e-07
-8.575591514e-07
-1.100420684e-06
-1.368897762e-06
-1.657318503e-06
-1.9544238e-06
-2.241853625e-06
-2.503246732e-06
-2.723645074e-06
-2.885641646e-06
-2.972051653e-06
-2.969038064e-06
-2.867091603e-06
-2.659787028e-06
-2.343909706e-06
-1.920015935e-06
-1.393602857e-06
-7.756818461e-07
-7.677355333e-08
6.971410208e-07
1.525767225e-06
2.349566834e-06
3.099284204e-06
3.777096224e-06
4.46119282e-06
5.230480238e-06
6.097664179e-06
7.011604091e-06
7.899926999e-06
8.706738884e-06
9.407976787e-06
1.000658022e-05
1.052183144e-05
1.097370043e-05
1.136920064e-05
1.170722254e-05
1.198491811e-05
1.220117925e-05
1.23547432e-05
1.245166617e-05
1.249720345e-05
1.249196191e-05
1.243485586e-05
1.233070225e-05
1.218211983e-05
1.199285074e-05
1.176588921e-05
1.1504451e-05
1.121409154e-05
1.089719751e-05
1.056058328e-05
1.020516691e-05
9.831809941e-06
9.441146575e-06
9.032847846e-06
8.617511844e-06
8.196123567e-06
7.773746551e-06
7.346991058e-06
6.916523252e-06
6.485565864e-06
6.058929602e-06
5.639079853e-06
5.226082628e-06
4.8173987e-06
4.41605974e-06
4.025853054e-06
3.657188017e-06
3.302737244e-06
2.967798985e-06
2.648297441e-06
2.348830481e-06
2.06175971e-06
1.795398572e-06
1.550936851e-06
1.332723021e-06
1.128224648e-06
9.492480772e-07
7.929207109e-07
6.543961105e-07
5.254972374e-07
3.6854689e-07
6.338301639e-07
9.320667966e-07
1.455920423e-06
1.999525587e-06
)


101
(
-4.500075345e-23
2.869038512e-14
-7.844881335e-12
-8.748400635e-11
-4.995444414e-10
-1.884084248e-09
-5.309452236e-09
-1.279233846e-08
-2.669075398e-08
-5.017212514e-08
-8.684379525e-08
-1.409821215e-07
-2.162300478e-07
-3.183554206e-07
-4.509986867e-07
-6.159104729e-07
-8.142808757e-07
-1.046483501e-06
-1.305435194e-06
-1.584708151e-06
-1.874996027e-06
-2.159975017e-06
-2.423202154e-06
-2.649952047e-06
-2.823856358e-06
-2.927928114e-06
-2.947401241e-06
-2.871411581e-06
-2.692423606e-06
-2.40588513e-06
-2.010433045e-06
-1.508776707e-06
-9.087005779e-07
-2.212060927e-07
5.486338278e-07
1.386704015e-06
2.25122341e-06
3.081094699e-06
3.84906054e-06
4.589385448e-06
5.370033509e-06
6.233228358e-06
7.166095823e-06
8.115907572e-06
9.022516851e-06
9.84360991e-06
1.056380408e-05
1.119132059e-05
1.174442976e-05
1.223623304e-05
1.267026015e-05
1.304735105e-05
1.336274531e-05
1.361260623e-05
1.380097254e-05
1.39323913e-05
1.401064021e-05
1.403222811e-05
1.400366637e-05
1.392612839e-05
1.380087727e-05
1.363175369e-05
1.341988229e-05
1.317170325e-05
1.289026284e-05
1.258147875e-05
1.225014745e-05
1.18938515e-05
1.151498437e-05
1.111177625e-05
1.069180413e-05
1.025943569e-05
9.819161538e-06
9.371939753e-06
8.915856949e-06
8.45293822e-06
7.984359925e-06
7.517421494e-06
7.055262202e-06
6.59234393e-06
6.12968805e-06
5.672688606e-06
5.229635849e-06
4.802298545e-06
4.387455871e-06
3.985007984e-06
3.605975029e-06
3.234887134e-06
2.881671499e-06
2.549267346e-06
2.24064833e-06
1.953351041e-06
1.692088936e-06
1.456658057e-06
1.241521307e-06
1.035008429e-06
7.893375594e-07
1.263839044e-06
1.789545385e-06
2.65162972e-06
3.593296261e-06
)


101
(
-4.500075345e-23
1.131422863e-13
-6.421993912e-12
-7.816846646e-11
-4.602947517e-10
-1.758283996e-09
-4.98272904e-09
-1.203712389e-08
-2.516601476e-08
-4.735896167e-08
-8.20401984e-08
-1.332482122e-07
-2.045233063e-07
-3.011541533e-07
-4.269179327e-07
-5.837738906e-07
-7.729627545e-07
-9.949798055e-07
-1.244530135e-06
-1.515016715e-06
-1.798538137e-06
-2.080719965e-06
-2.3456053e-06
-2.578657951e-06
-2.764289173e-06
-2.885970579e-06
-2.928445356e-06
-2.879685323e-06
-2.731002899e-06
-2.476622237e-06
-2.113626846e-06
-1.642374835e-06
-1.067377719e-06
-3.985028601e-07
3.58980431e-07
1.195640769e-06
2.083487406e-06
2.972542941e-06
3.821698979e-06
4.632016968e-06
5.447758523e-06
6.318376328e-06
7.261661566e-06
8.252142627e-06
9.239113536e-06
1.017114707e-05
1.10152832e-05
1.176444031e-05
1.242853757e-05
1.302480984e-05
1.356310271e-05
1.404679307e-05
1.447049039e-05
1.482978815e-05
1.51207226e-05
1.535016554e-05
1.552540632e-05
1.564056087e-05
1.570166365e-05
1.571030452e-05
1.566543294e-05
1.557030494e-05
1.542855707e-05
1.52412408e-05
1.501150451e-05
1.4744152e-05
1.445038902e-05
1.412751136e-05
1.377874333e-05
1.340081962e-05
1.299557531e-05
1.256892753e-05
1.212534087e-05
1.167006196e-05
1.120317713e-05
1.072145412e-05
1.022560554e-05
9.72447055e-06
9.222131382e-06
8.716326355e-06
8.202739235e-06
7.689210064e-06
7.178202294e-06
6.682712262e-06
6.192698307e-06
5.708366514e-06
5.244564984e-06
4.791247287e-06
4.347043857e-06
3.925373856e-06
3.517839774e-06
3.13847934e-06
2.781894e-06
2.453344775e-06
2.148403499e-06
1.84032407e-06
1.486365971e-06
2.268182948e-06
3.108670224e-06
4.323817768e-06
5.534560681e-06
)


101
(
-4.499628017e-23
1.861939756e-13
-5.117819323e-12
-6.94676186e-11
-4.232813827e-10
-1.639046678e-09
-4.672307307e-09
-1.131885044e-08
-2.371399779e-08
-4.467954269e-08
-7.746469801e-08
-1.258846716e-07
-1.933716689e-07
-2.847922864e-07
-4.039858155e-07
-5.531088809e-07
-7.334900184e-07
-9.457488564e-07
-1.186039835e-06
-1.447992636e-06
-1.724777634e-06
-2.003787968e-06
-2.269901904e-06
-2.508983203e-06
-2.705949595e-06
-2.844901372e-06
-2.910526667e-06
-2.889856118e-06
-2.773007384e-06
-2.553001855e-06
-2.225636618e-06
-1.789480034e-06
-1.24615053e-06
-6.029526517e-07
1.348732343e-07
9.604312343e-07
1.855779718e-06
2.782793745e-06
3.697284361e-06
4.579386072e-06
5.447829261e-06
6.343638095e-06
7.299728979e-06
8.317299064e-06
9.364600953e-06
1.039215875e-05
1.135474169e-05
1.222882478e-05
1.301362532e-05
1.372391617e-05
1.437253791e-05
1.49665684e-05
1.550438093e-05
1.5980057e-05
1.63855039e-05
1.672955574e-05
1.701228851e-05
1.723523498e-05
1.73979886e-05
1.750643794e-05
1.755835786e-05
1.755316363e-05
1.749679454e-05
1.738798486e-05
1.723028099e-05
1.702512849e-05
1.67828264e-05
1.650961383e-05
1.620656917e-05
1.586968852e-05
1.549841786e-05
1.50956233e-05
1.466859006e-05
1.422170077e-05
1.375773565e-05
1.327247986e-05
1.276761223e-05
1.224926012e-05
1.171667279e-05
1.117940453e-05
1.063204008e-05
1.007297477e-05
9.508353048e-06
8.950942681e-06
8.395706262e-06
7.836270931e-06
7.288091173e-06
6.758213756e-06
6.229976082e-06
5.713881965e-06
5.208283286e-06
4.731426833e-06
4.273357281e-06
3.843539772e-06
3.443213439e-06
3.031010338e-06
2.558813504e-06
3.69009847e-06
4.892175313e-06
6.496065384e-06
8.080053973e-06
)


101
(
-4.498061365e-23
2.485278985e-13
-3.926963313e-12
-6.135684568e-11
-3.884187098e-10
-1.526123254e-09
-4.377562346e-09
-1.063607353e-08
-2.233183842e-08
-4.212827972e-08
-7.31073051e-08
-1.188742081e-07
-1.827490798e-07
-2.692254898e-07
-3.82145987e-07
-5.238430102e-07
-6.957589845e-07
-8.986440166e-07
-1.129827436e-06
-1.383411445e-06
-1.653465773e-06
-1.928954981e-06
-2.195794153e-06
-2.44049428e-06
-2.648418167e-06
-2.804285985e-06
-2.892950549e-06
-2.900781338e-06
-2.81676084e-06
-2.632765555e-06
-2.343393569e-06
-1.945702319e-06
-1.438997743e-06
-8.278946676e-07
-1.166606241e-07
6.891138559e-07
1.578014957e-06
2.522850055e-06
3.483745939e-06
4.430662274e-06
5.36038637e-06
6.297607683e-06
7.275703736e-06
8.314389483e-06
9.403826703e-06
1.050679726e-05
1.157582155e-05
1.257383957e-05
1.348620028e-05
1.431935485e-05
1.508514695e-05
1.579391117e-05
1.644897825e-05
1.704585451e-05
1.757757703e-05
1.80451805e-05
1.844714536e-05
1.878688757e-05
1.906368893e-05
1.928304023e-05
1.944494844e-05
1.954597047e-05
1.958996137e-05
1.957654589e-05
1.950864271e-05
1.938908352e-05
1.921753381e-05
1.900772301e-05
1.876352767e-05
1.848221113e-05
1.816348362e-05
1.78057733e-05
1.74112466e-05
1.698815653e-05
1.654215009e-05
1.607308379e-05
1.557702876e-05
1.505675949e-05
1.451468317e-05
1.395857814e-05
1.338892776e-05
1.280024556e-05
1.219743624e-05
1.15884005e-05
1.098079201e-05
1.0363909e-05
9.739154495e-06
9.134446881e-06
8.533160155e-06
7.925037138e-06
7.325591783e-06
6.755494309e-06
6.200067856e-06
5.664042459e-06
5.16321469e-06
4.65353469e-06
4.08323877e-06
5.587601962e-06
7.164575292e-06
9.115513229e-06
1.107721762e-05
)


101
(
-4.496940386e-23
3.008116546e-13
-2.844136858e-12
-5.381199746e-11
-3.556227818e-10
-1.419269431e-09
-4.097880668e-09
-9.987382528e-09
-2.101675792e-08
-3.969979457e-08
-6.895852858e-08
-1.122004135e-07
-1.726309923e-07
-2.544127258e-07
-3.613459334e-07
-4.959114903e-07
-6.596773242e-07
-8.535306372e-07
-1.075761315e-06
-1.321083102e-06
-1.584393916e-06
-1.85605787e-06
-2.123135967e-06
-2.372916718e-06
-2.591335132e-06
-2.763691694e-06
-2.875045179e-06
-2.911370517e-06
-2.860683589e-06
-2.713822786e-06
-2.464245347e-06
-2.107563943e-06
-1.641165177e-06
-1.067615197e-06
-3.895810427e-07
3.884523228e-07
1.259146938e-06
2.204249561e-06
3.191599246e-06
4.189582502e-06
5.179748506e-06
6.168658825e-06
7.180184563e-06
8.241161651e-06
9.3599013e-06
1.051757676e-05
1.167513487e-05
1.278872229e-05
1.382983049e-05
1.479274277e-05
1.568245846e-05
1.651107966e-05
1.728719422e-05
1.80089376e-05
1.867095161e-05
1.926620391e-05
1.97991843e-05
2.026572497e-05
2.066966654e-05
2.101016975e-05
2.129276652e-05
2.151166614e-05
2.166957005e-05
2.176702948e-05
2.18055885e-05
2.178714393e-05
2.170849359e-05
2.157942309e-05
2.140625255e-05
2.119442284e-05
2.094185755e-05
2.064690934e-05
2.030431308e-05
1.992223872e-05
1.950864414e-05
1.906831303e-05
1.859713246e-05
1.809395445e-05
1.755956523e-05
1.700121743e-05
1.642082796e-05
1.581928408e-05
1.519188602e-05
1.454437934e-05
1.389655716e-05
1.323927215e-05
1.255440367e-05
1.187845716e-05
1.120881099e-05
1.053007454e-05
9.842472344e-06
9.183479333e-06
8.53833367e-06
7.906491818e-06
7.303071381e-06
6.701740897e-06
6.054932135e-06
7.933964002e-06
9.859351201e-06
1.199151461e-05
1.409425816e-05
)


101
(
-4.496942071e-23
3.436989448e-13
-1.864147063e-12
-4.680947122e-11
-3.248119513e-10
-1.318248937e-09
-3.832670381e-09
-9.371420527e-09
-1.97661137e-08
-3.738900228e-08
-6.500942349e-08
-1.058479707e-07
-1.629942802e-07
-2.403160621e-07
-3.415366305e-07
-4.692550984e-07
-6.251650783e-07
-8.102958154e-07
-1.023726856e-06
-1.260849537e-06
-1.517367146e-06
-1.784902744e-06
-2.051709052e-06
-2.305886654e-06
-2.534050084e-06
-2.722153894e-06
-2.855596105e-06
-2.920194087e-06
-2.903176647e-06
-2.794336904e-06
-2.586006187e-06
-2.272577728e-06
-1.849878753e-06
-1.31866634e-06
-6.799021171e-07
6.317957521e-08
9.05918832e-07
1.836843678e-06
2.832174168e-06
3.863047696e-06
4.904127646e-06
5.947212139e-06
7.001899833e-06
8.091689269e-06
9.234974374e-06
1.043084234e-05
1.165555216e-05
1.286770127e-05
1.403032917e-05
1.512362307e-05
1.614250515e-05
1.709634388e-05
1.799705146e-05
1.884545619e-05
1.9638748e-05
2.036870552e-05
2.103792309e-05
2.164155735e-05
2.217978024e-05
2.26520189e-05
2.306451018e-05
2.341145578e-05
2.369238569e-05
2.391211175e-05
2.407188994e-05
2.416591873e-05
2.419716288e-05
2.416533881e-05
2.40803378e-05
2.395036822e-05
2.377406405e-05
2.355301179e-05
2.328023915e-05
2.295751109e-05
2.259094037e-05
2.218780321e-05
2.175377763e-05
2.128225169e-05
2.076933734e-05
2.022446503e-05
1.964606085e-05
1.904155441e-05
1.840563533e-05
1.773659508e-05
1.705205169e-05
1.636242994e-05
1.564186212e-05
1.490663647e-05
1.417412905e-05
1.344088244e-05
1.267813584e-05
1.194131552e-05
1.120274712e-05
1.04904413e-05
9.793364614e-06
9.115015394e-06
8.398631816e-06
1.053111642e-05
1.267724443e-05
1.482455111e-05
1.704070212e-05
)


101
(
-4.496943736e-23
3.778287147e-13
-9.818985533e-13
-4.032615832e-11
-2.959061904e-10
-1.222830509e-09
-3.58135534e-09
-8.786866886e-09
-1.85773545e-08
-3.519106314e-08
-6.125137568e-08
-9.980238896e-08
-1.538169559e-07
-2.268993366e-07
-3.22670326e-07
-4.438157278e-07
-5.921518296e-07
-7.688493939e-07
-9.736460738e-07
-1.202630364e-06
-1.452269708e-06
-1.715331506e-06
-1.981255829e-06
-2.23904297e-06
-2.476038196e-06
-2.678885345e-06
-2.833526956e-06
-2.925907854e-06
-2.942697628e-06
-2.87258001e-06
-2.706614525e-06
-2.438240212e-06
-2.062358301e-06
-1.577816573e-06
-9.837733414e-07
-2.820545152e-07
5.245833215e-07
1.429413829e-06
2.416069317e-06
3.46032355e-06
4.536932491e-06
5.628095417e-06
6.729638287e-06
7.855508074e-06
9.025569181e-06
1.025036047e-05
1.152246675e-05
1.281206207e-05
1.40803564e-05
1.529625778e-05
1.644585515e-05
1.752970389e-05
1.855682004e-05
1.953292377e-05
2.045845887e-05
2.13261178e-05
2.213322724e-05
2.287854593e-05
2.355624877e-05
2.416734553e-05
2.471412478e-05
2.519695703e-05
2.561041556e-05
2.596101431e-05
2.6248001e-05
2.646551914e-05
2.661707121e-05
2.669786422e-05
2.67181449e-05
2.667986159e-05
2.658861931e-05
2.644805121e-05
2.625391713e-05
2.600534275e-05
2.57013959e-05
2.53459799e-05
2.495215098e-05
2.451632686e-05
2.4039852e-05
2.351723211e-05
2.295155002e-05
2.23511935e-05
2.171471724e-05
2.103859042e-05
2.032953953e-05
1.960811929e-05
1.886236074e-05
1.808499851e-05
1.729563241e-05
1.651037531e-05
1.568573095e-05
1.488288734e-05
1.406306629e-05
1.3272048e-05
1.249960959e-05
1.175032384e-05
1.096222651e-05
1.319671724e-05
1.538755245e-05
1.733118568e-05
1.91664833e-05
)


101
(
-4.496940386e-23
4.03824464e-13
-1.923998152e-13
-3.433941602e-11
-2.688274143e-10
-1.132788673e-09
-3.34337458e-09
-8.232436789e-09
-1.744800458e-08
-3.310133931e-08
-5.767615368e-08
-9.404994692e-08
-1.45078335e-07
-2.14128761e-07
-3.047015957e-07
-4.195381455e-07
-5.60572599e-07
-7.291142943e-07
-9.254519111e-07
-1.146381575e-06
-1.38903949e-06
-1.647254275e-06
-1.911606594e-06
-2.172129904e-06
-2.416940225e-06
-2.633355373e-06
-2.808055266e-06
-2.927348859e-06
-2.977603101e-06
-2.946542163e-06
-2.823934511e-06
-2.602180106e-06
-2.275522216e-06
-1.841319746e-06
-1.296863058e-06
-6.423150884e-07
1.21099228e-07
9.897746352e-07
1.95311828e-06
2.992541149e-06
4.0857011e-06
5.211378481e-06
6.355816529e-06
7.521243342e-06
8.722080927e-06
9.972799581e-06
1.127877664e-05
1.262526648e-05
1.39783463e-05
1.530311317e-05
1.657779506e-05
1.779160482e-05
1.894582654e-05
2.004988712e-05
2.110523721e-05
2.210667888e-05
2.3051753e-05
2.393813403e-05
2.475859446e-05
2.55112127e-05
2.619671278e-05
2.681812958e-05
2.737130399e-05
2.785777335e-05
2.827358993e-05
2.862268509e-05
2.889932621e-05
2.910221705e-05
2.923380537e-05
2.929659784e-05
2.929956575e-05
2.924347576e-05
2.913056698e-05
2.89601753e-05
2.872784792e-05
2.843100158e-05
2.807639838e-05
2.768025177e-05
2.72380178e-05
2.674305275e-05
2.619947333e-05
2.560755022e-05
2.496876095e-05
2.429012537e-05
2.356621554e-05
2.2816732e-05
2.204189655e-05
2.123392284e-05
2.039373119e-05
1.955329302e-05
1.867942254e-05
1.780936155e-05
1.693226574e-05
1.606385526e-05
1.52269408e-05
1.441664364e-05
1.358905617e-05
1.573232476e-05
1.775531661e-05
1.92871671e-05
2.055934415e-05
)


101
(
-4.496940386e-23
4.222986966e-13
5.088655266e-13
-2.882714151e-11
-2.435002739e-10
-1.047908235e-09
-3.118193828e-09
-7.706910346e-09
-1.637571687e-08
-3.111549013e-08
-5.427617402e-08
-8.857789814e-08
-1.367592379e-07
-2.019737256e-07
-2.875893602e-07
-3.963740878e-07
-5.303681196e-07
-6.910166742e-07
-8.790644891e-07
-1.092013665e-06
-1.327571057e-06
-1.580567561e-06
-1.842666064e-06
-2.105015833e-06
-2.356593885e-06
-2.585373276e-06
-2.778817578e-06
-2.92377478e-06
-3.006590823e-06
-3.014371029e-06
-2.935882379e-06
-2.762306521e-06
-2.486857772e-06
-2.105972218e-06
-1.61529781e-06
-1.013109816e-06
-2.992047357e-07
5.247302915e-07
1.452092494e-06
2.469834875e-06
3.559828012e-06
4.702576864e-06
5.878544994e-06
7.080148503e-06
8.313139462e-06
9.589901993e-06
1.092236067e-05
1.23079473e-05
1.372436828e-05
1.513932006e-05
1.652508269e-05
1.78619835e-05
1.914198237e-05
2.037177196e-05
2.155372778e-05
2.268426755e-05
2.376295199e-05
2.478555772e-05
2.574651246e-05
2.664020775e-05
2.746665659e-05
2.822577338e-05
2.891878679e-05
2.954039305e-05
3.008686066e-05
3.056639665e-05
3.096840548e-05
3.129316343e-05
3.15382844e-05
3.170888603e-05
3.180942158e-05
3.183848087e-05
3.180488281e-05
3.1707049e-05
3.154277647e-05
3.130892787e-05
3.100209191e-05
3.063914929e-05
3.022157656e-05
2.975228261e-05
2.922885296e-05
2.864147671e-05
2.800150643e-05
2.731403847e-05
2.65720413e-05
2.57938663e-05
2.498440012e-05
2.414310809e-05
2.325857208e-05
2.236226742e-05
2.144583937e-05
2.050809749e-05
1.957776356e-05
1.864447533e-05
1.774218148e-05
1.688547533e-05
1.603734509e-05
1.787354761e-05
1.950545229e-05
2.049282707e-05
2.121164681e-05
)


101
(
-4.496943736e-23
4.338484947e-13
1.127065239e-12
-2.376766984e-11
-2.198508031e-10
-9.679780076e-10
-2.905288793e-09
-7.209090509e-09
-1.535816424e-08
-2.922927359e-08
-5.104414211e-08
-8.337392052e-08
-1.288411689e-07
-1.904054655e-07
-2.712955626e-07
-3.742809008e-07
-5.014894349e-07
-6.54493711e-07
-8.344124083e-07
-1.039406888e-06
-1.267731462e-06
-1.515142223e-06
-1.774369464e-06
-2.037623563e-06
-2.294885343e-06
-2.534800405e-06
-2.745550597e-06
-2.914648486e-06
-3.028712086e-06
-3.07463125e-06
-3.040501071e-06
-2.916260255e-06
-2.693722392e-06
-2.368575876e-06
-1.93531542e-06
-1.390454371e-06
-7.321929899e-07
3.927468942e-08
9.20034907e-07
1.90154165e-06
2.970498703e-06
4.110757264e-06
5.301345359e-06
6.529036488e-06
7.791050489e-06
9.093169591e-06
1.044737917e-05
1.185889245e-05
1.331938091e-05
1.4802832e-05
1.627997597e-05
1.772556812e-05
1.912382436e-05
2.047360612e-05
2.177740111e-05
2.303349807e-05
2.423896874e-05
2.539006172e-05
2.648506946e-05
2.751600515e-05
2.847712344e-05
2.937077011e-05
3.019668113e-05
3.094773514e-05
3.162295544e-05
3.222354472e-05
3.274519366e-05
3.318666056e-05
3.354277901e-05
3.38175278e-05
3.400948044e-05
3.41221371e-05