/*--------------------------------*- C++ -*----------------------------------*\
| =========                 |                                                 |
| \\      /  F ield         | OpenFOAM: The Open Source CFD Toolbox           |
|  \\    /   O peration     | Version:  2.3.1                                 |
|   \\  /    A nd           | Web:      www.OpenFOAM.org                      |
|    \\/     M anipulation  |                                                 |
\*---------------------------------------------------------------------------*/
FoamFile
{
    version     2.0;
    format      ascii;
    class       dictionary;
    location    "constant";
    object      GRPSI51;
}
// * * * * * * * * * * * * * * * * * * * * * * * * * * * * * * * * * * * * * //

GRPSI51_table
101
(

101
(
-1.75283675e-20
-1.783618359e-10
-3.979078214e-09
-3.121528148e-08
-1.510967791e-07
-5.232788637e-07
-1.399254727e-06
-3.230390642e-06
-6.424500817e-06
-1.149505048e-05
-1.883289087e-05
-2.88131341e-05
-4.134333457e-05
-5.71116316e-05
-7.518906043e-05
-9.541326266e-05
-0.000117738791
-0.0001419987255
-0.0001657017829
-0.0001924466418
-0.0002175183159
-0.0002423512504
-0.0002684459814
-0.0002932055758
-0.0003167260881
-0.0003392059796
-0.0003604295541
-0.0003801482896
-0.0003984299709
-0.0004148153778
-0.0004292584071
-0.0004415593081
-0.000451875454
-0.0004597334255
-0.0004649401297
-0.0004676519756
-0.0004679459066
-0.000466315973
-0.0004617680451
-0.0004533521177
-0.0004420000576
-0.000430150335
-0.0004141582936
-0.000395709965
-0.0003764131716
-0.0003532364999
-0.0003289353155
-0.0003009501868
-0.0002717294663
-0.0002392413771
-0.0002059459877
-0.0001704331224
-0.0001331785731
-9.462115794e-05
-5.516417069e-05
-1.466621514e-05
3.023582334e-05
7.187630403e-05
0.0001174957958
0.0001620985453
0.0002085919869
0.0002548818847
0.0003012261559
0.0003483021179
0.0003952625445
0.0004425055061
0.0004891617238
0.0005353970537
0.0005821392669
0.0006274594712
0.0006724129587
0.0007167387428
0.0007614248729
0.0008040197501
0.0008447496841
0.000883389034
0.0009226438899
0.0009601528831
0.0009954057027
0.001028744647
0.001060201762
0.001091136922
0.001119440345
0.001146233928
0.001170995308
0.001193531815
0.001213978815
0.001232578169
0.001249368693
0.001264483262
0.001277641882
0.001288904908
0.001298602052
0.001306872174
0.001313563261
0.001321333466
0.001331773212
0.001401493596
0.001471877267
0.001547786352
0.001623695423
)


101
(
-1.752836746e-20
-1.615125039e-10
-3.76159164e-09
-2.99450707e-08
-1.461391386e-07
-5.083246553e-07
-1.362522825e-06
-3.150086025e-06
-6.273743631e-06
-1.123687774e-05
-1.842898988e-05
-2.82206708e-05
-4.054229441e-05
-5.60320654e-05
-7.386796078e-05
-9.384542427e-05
-0.0001159070213
-0.000139896383
-0.0001635651382
-0.0001899072586
-0.0002150529734
-0.0002398553204
-0.0002657074971
-0.0002905381183
-0.0003141787985
-0.0003367709667
-0.0003581516741
-0.0003780908884
-0.000396609499
-0.0004133317536
-0.0004281606288
-0.0004409166206
-0.0004517004034
-0.0004601277412
-0.0004659994668
-0.0004693902175
-0.0004703739563
-0.0004693563515
-0.0004656364109
-0.0004583489661
-0.0004480355761
-0.0004366585765
-0.000421830849
-0.0004043820485
-0.000385656839
-0.0003636719525
-0.000340101531
-0.0003133596354
-0.0002849539598
-0.0002536801119
-0.0002211097501
-0.000186524786
-0.0001501471753
-0.0001123318769
-7.346035364e-05
-3.353310185e-05
9.840786488e-06
5.173727436e-05
9.625513975e-05
0.0001406378379
0.0001864226249
0.0002324115969
0.0002785559015
0.000325279446
0.0003720791453
0.0004191231864
0.0004658288528
0.0005121787673
0.0005587852855
0.0006044513847
0.0006496310552
0.0006941839498
0.0007387669568
0.0007819017756
0.0008234698256
0.0008632168295
0.0009028111618
0.0009409951267
0.0009772050119
0.001011560492
0.00104407556
0.001075619834
0.001105004429
0.00113275714
0.001158608839
0.001182393046
0.001204004193
0.001223631557
0.001241400678
0.001257474196
0.001271627546
0.001284005822
0.001294555852
0.001303642567
0.001311297372
0.001320053899
0.001331764533
0.001401484741
0.001471867502
0.00154777722
0.001623686837
)


101
(
-1.752836746e-20
-1.292942377e-10
-3.3405183e-09
-2.747177703e-08
-1.364518218e-07
-4.790339921e-07
-1.290452202e-06
-2.992329772e-06
-5.977065128e-06
-1.072827035e-05
-1.763213487e-05
-2.705046661e-05
-3.895631599e-05
-5.389638538e-05
-7.124249836e-05
-9.072500063e-05
-0.0001122595961
-0.0001357068361
-0.0001592592863
-0.0001848664681
-0.0002100610954
-0.0002348146006
-0.0002602354648
-0.0002851313911
-0.0003089853897
-0.0003317989581
-0.0003534786357
-0.0003738348466
-0.0003928160684
-0.0004101748594
-0.000425749652
-0.0004393846289
-0.000451091827
-0.000460615775
-0.0004677709462
-0.0004725036288
-0.0004748586281
-0.0004750952659
-0.0004729441305
-0.0004677535027
-0.0004595102296
-0.000449338853
-0.0004366003599
-0.0004211582445
-0.0004037895196
-0.0003839557612
-0.0003619993994
-0.0003375343689
-0.0003109009056
-0.0002818936045
-0.0002509722927
-0.0002182150402
-0.0001836185155
-0.0001473787551
-0.00010980333
-7.107564882e-05
-3.023891543e-05
1.137232232e-05
5.41444568e-05
9.777321149e-05
0.0001423002976
0.0001875181026
0.0002331276967
0.0002791754147
0.0003255515413
0.0003721811553
0.0004188323899
0.0004653028395
0.000511741103
0.0005578555344
0.00060347287
0.0006485136268
0.0006931609796
0.0007371144352
0.000780010997
0.000821585878
0.0008621683866
0.0009016888655
0.0009396958626
0.0009759991186
0.001010545941
0.001043580237
0.001074984365
0.001104684302
0.001132637821
0.001158773093
0.001182823107
0.001204677703
0.001224497146
0.001242584347
0.00125876753
0.001273318449
0.001285897632
0.001296774475
0.001306438168
0.001317397614
0.001331753759
0.001401472356
0.001471852945
0.001547765804
0.001623678533
)


101
(
-1.752836746e-20
-9.997001294e-11
-2.946760185e-09
-2.513075042e-08
-1.272144949e-07
-4.50964796e-07
-1.221141739e-06
-2.84023365e-06
-5.690010714e-06
-1.023507194e-05
-1.685715297e-05
-2.590973452e-05
-3.740291837e-05
-5.180739242e-05
-6.865224889e-05
-8.763610478e-05
-0.0001086450241
-0.0001315485848
-0.0001548979858
-0.0001798878127
-0.0002049674908
-0.0002296747014
-0.0002547590141
-0.0002795994731
-0.0003036037779
-0.0003266238313
-0.0003485740579
-0.0003693024348
-0.0003887201558
-0.0004066489036
-0.0004229153151
-0.000437367903
-0.00044996753
-0.0004605129654
-0.000468861661
-0.0004748920491
-0.0004785967594
-0.0004801308514
-0.0004794211054
-0.0004760520321
-0.0004698064853
-0.0004612191896
-0.0004502790521
-0.0004367990452
-0.0004210951849
-0.0004031286677
-0.0003829616203
-0.0003604961495
-0.0003357908563
-0.0003088381293
-0.0002798084399
-0.0002488779333
-0.0002161020505
-0.0001815796079
-0.0001455184522
-0.0001081343057
-6.913655379e-05
-2.879711553e-05
1.267369088e-05
5.517228286e-05
9.859328498e-05
0.0001428306729
0.0001876797
0.0002330340184
0.0002788273697
0.0003249763458
0.0003713391506
0.0004177274229
0.0004640867324
0.0005103201554
0.0005562618512
0.0006017652489
0.0006468104871
0.0006913207377
0.000735087664
0.0007778967514
0.0008197107378
0.0008605310517
0.0009001309192
0.0009382557796
0.0009747246315
0.001009573637
0.001042864478
0.001074540329
0.001104540309
0.001132838762
0.00115930507
0.001183683972
0.001205801841
0.001226075991
0.001244438229
0.001261180986
0.001276168163
0.00128917479
0.001301003877
0.001314559147
0.001331751195
0.001401472504
0.001471855853
0.001547768295
0.001623680349
)


101
(
-1.75283691e-20
-7.340771934e-11
-2.579353234e-09
-2.291802498e-08
-1.184153161e-07
-4.240890594e-07
-1.15453852e-06
-2.693705184e-06
-5.412482116e-06
-9.757148597e-06
-1.61039975e-05
-2.479851124e-05
-3.588284318e-05
-4.976476084e-05
-6.610049535e-05
-8.45810392e-05
-0.0001050647673
-0.0001274237832
-0.0001504992004
-0.0001749486905
-0.0001998066778
-0.0002244372687
-0.0002492533693
-0.0002739709874
-0.0002980544654
-0.0003212502572
-0.0003434438659
-0.0003645048598
-0.000384327743
-0.0004027720659
-0.0004196735183
-0.0004348836871
-0.0004483329961
-0.0004598378333
-0.0004692977418
-0.000476564739
-0.0004815843864
-0.000484430124
-0.0004851017994
-0.0004833641597
-0.0004789747105
-0.0004721182586
-0.0004629237603
-0.0004513166542
-0.0004374004465
-0.0004212482947
-0.0004028969941
-0.0003823360093
-0.0003595610566
-0.0003345904594
-0.0003075007264
-0.0002784412402
-0.0002475072947
-0.0002147756638
-0.0001803784849
-0.0001445001983
-0.0001071310616
-6.829639865e-05
-2.819710276e-05
1.305564227e-05
5.532633416e-05
9.851196826e-05
0.0001424580518
0.0001870256392
0.0002321303475
0.0002776972873
0.0003236270678
0.000369766478
0.0004159896367
0.0004622078977
0.0005083029417
0.0005541342591
0.0005996070631
0.000644656604
0.0006891472713
0.0007329066419
0.0007758093062
0.0008178401083
0.000858865648
0.0008986868542
0.0009370358957
0.0009737712132
0.001008970557
0.001042622444
0.001074692465
0.0011051405
0.001133880835
0.001160797965
0.001185515592
0.001208167432
0.001228889952
0.001248004399
0.001265444534
0.001280977296
0.00129517126
0.001311552052
0.001331748655
0.001401480337
0.001471873579
0.001547779613
0.001623686293
)


101
(
-1.75283675e-20
-4.947725355e-11
-2.237340521e-09
-2.082964829e-08
-1.100424294e-07
-3.983785615e-07
-1.090588055e-06
-2.552648588e-06
-5.144372185e-06
-9.294359293e-06
-1.537260044e-05
-2.371680509e-05
-3.439673566e-05
-4.776827537e-05
-6.358999907e-05
-8.156226406e-05
-0.0001015204583
-0.0001233344404
-0.0001460780248
-0.0001700345883
-0.0001946013669
-0.0002191105754
-0.0002437005868
-0.0002682605667
-0.0002923580993
-0.0003156876262
-0.0003380942671
-0.0003594515954
-0.00037964604
-0.0003985586408
-0.0004160402603
-0.0004319491482
-0.0004461988348
-0.0004586059838
-0.000469102406
-0.0004775375939
-0.0004838238323
-0.000487972213
-0.000489992803
-0.0004897635895
-0.0004870870711
-0.0004819723111
-0.0004745183767
-0.0004647253678
-0.0004526249051
-0.0004382882285
-0.0004217580524
-0.0004030626668
-0.000382194698
-0.0003591705509
-0.0003340223905
-0.0003068590724
-0.0002777833063
-0.0002468744093
-0.0002142256305
-0.0001799785793
-0.0001442260157
-0.0001069622659
-6.833461689e-05
-2.843341364e-05
1.26025497e-05
5.466428606e-05
9.761527379e-05
0.0001413091853
0.000185639392
0.0002305284697
0.0002759062264
0.0003216583581
0.0003676468984
0.000413761037
0.0004598885867
0.0005059110569
0.0005517192201
0.0005972444069
0.000642377956
0.0006869662886
0.0007308431981
0.0007739743253
0.0008162756506
0.0008576154076
0.000897752207
0.0009364039722
0.0009735486463
0.001009194385
0.001043337977
0.001075960792
0.001106984937
0.001136334829
0.001163767932
0.001189026166
0.001212277247
0.001233942032
0.00125392523
0.001272247501
0.001289043262
0.001308380914
0.001331749635
0.001401479247
0.001471870575
0.001547779832
0.001623689848
)


101
(
-1.752836746e-20
-2.804997268e-11
-1.919775186e-09
-1.886170186e-08
-1.020840742e-07
-3.738052696e-07
-1.029236042e-06
-2.416967888e-06
-4.885570354e-06
-8.8465612e-06
-1.466288056e-05
-2.266462256e-05
-3.294516255e-05
-4.581782426e-05
-6.112315122e-05
-7.858231189e-05
-9.801393222e-05
-0.0001192824806
-0.0001416474317
-0.0001651371272
-0.0001893666218
-0.0002137061067
-0.0002380896262
-0.0002624749805
-0.0002865327686
-0.0003099487845
-0.0003325332358
-0.0003541515581
-0.0003746833254
-0.0003940213168
-0.0004120313226
-0.0004285815594
-0.0004435786418
-0.0004568328785
-0.0004682972296
-0.0004778291078
-0.0004853239192
-0.000490747004
-0.0004940901588
-0.0004952896113
-0.0004942068405
-0.0004907809018
-0.0004850475664
-0.0004770280075
-0.0004667337712
-0.0004542127992
-0.0004395043771
-0.0004226549194
-0.0004036706842
-0.0003825690834
-0.0003593578669
-0.0003341058282
-0.000306902368
-0.0002778311155
-0.0002469711665
-0.000214430324
-0.0001803313389
-0.0001446842494
-0.0001076031309
-6.915019589e-05
-2.944716881e-05
1.140232236e-05
5.327262122e-05
9.601459202e-05
0.0001395007395
0.0001836351543
0.0002283602773
0.0002735997551
0.0003192380517
0.0003651567507
0.000411225363
0.0004573329284
0.0005033685689
0.0005492674985
0.0005949427404
0.0006402641291
0.0006850412551
0.0007291981908
0.0007726653499
0.000815368851
0.000857130168
0.0008976550709
0.0009367791327
0.000974462955
0.001010711162
0.001045525378
0.001078837922
0.001110633511
0.001140710686
0.001168784824
0.001194707378
0.00121908026
0.001241804333
0.001263017646
0.001282649866
0.001305059309
0.001331770261
0.001401487091
0.001471867391
0.001547780031
0.001623690167
)


101
(
-1.752836746e-20
-8.999195603e-12
-1.625719686e-09
-1.701028519e-08
-9.452848475e-08
-3.503410026e-07
-9.70427524e-07
-2.286565127e-06
-4.635958491e-06
-8.41359938e-06
-1.397473178e-05
-2.164192996e-05
-3.1528621e-05
-4.39133731e-05
-5.870207168e-05
-7.564381718e-05
-9.454723114e-05
-0.0001152699219
-0.0001372184249
-0.0001602527482
-0.0001841129643
-0.0002082358135
-0.0002324153321
-0.0002566168024
-0.0002805926965
-0.000304047685
-0.0003267705385
-0.0003486135495
-0.0003694479541
-0.0003891713546
-0.0004076615996
-0.0004247981251
-0.0004404877773
-0.0004545341433
-0.0004669027171
-0.0004774607142
-0.0004860990552
-0.0004927534533
-0.0004973884622
-0.0004999606855
-0.0005003789301
-0.0004985676993
-0.0004945122672
-0.000488225282
-0.0004797110567
-0.0004689958103
-0.0004561055426
-0.0004410887986
-0.0004239651065
-0.0004047599389
-0.0003834758108
-0.000360148165
-0.0003348365324
-0.0003076181498
-0.0002785698516
-0.0002477791163
-0.0002153688591
-0.0001813720251
-0.0001458884794
-0.0001089609832
-7.068568381e-05
-3.114602742e-05
9.547279804e-06
5.125380906e-05
9.382913024e-05
0.000137150541
0.0001811467526
0.0002257660353
0.0002709322541
0.0003165489296
0.0003624732952
0.0004085808306
0.0004547519851
0.0005009210006
0.000547023474
0.0005929629315
0.0006385552311
0.000683676591
0.0007282432193
0.0007722115415
0.0008154611948
0.0008577355148
0.0008988108057
0.0009385504652
0.000976941652
0.001013994876
0.001049602543
0.00108386856
0.001116552575
0.001147530501
0.001176265519
0.001203464152
0.001229121698
0.001253322361
0.001276025716
0.00130164326
0.001331781675
0.001401500726
0.001471884118
0.001547799541
0.001623717353
)


101
(
-1.752837073e-20
7.799748134e-12
-1.354245579e-09
-1.527153952e-08
-8.736392764e-08
-3.279573561e-07
-9.141064367e-07
-2.16133996e-06
-4.395412725e-06
-7.995311187e-06
-1.330803465e-05
-2.064867417e-05
-3.014754684e-05
-4.205492624e-05
-5.632855782e-05
-7.274939944e-05
-9.112255751e-05
-0.0001112988487
-0.0001328003873
-0.0001553808929
-0.0001788482843
-0.0002027115584
-0.0002266770384
-0.0002506868043
-0.0002745485457
-0.0002979981838
-0.0003208177901
-0.0003428474809
-0.0003639488222
-0.0003840192865
-0.0004029447673
-0.000420615428
-0.0004369429535
-0.0004517262447
-0.0004649385567
-0.0004764548881
-0.0004861684556
-0.0004939992841
-0.0004998864926
-0.0005037850225
-0.0005056322361
-0.0005053607258
-0.0005029264528
-0.0004983244471
-0.0004915518461
-0.0004826193077
-0.0004715368333
-0.0004583427174
-0.0004430609527
-0.0004257244295
-0.0004063428709
-0.0003849380616
-0.000361540222
-0.0003362001266
-0.0003089869126
-0.0002799797768
-0.0002492907836
-0.0002169662537
-0.0001831108259
-0.0001477605367
-0.0001109884066
-7.285386792e-05
-3.344320588e-05
7.127607609e-06
4.871436196e-05
9.116958186e-05
0.000134386012
0.0001783090028
0.0002228921409
0.0002680851956
0.0003137644685
0.00035979022
0.0004060224425
0.00045237826
0.0004988032769
0.0005452379535
0.0005915389761
0.0006375575607
0.0006831675509
0.0007283251592
0.0007729713322
0.0008168860167
0.0008598314841
0.0009015925334
0.0009421270876
0.0009814626996
0.001019423489
0.001056167602
0.001091504234
0.001125359141
0.001157078709
0.00118719049
0.001215915005
0.001243238344
0.001269190458
0.001298156542
0.001331778424
0.00140151009
0.001471905931
0.001547823518
0.00162375728
)


101
(
-1.752837073e-20
2.246965222e-11
-1.104435412e-09
-1.364165304e-08
-8.057876257e-08
-3.066256952e-07
-8.602150171e-07
-2.041187249e-06
-4.163800692e-06
-7.591523562e-06
-1.266264316e-05
-1.968476413e-05
-2.880229335e-05
-4.024252827e-05
-5.400414078e-05
-6.990155832e-05
-8.774221343e-05
-0.0001073713361
-0.0001284014811
-0.0001505232085
-0.0001735789275
-0.0001971443291
-0.0002208773069
-0.0002446857954
-0.0002684082624
-0.000291813031
-0.0003146873306
-0.0003368639938
-0.0003581953637
-0.0003785752574
-0.0003978934744
-0.0004160490246
-0.0004329606981
-0.0004484259433
-0.0004624234759
-0.0004748336592
-0.0004855541321
-0.0004944990103
-0.000501588886
-0.0005067675613
-0.0005099840999
-0.0005111835213
-0.0005103087368
-0.0005073384136
-0.0005022610576
-0.0004950763265
-0.0004857809148
-0.0004743956837
-0.0004609408625
-0.000445451429
-0.0004279441542
-0.0004084410655
-0.000386959278
-0.0003635232788
-0.0003381762157
-0.0003109858272
-0.0002820522936
-0.00025142693
-0.0002192223384
-0.0001854797417
-0.0001502616223
-0.0001136086153
-7.558071954e-05
-3.625860425e-05
4.237619615e-06
4.575723734e-05
8.815082977e-05
0.0001313305194
0.0001752514285
0.000219904831
0.0002652170365
0.0003110638331
0.0003572830738
0.0004037605593
0.0004504296358
0.0004972563499
0.0005441443569
0.0005909672072
0.0006375679796
0.0006838534962
0.0007298027458
0.0007752747879
0.0008200166889
0.000863759105
0.0009063946136
0.0009480210676
0.0009884090163
0.001027626039
0.00106566022
0.001102395684
0.001137242741
0.001170362754
0.001202218576
0.001232833151
0.001262158947
0.001294587857
0.001331794877
0.001401531166
0.001471930888
0.001547791524
0.001623718507
)


101
(
-1.752715567e-20
3.513137134e-11
-8.75381361e-10
-1.211683574e-08
-7.416139592e-08
-2.863173517e-07
-8.086948846e-07
-1.925999655e-06
-3.940983997e-06
-7.202057082e-06
-1.203839335e-05
-1.87500882e-05
-2.749314029e-05
-3.847629397e-05
-5.173020942e-05
-6.710271694e-05
-8.440864417e-05
-0.0001034896706
-0.000124028618
-0.0001456830957
-0.0001683107579
-0.0001915441717
-0.0002150210444
-0.000238615268
-0.0002621775511
-0.0002855032731
-0.0003083916526
-0.0003306745425
-0.0003521976258
-0.0003728493943
-0.0003925197925
-0.0004111138762
-0.0004285580286
-0.0004446505617
-0.000459376091
-0.0004726184483
-0.0004842794218
-0.0004942725374
-0.0005025075735
-0.000508915817
-0.0005134471217
-0.0005160553856
-0.0005166778228
-0.0005152830156
-0.0005118498395
-0.0005063686532
-0.0004988289717
-0.0004892340244
-0.0004775901932
-0.0004639294874
-0.0004482723608
-0.0004306452172
-0.000411062194
-0.0003895353357
-0.0003660826362
-0.0003407460019
-0.0003136092508
-0.0002847173745
-0.0002541894104
-0.0002220780512
-0.0001884461981
-0.0001533269506
-0.000116760981
-7.879613348e-05
-3.95126403e-05
9.660192119e-07
4.247518225e-05
8.487468476e-05
0.0001280893345
0.0001721205899
0.0002169446511
0.0002624897194
0.0003086014914
0.000355136182
0.0004019939101
0.0004491378808
0.0004964995959
0.0005440021409
0.0005915195319
0.0006388938354
0.0006860645393
0.0007329959519
0.0007794752649
0.000825176341
0.0008698851739
0.0009137467697
0.0009566119805
0.0009983488269
0.001039051166
0.00107872527
0.001116757835
0.001153020842
0.00118807709
0.001222118856
0.001254946069
0.001290953977
0.001331824986
0.001401530443
0.001471890388
0.001547494397
0.001623215121
)


101
(
-1.752290712e-20
4.590370201e-11
-6.661874888e-10
-1.069333079e-08
-6.810027564e-08
-2.670037111e-07
-7.594876353e-07
-1.81566972e-06
-3.726821795e-06
-6.826729358e-06
-1.143511556e-05
-1.78445301e-05
-2.622032564e-05
-3.675634449e-05
-4.950800482e-05
-6.435525203e-05
-8.112448218e-05
-9.965626554e-05
-0.0001196881556
-0.0001408647842
-0.0001630495102
-0.0001859211147
-0.0002091152053
-0.0002324782874
-0.0002558610985
-0.0002790782506
-0.0003019429558
-0.0003242914565
-0.0003459667093
-0.0003668523155
-0.0003868357271
-0.0004058244845
-0.0004237517161
-0.0004404182171
-0.000455815421
-0.0004698303531
-0.0004823680175
-0.000493343383
-0.00050266087
-0.0005102424699
-0.0005160339756
-0.0005199928398
-0.000522052149
-0.000522175668
-0.0005203337375
-0.0005165065853
-0.000510680401
-0.0005028472522
-0.0004929981378
-0.0004811511094
-0.0004673244506
-0.0004515482846
-0.0004338407943
-0.0004142103676
-0.0003926607897
-0.0003692091949
-0.000343912422
-0.0003167989852
-0.0002879833142
-0.0002575295853
-0.0002255100408
-0.0001919593072
-0.000156910394
-0.0001203901598
-8.24383913e-05
-4.313347462e-05
-2.613486673e-06
3.89491885e-05
8.142606994e-05
0.0001247861634
0.0001690288999
0.0002141434421
0.0002600274727
0.0003065324599
0.0003535230925
0.0004009277558
0.0004486864349
0.0004967503241
0.0005450597998
0.0005934604316
0.0006418098676
0.0006900942405
0.000738221871
0.0007858617428
0.0008326707536
0.0008786938643
0.0009240153376
0.0009683637547
0.001011726999
0.001054350666
0.001095608965
0.001135153388
0.001173508887
0.001211067982
0.00124754541
0.00128724198
0.001331839523
0.001401394946
0.001471573334
0.001546417862
0.001621507967
)


101
(
-1.751986719e-20
5.490329403e-11
-4.759683813e-10
-9.36740091e-09
-6.238382192e-08
-2.486557474e-07
-7.125327665e-07
-1.710084558e-06
-3.521163972e-06
-6.465341273e-06
-1.085260702e-05
-1.696791648e-05
-2.49840056e-05
-3.508273854e-05
-4.733851484e-05
-6.166135987e-05
-7.789231904e-05
-9.587352173e-05
-0.0001153856226
-0.0001360730482
-0.0001578007592
-0.0001802839988
-0.0002031675702
-0.0002262792519
-0.0002494631614
-0.0002725453418
-0.0002953520439
-0.0003177268878
-0.0003395141583
-0.0003605946541
-0.0003808523595
-0.0004001943276
-0.0004185580048
-0.0004357468988
-0.000451760274
-0.0004664895071
-0.0004798424338
-0.0004917356297
-0.0005020708567
-0.0005107649439
-0.0005177592339
-0.000523011249
-0.0005264493209
-0.0005280336366
-0.0005277293191
-0.0005255058555
-0.0005213453309
-0.0005152344801
-0.0005071545234
-0.0004971056697
-0.0004850967898
-0.0004711534308
-0.0004552978361
-0.0004375435489
-0.0004178896975
-0.0003963362396
-0.0003729141039
-0.0003476299705
-0.0003205748699
-0.0002918168898
-0.0002614410579
-0.0002294864902
-0.0001959904315
-0.0001609746773
-0.0001244544858
-8.645580437e-05
-4.706616141e-05
-6.444708931e-06
3.523810473e-05
7.789072028e-05
0.0001214939078
0.0001660699771
0.0002115859775
0.0002579350707
0.000304974968
0.0003525916429
0.0004006956323
0.0004492345167
0.0004982035118
0.0005475182048
0.0005970020062
0.0006465616932
0.0006962087085
0.0007457187813
0.0007946575209
0.0008428394446
0.0008905287251
0.0009375358645
0.0009836551264
0.001029166414
0.001073702575
0.00111664813
0.001158429601
0.001199581571
0.001239859822
0.001283343624
0.001331746971
0.001400824639
0.001470434963
0.001543522759
0.001616807125
)


101
(
-1.751987376e-20
6.224478004e-11
-3.038481572e-10
-8.135346522e-09
-5.700055513e-08
-2.312446785e-07
-6.67770019e-07
-1.609130597e-06
-3.32385662e-06
-6.117689804e-06
-1.029065696e-05
-1.612006737e-05
-2.378428449e-05
-3.345556163e-05
-4.522264982e-05
-5.902314246e-05
-7.471480612e-05
-9.214416234e-05
-0.0001111259396
-0.0001313129745
-0.0001525703524
-0.0001746414941
-0.0001971869163
-0.0002200241882
-0.0002429888349
-0.0002659117574
-0.0002886293214
-0.0003109932164
-0.0003328523545
-0.0003540878683
-0.0003745809349
-0.0003942360709
-0.0004129921754
-0.0004306545475
-0.000447230175
-0.0004626163744
-0.0004767246904
-0.0004894733383
-0.0005007623394
-0.0005105053898
-0.0005186418445
-0.0005251284109
-0.0005298876192
-0.0005328755805
-0.000534054153
-0.0005333839583
-0.0005308406263
-0.0005264065163
-0.0005200598057
-0.0005117860945
-0.0005015803023
-0.0004894589619
-0.000475440744
-0.0004595420016
-0.0004417695747
-0.0004221138637
-0.0004005865135
-0.0003771723538
-0.0003519319757
-0.000324922693
-0.0002962332574
-0.0002659115243
-0.0002339997167
-0.0002005282343
-0.0001655087312
-0.0001289283847
-9.081834541e-05
-5.128537527e-05
-1.050403035e-05
3.138315237e-05
7.429927954e-05
0.0001182588596
0.0001632734084
0.0002093072046
0.0002562623525
0.0003040129163
0.0003524123881
0.0004013661686
0.0004508833913
0.0005009676061
0.000551497213
0.0006022881452
0.0006533322011
0.0007045660208
0.000755603381
0.0008059998034
0.0008559738328
0.000905593669
0.0009545631499
0.001002944411
0.001050757119
0.001097214542
0.001142541506
0.001187382465
0.001231602904
0.001278954198
0.001331266885
0.001399168837
0.001467411164
0.001537159302
0.001606100847
)


101
(
-1.751988024e-20
6.80405711e-11
-1.489613477e-10
-6.993500744e-09
-5.193899416e-08
-2.14741477e-07
-6.251385944e-07
-1.512691665e-06
-3.134735368e-06
-5.783556639e-06
-9.749033348e-06
-1.530076135e-05
-2.26211897e-05
-3.187485151e-05
-4.316118624e-05
-5.6442472e-05
-7.159457997e-05
-8.847086474e-05
-0.0001069138002
-0.000126589473
-0.000147363927
-0.0001690018738
-0.000191182255
-0.0002137201435
-0.0002364437668
-0.0002591842082
-0.0002817841024
-0.00030410216
-0.0003259938143
-0.0003473438021
-0.0003680326878
-0.000387961787
-0.0004070684199
-0.0004251580304
-0.0004422444288
-0.0004582314898
-0.0004730363529
-0.0004865796879
-0.0004987601492
-0.0005094884996
-0.0005187042874
-0.0005263644163
-0.0005323859364
-0.0005367208168
-0.0005393271264
-0.0005401587372
-0.0005391851851
-0.0005363808932
-0.0005317245432
-0.0005251947398
-0.0005167731154
-0.0005064609831
-0.0004942710401
-0.0004802164242
-0.0004643088469
-0.0004465451294
-0.0004269218313
-0.0004054062102
-0.0003820302125
-0.0003568275667
-0.0003298780388
-0.00030124102
-0.0002709590873
-0.0002390717818
-0.0002055977683
-0.0001705169512
-0.000133816783
-9.553810047e-05
-5.581552275e-05
-1.480178933e-05
2.736105164e-05
7.06401056e-05
0.0001150481093
0.0001606003889
0.0002072815747
0.0002550170048
0.0003036331746
0.0003529492588
0.0004029179772
0.0004536154236
0.0005050371251
0.0005569883853
0.0006093474638
0.0006621243325
0.0007151177122
0.0007677579897
0.0008199897924
0.00087211406
0.0009239476709
0.0009752420994
0.001026295019
0.001076335316
0.00112526089
0.00117387963
0.001222163723
0.001273441011
0.001329729866
0.001395264204
0.001460780541
0.001525015021
0.001589852891
)


101
(
-1.751986719e-20
7.24006819e-11
-1.045458785e-11
-5.938228303e-09
-4.71877345e-08
-1.991170826e-07
-5.845770344e-07
-1.420648974e-06
-2.953627708e-06
-5.462710146e-06
-9.227482318e-06
-1.450973814e-05
-2.149467981e-05
-3.034059368e-05
-4.115472009e-05
-5.392101321e-05
-6.853416886e-05
-8.485638979e-05
-0.0001027533832
-0.0001219075119
-0.0001421870815
-0.0001633728149
-0.0001851627128
-0.0002073750111
-0.0002298341191
-0.0002523690248
-0.0002748247693
-0.0002970649764
-0.0003189514295
-0.0003403750609
-0.000361218991
-0.0003813826492
-0.0004008000059
-0.0004192733115
-0.0004368216673
-0.0004533554191
-0.0004687990115
-0.0004830774466
-0.0004960884974
-0.0005077398829
-0.0005179714584
-0.0005267423024
-0.0005339655615
-0.0005395896206
-0.0005435682401
-0.0005458489625
-0.0005463974841
-0.0005451786492
-0.0005421674629
-0.0005373421501
-0.0005306786616
-0.0005221614084
-0.0005117899383
-0.0004995732607
-0.0004855211277
-0.0004696377415
-0.0004519217999
-0.0004323276556
-0.0004108576528
-0.0003875191115
-0.0003623738123
-0.0003354837163
-0.0003068942108
-0.0002766467343
-0.000244765353
-0.0002112470121
-0.0001760578012
-0.0001391856189
-0.0001007002831
-6.072505537e-05
-1.943163875e-05
2.308815583e-05
6.680424567e-05
0.0001117342397
0.0001579293758
0.0002054216333
0.0002540937014
0.0003036783479
0.0003540246371
0.0004051815017
0.000457268117
0.0005102154098
0.0005638067396
0.0006179610585
0.0006726837416
0.0007274787509
0.0007819654005
0.0008364493987
0.0008910724347
0.0009453006899
0.0009994799
0.001053145307
0.001105661186
0.001158083086
0.001210490561
0.001265705245
0.001325918962
0.001387376481
0.001448239663
0.001504283944
0.001560678773
)


101
(
-1.751986719e-20
7.54334752e-11
1.12448186e-10
-4.96594187e-09
-4.273560385e-08
-1.843432675e-07
-5.460254309e-07
-1.332886766e-06
-2.780361578e-06
-5.154921201e-06
-8.725760107e-06
-1.374676302e-05
-2.040471463e-05
-2.885282037e-05
-3.920383048e-05
-5.146050638e-05
-6.553618834e-05
-8.130387767e-05
-9.864905789e-05
-0.0001172722961
-0.0001370457439
-0.0001577625925
-0.0001791382194
-0.0002009984939
-0.0002231677223
-0.0002454732869
-0.0002677597403
-0.0002898927858
-0.0003117388554
-0.0003331960332
-0.0003541532279
-0.000374510708
-0.0003941994538
-0.0004130159814
-0.0004309807373
-0.0004480099756
-0.0004640362628
-0.000478990788
-0.0004927724259
-0.0005052863068
-0.000516471209
-0.0005262893624
-0.0005346519196
-0.0005415054777
-0.0005468002252
-0.0005504768098
-0.0005524976284
-0.0005528201912
-0.0005514124791
-0.0005482501791
-0.0005433098516
-0.0005365663394
-0.0005280029648
-0.0005176190477
-0.0005054198395
-0.0004914110859
-0.0004755991709
-0.000457938647
-0.0004384110281
-0.0004169947172
-0.0003937251234
-0.0003686527852
-0.0003418310904
-0.0003132961242
-0.0002830766965
-0.0002511865589
-0.0002175909465
-0.0001822544375
-0.0001451820182
-0.0001064479762
-6.620123387e-05
-2.456575529e-05
1.836223229e-05
6.256002882e-05
0.0001080836619
0.0001550579259
0.0002035007645
0.0002531749832
0.0003037975052
0.000355277906
0.0004077803272
0.0004614522809
0.0005160909261
0.0005714643943
0.000627643273
0.0006843550798
0.0007410431712
0.000797721723
0.0008549360179
0.0009120336706
0.000969141704
0.001026357124
0.001082444155
0.001138569881
0.001195053438
0.001254115419
0.001318075101
0.001373246138
0.001427093637
0.001472303693
0.001515012417
)


101
(
-1.751988024e-20
7.7244839e-11
2.206415105e-10
-4.073088344e-09
-3.857144068e-08
-1.703915689e-07
-5.094226547e-07
-1.249285714e-06
-2.614748559e-06
-4.85992796e-06
-8.243586851e-06
-1.301155014e-05
-1.935117065e-05
-2.741146234e-05
-3.730888272e-05
-4.906235219e-05
-6.260306511e-05
-7.781625701e-05
-9.460496755e-05
-0.0001126888244
-0.0001319455069
-0.000152178515
-0.000173118249
-0.0001946005776
-0.0002164532494
-0.0002385040604
-0.0002605964557
-0.0002825952943
-0.0003043688274
-0.0003258212001
-0.0003468495022
-0.0003673586807
-0.0003872785886
-0.0004063993772
-0.0004247384971
-0.0004422152703
-0.0004587702886
-0.0004743428834
-0.0004888358859
-0.0005021528603
-0.0005142305639
-0.0005250334397
-0.000534472104
-0.000542493703
-0.0005490464439
-0.0005540644318
-0.0005575064342
-0.0005593244205
-0.0005594804753
-0.0005579422925
-0.0005546877452
-0.0005496893323
-0.0005429186913
-0.0005343613071
-0.0005240140315
-0.0005118820511