/*--------------------------------*- C++ -*----------------------------------*\
| =========                 |                                                 |
| \\      /  F ield         | OpenFOAM: The Open Source CFD Toolbox           |
|  \\    /   O peration     | Version:  2.3.1                                 |
|   \\  /    A nd           | Web:      www.OpenFOAM.org                      |
|    \\/     M anipulation  |                                                 |
\*---------------------------------------------------------------------------*/
FoamFile
{
    version     2.0;
    format      ascii;
    class       dictionary;
    location    "constant";
    object      GRPSI34;
}
// * * * * * * * * * * * * * * * * * * * * * * * * * * * * * * * * * * * * * //

GRPSI34_table
101
(

101
(
-5.49726005e-10
-2.6130723e-07
-8.945750834e-07
-1.562515902e-06
-2.086011567e-06
-2.436142275e-06
-2.598401355e-06
-2.563154586e-06
-2.329093033e-06
-1.955674642e-06
-1.403181303e-06
-7.414936294e-07
4.581829016e-09
8.510795793e-07
1.705198523e-06
2.517000654e-06
3.247908444e-06
3.840928389e-06
4.238147312e-06
4.447791548e-06
4.486989039e-06
4.394611175e-06
4.137730761e-06
3.819662349e-06
3.471009828e-06
3.104442346e-06
2.739740812e-06
2.395829267e-06
2.070717907e-06
1.783677001e-06
1.531136224e-06
1.318071647e-06
1.146476363e-06
9.427899364e-07
7.920576654e-07
6.545856255e-07
3.659209846e-07
6.693900251e-08
2.344292898e-07
2.306285338e-07
1.979707322e-07
1.733738634e-07
1.486153409e-07
1.295045208e-07
1.159453159e-07
1.026357754e-07
9.236240835e-08
8.184962804e-08
7.332710362e-08
6.507752121e-08
5.82583046e-08
5.211192779e-08
4.665947192e-08
4.142313014e-08
3.656427972e-08
3.242869779e-08
2.829925324e-08
2.517561753e-08
2.206484362e-08
1.944956901e-08
1.69400851e-08
1.479808221e-08
1.29116789e-08
1.115293538e-08
9.442483085e-09
8.056752698e-09
6.824708153e-09
5.726498436e-09
4.740702576e-09
3.906732367e-09
3.182504574e-09
2.57582548e-09
2.056019169e-09
1.607985144e-09
1.076948835e-09
7.623222624e-10
6.34186982e-10
4.989347055e-10
3.817349232e-10
2.865437749e-10
2.102880913e-10
1.482396502e-10
1.028611141e-10
6.096592856e-11
3.823737333e-11
2.726556292e-11
1.851467447e-11
1.182317142e-11
7.240814018e-12
3.718001627e-12
2.259635379e-12
1.37220253e-12
7.457193227e-13
3.678340611e-13
1.821860461e-13
7.808577073e-14
1.398691198e-14
1.973818628e-14
3.039589252e-14
6.889050004e-14
1.42227015e-13
)


101
(
-5.497260038e-10
-2.604304626e-07
-8.906088706e-07
-1.552230845e-06
-2.063685902e-06
-2.392629419e-06
-2.522907071e-06
-2.443975659e-06
-2.154085997e-06
-1.71164059e-06
-1.082221156e-06
-3.347163721e-07
5.00507293e-07
1.433950037e-06
2.374762188e-06
3.267462837e-06
4.069635075e-06
4.72389818e-06
5.169320744e-06
5.414186018e-06
5.468275646e-06
5.372491106e-06
5.108376543e-06
4.761300237e-06
4.371055844e-06
3.956712424e-06
3.538910487e-06
3.137710165e-06
2.756185193e-06
2.410870392e-06
2.102447401e-06
1.835774099e-06
1.612710602e-06
1.378118371e-06
1.183376026e-06
1.009523043e-06
7.411285281e-07
4.4541876e-07
4.94043332e-07
4.744490414e-07
4.26033568e-07
3.782287084e-07
3.327834633e-07
2.939243954e-07
2.617567583e-07
2.328013822e-07
2.081810453e-07
1.853218415e-07
1.653013537e-07
1.469010447e-07
1.306811141e-07
1.161617223e-07
1.033126087e-07
9.17447938e-08
8.117200443e-08
7.168715145e-08
6.280045999e-08
5.52002848e-08
4.826843511e-08
4.217696396e-08
3.669126184e-08
3.186097063e-08
2.757687211e-08
2.375700485e-08
2.029201512e-08
1.728390815e-08
1.462853814e-08
1.229880486e-08
1.027052139e-08
8.505415655e-09
6.979128457e-09
5.672494419e-09
4.580416534e-09
3.655241801e-09
2.777778932e-09
2.110982434e-09
1.652080493e-09
1.276566157e-09
9.750821679e-10
7.341255072e-10
5.439187062e-10
3.938251327e-10
2.807460703e-10
1.903428148e-10
1.276650587e-10
8.609639208e-11
5.792952649e-11
3.838754228e-11
2.448133015e-11
1.49036499e-11
9.0678281e-12
5.362728067e-12
3.209953333e-12
1.802576731e-12
1.01231692e-12
5.259638762e-13
1.594838932e-13
2.955635656e-13
5.376598057e-13
1.311186347e-12
2.416170583e-12
)


101
(
-5.497260038e-10
-2.586853447e-07
-8.827802093e-07
-1.532091712e-06
-2.020222587e-06
-2.308215074e-06
-2.376790191e-06
-2.213815134e-06
-1.816656266e-06
-1.241804976e-06
-4.645303769e-07
4.478499596e-07
1.454899797e-06
2.556697028e-06
3.666083074e-06
4.718188963e-06
5.663447583e-06
6.442980796e-06
6.990035574e-06
7.312277182e-06
7.406483354e-06
7.31485715e-06
7.043561415e-06
6.650258438e-06
6.186488609e-06
5.684341741e-06
5.167320564e-06
4.657390092e-06
4.166646253e-06
3.708453054e-06
3.289742426e-06
2.916984722e-06
2.591809119e-06
2.289120866e-06
2.012882256e-06
1.752549185e-06
1.494505617e-06
1.197229434e-06
1.061702755e-06
9.854391562e-07
9.000133589e-07
8.100665585e-07
7.244369461e-07
6.464639264e-07
5.775302472e-07
5.169160536e-07
4.634529803e-07
4.156520519e-07
3.724592724e-07
3.3337037e-07
2.978464203e-07
2.65849695e-07
2.372763835e-07
2.118083004e-07
1.887733608e-07
1.679277167e-07
1.487050077e-07
1.313874655e-07
1.158469517e-07
1.018512063e-07
8.939756106e-08
7.829478071e-08
6.836987455e-08
5.9536566e-08
5.162048531e-08
4.449636496e-08
3.816596633e-08
3.253826462e-08
2.765867697e-08
2.336725106e-08
1.958155066e-08
1.625958723e-08
1.342073189e-08
1.099668291e-08
8.894640731e-09
7.101333262e-09
5.614952607e-09
4.40003548e-09
3.419531316e-09
2.634784118e-09
2.008110469e-09
1.503377788e-09
1.10959234e-09
8.037807386e-10
5.694916572e-10
3.947606894e-10
2.688382416e-10
1.83661338e-10
1.232940099e-10
7.977524156e-11
5.027523315e-11
3.131322988e-11
1.968041473e-11
1.195531026e-11
7.20729497e-12
4.054263069e-12
1.362733237e-12
3.509742363e-12
7.782360179e-12
2.553309799e-11
5.808749183e-11
)


101
(
-5.497260038e-10
-2.569562677e-07
-8.751558948e-07
-1.512802124e-06
-1.979095399e-06
-2.228919425e-06
-2.240175055e-06
-1.999543006e-06
-1.503475671e-06
-8.06893829e-07
1.071029986e-07
1.17188122e-06
2.339325585e-06
3.599803803e-06
4.86984636e-06
6.078399029e-06
7.169119845e-06
8.081231506e-06
8.743127335e-06
9.158762096e-06
9.315059291e-06
9.25157478e-06
8.991723824e-06
8.577003746e-06
8.062180348e-06
7.489814052e-06
6.888569867e-06
6.283071839e-06
5.691990053e-06
5.128992561e-06
4.603459216e-06
4.126260118e-06
3.698940149e-06
3.317119463e-06
2.968100613e-06
2.644566647e-06
2.322905525e-06
1.998750851e-06
1.757569423e-06
1.592920264e-06
1.454965145e-06
1.323235739e-06
1.197756166e-06
1.080745192e-06
9.742953339e-07
8.794795246e-07
7.948635961e-07
7.194475769e-07
6.510177162e-07
5.890487852e-07
5.321319594e-07
4.801114271e-07
4.329543143e-07
3.905626941e-07
3.521640933e-07
3.170551604e-07
2.850350631e-07
2.55600316e-07
2.28836721e-07
2.041836419e-07
1.819146126e-07
1.619091079e-07
1.438094007e-07
1.275405953e-07
1.128133556e-07
9.923131162e-08
8.689372492e-08
7.57485902e-08
6.582955837e-08
5.704896095e-08
4.905093045e-08
4.188321126e-08
3.55153606e-08
2.99572583e-08
2.507957082e-08
2.080433227e-08
1.704169587e-08
1.382602596e-08
1.110214414e-08
8.841328373e-09
6.985679015e-09
5.435904691e-09
4.170266375e-09
3.158957712e-09
2.349840386e-09
1.709054446e-09
1.212645695e-09
8.51872804e-10
5.971348678e-10
4.086442138e-10
2.685833776e-10
1.734136302e-10
1.104378462e-10
7.007427893e-11
4.439710238e-11
2.619295973e-11
1.069291051e-11
3.804766268e-11
9.508803774e-11
3.554817458e-10
7.018228039e-10
)


101
(
-5.49726055e-10
-2.552419842e-07
-8.677295912e-07
-1.494337634e-06
-1.940226129e-06
-2.154538634e-06
-2.112596857e-06
-1.800126945e-06
-1.212652558e-06
-4.036873963e-07
6.376740004e-07
1.84492446e-06
3.164149205e-06
4.577062971e-06
6.003570668e-06
7.369003751e-06
8.611010946e-06
9.666514566e-06
1.046003269e-05
1.098916173e-05
1.123235091e-05
1.122427995e-05
1.100014546e-05
1.059101046e-05
1.005120844e-05
9.430207952e-06
8.762523388e-06
8.076740499e-06
7.396707826e-06
6.738284751e-06
6.113765927e-06
5.532710906e-06
5.00188356e-06
4.531471145e-06
4.103973701e-06
3.724668184e-06
3.326290141e-06
2.949489092e-06
2.628917851e-06
2.374831033e-06
2.168509763e-06
1.98497182e-06
1.815204085e-06
1.656823545e-06
1.509823778e-06
1.376092818e-06
1.255332802e-06
1.147502226e-06
1.050020303e-06
9.612974616e-07
8.792879845e-07
8.031829172e-07
7.330525741e-07
6.693478109e-07
6.11459121e-07
5.578829186e-07
5.087324519e-07
4.63158994e-07
4.214350124e-07
3.82319136e-07
3.460215851e-07
3.131642564e-07
2.828702364e-07
2.553576014e-07
2.303671339e-07
2.070704652e-07
1.853476796e-07
1.652309769e-07
1.466588295e-07
1.30184381e-07
1.149041123e-07
1.008541512e-07
8.790697921e-08
7.624202278e-08
6.57514418e-08
5.63620793e-08
4.793716331e-08
4.038590647e-08
3.360353878e-08
2.77347379e-08
2.272996372e-08
1.850459163e-08
1.481817245e-08
1.174764438e-08
9.184283278e-09
7.060682497e-09
5.287296046e-09
3.898632333e-09
2.847898669e-09
2.064297117e-09
1.440010153e-09
9.796572756e-10
6.610047478e-10
4.323473945e-10
2.852015959e-10
1.747096116e-10
8.260862763e-11
3.41134137e-10
9.290696079e-10
3.896039254e-09
7.787481359e-09
)


101
(
-5.497260051e-10
-2.535412191e-07
-8.60494721e-07
-1.4766744e-06
-1.903540691e-06
-2.084881126e-06
-1.99363351e-06
-1.614662073e-06
-9.425438182e-07
-2.946020275e-08
1.131271466e-06
2.473214524e-06
3.937577151e-06
5.499409055e-06
7.081013859e-06
8.605935468e-06
1.000782821e-05
1.12200412e-05
1.216350067e-05
1.282915532e-05
1.318656045e-05
1.326351382e-05
1.310304134e-05
1.272903685e-05
1.219229713e-05
1.154782159e-05
1.083535483e-05
1.00870066e-05
9.331641049e-06
8.588502937e-06
7.873957161e-06
7.195120877e-06
6.562173327e-06
5.996581478e-06
5.481118353e-06
5.015949061e-06
4.562043459e-06
4.122853039e-06
3.725804419e-06
3.388443123e-06
3.105231534e-06
2.857772801e-06
2.634940628e-06
2.429540865e-06
2.237654561e-06
2.060144512e-06
1.897413592e-06
1.751510825e-06
1.620009756e-06
1.499901801e-06
1.388845795e-06
1.284518719e-06
1.18683464e-06
1.096641586e-06
1.014528326e-06
9.381476369e-07
8.668592113e-07
8.003111753e-07
7.385474172e-07
6.803714624e-07
6.257742122e-07
5.75411528e-07
5.283592701e-07
4.846034163e-07
4.445465307e-07
4.073194656e-07
3.720393202e-07
3.386196701e-07
3.06889604e-07
2.777079969e-07
2.508253493e-07
2.257770575e-07
2.021767646e-07
1.800834675e-07
1.595625434e-07
1.407096977e-07
1.236370311e-07
1.078055903e-07
9.303376687e-08
7.95865937e-08
6.758705994e-08
5.724480821e-08
4.790798625e-08
3.96598378e-08
3.256303635e-08
2.637721165e-08
2.096748253e-08
1.633519372e-08
1.263158998e-08
9.706662304e-09
7.255939801e-09
5.252181787e-09
3.810836143e-09
2.685240612e-09
1.885742475e-09
1.212609754e-09
6.399329714e-10
3.219467227e-09
8.222563223e-09
2.877427272e-08
5.373224982e-08
)


101
(
-5.497260038e-10
-2.51852488e-07
-8.534452095e-07
-1.459789989e-06
-1.868950875e-06
-2.019682285e-06
-1.882677558e-06
-1.442045819e-06
-6.916509799e-07
3.179733926e-07
1.591072091e-06
3.061068111e-06
4.665407247e-06
6.373812053e-06
8.110836022e-06
9.79903604e-06
1.136988792e-05
1.275311993e-05
1.386597778e-05
1.469277759e-05
1.519349816e-05
1.538700813e-05
1.532071359e-05
1.501358932e-05
1.451032731e-05
1.387015581e-05
1.313828097e-05
1.234940977e-05
1.153645914e-05
1.07225143e-05
9.927587735e-06
9.162164485e-06
8.43338202e-06
7.771755191e-06
7.165719973e-06
6.614285766e-06
6.091151912e-06
5.586027243e-06
5.114995331e-06
4.695296844e-06
4.330412046e-06
4.008340156e-06
3.722114833e-06
3.461659004e-06
3.21936882e-06
2.993907596e-06
2.784029078e-06
2.593183231e-06
2.420814447e-06
2.263667749e-06
2.118895364e-06
1.982181394e-06
1.853227152e-06
1.732350539e-06
1.620759175e-06
1.516845323e-06
1.419637817e-06
1.327627299e-06
1.241026381e-06
1.158586435e-06
1.080529425e-06
1.007371999e-06
9.384949369e-07
8.737206263e-07
8.133057259e-07
7.571280233e-07
7.035203485e-07
6.524754582e-07
6.030604553e-07
5.558860138e-07
5.120243946e-07
4.705289057e-07
4.311605009e-07
3.933426056e-07
3.572780648e-07
3.22993153e-07
2.913300898e-07
2.616672734e-07
2.335765393e-07
2.067613354e-07
1.815336587e-07
1.587423013e-07
1.3824327e-07
1.190145125e-07
1.019119505e-07
8.645984373e-08
7.243860521e-08
5.954919271e-08
4.869477468e-08
3.945782556e-08
3.154308824e-08
2.439870643e-08
1.896595858e-08
1.448564498e-08
1.089786759e-08
7.799946981e-09
4.694922031e-09
2.095161009e-08
4.921012244e-08
1.473079497e-07
2.641661347e-07
)


101
(
-5.497260038e-10
-2.501744364e-07
-8.465746544e-07
-1.443662569e-06
-1.836367235e-06
-1.95864408e-06
-1.77896932e-06
-1.280848206e-06
-4.583574684e-07
6.408469411e-07
2.020223216e-06
3.612889023e-06
5.353451324e-06
7.20723884e-06
9.101263469e-06
1.09575596e-05
1.270648943e-05
1.427516479e-05
1.557722208e-05
1.659054355e-05
1.726514559e-05
1.760864132e-05
1.766841944e-05
1.746203181e-05
1.702558664e-05
1.642027299e-05
1.569763852e-05
1.489495249e-05
1.404744895e-05
1.318140408e-05
1.232113984e-05
1.148149092e-05
1.066794118e-05
9.915387092e-06
9.218449289e-06
8.57995321e-06
7.980215597e-06
7.404407465e-06
6.860666765e-06
6.360013559e-06
5.911178012e-06
5.508908184e-06
5.149914508e-06
4.824714254e-06
4.524545403e-06
4.246294839e-06
3.985479057e-06
3.744726127e-06
3.525858454e-06
3.32601709e-06
3.141091775e-06
2.967775724e-06
2.80440869e-06
2.648519021e-06
2.50309579e-06
2.368039864e-06
2.240899067e-06
2.119594367e-06
2.005150438e-06
1.895142179e-06
1.789513028e-06
1.689266789e-06
1.593012605e-06
1.50238023e-06
1.416873016e-06
1.337360458e-06
1.262013656e-06
1.189353699e-06
1.118164426e-06
1.047682788e-06
9.808730783e-07
9.166865607e-07
8.56635115e-07
7.984645941e-07
7.411636158e-07
6.852004148e-07
6.317908853e-07
5.811462951e-07
5.327749211e-07
4.852091329e-07
4.392864057e-07
3.953926846e-07
3.556905935e-07
3.170917917e-07
2.812885916e-07
2.473577333e-07
2.167463762e-07
1.867073628e-07
1.6003057e-07
1.361371889e-07
1.145043163e-07
9.426713222e-08
7.777023027e-08
6.357610277e-08
5.097101174e-08
4.014120191e-08
2.727826035e-08
9.855091015e-08
2.119851364e-07
5.458495805e-07
9.667718224e-07
)


101
(
-5.497261062e-10
-2.485058526e-07
-8.398766825e-07
-1.428263586e-06
-1.805716082e-06
-1.901580503e-06
-1.682036357e-06
-1.130059982e-06
-2.413430589e-07
9.409607425e-07
2.421095215e-06
4.132102759e-06
6.006066492e-06
8.005042473e-06
1.00583751e-05
1.208832596e-05
1.402479535e-05
1.579328823e-05
1.730428421e-05
1.852989154e-05
1.941015438e-05
1.993940353e-05
2.015923566e-05
2.009059971e-05
1.975925734e-05
1.922469744e-05
1.854380645e-05
1.775713433e-05
1.690160899e-05
1.60056112e-05
1.509757205e-05
1.419807237e-05
1.331380123e-05
1.24810146e-05
1.169599504e-05
1.097032987e-05
1.029181092e-05
9.644381333e-06
9.030657085e-06
8.453012261e-06
7.920165164e-06
7.433192373e-06
6.994467004e-06
6.59629366e-06
6.230890044e-06
5.894566512e-06
5.579643648e-06
5.287262766e-06
5.017860931e-06
4.770192905e-06
4.540965691e-06
4.328879558e-06
4.129017249e-06
3.936972877e-06
3.7555682e-06
3.584964538e-06
3.425304981e-06
3.271044333e-06
3.126666164e-06
2.988442128e-06
2.853759537e-06
2.725087261e-06
2.599523757e-06
2.479680756e-06
2.365441566e-06
2.257985649e-06
2.157557089e-06
2.059999042e-06
1.964442265e-06
1.868952916e-06
1.776043407e-06
1.685744407e-06
1.599028014e-06
1.51561808e-06
1.433262552e-06
1.351578984e-06
1.270148685e-06
1.19139677e-06
1.116316921e-06
1.040809877e-06
9.653695552e-07
8.923668847e-07
8.230936766e-07
7.56854502e-07
6.90670776e-07
6.259359096e-07
5.677143022e-07
5.08525667e-07
4.527194233e-07
4.007791531e-07
3.511432245e-07
3.043867035e-07
2.629821913e-07
2.264942735e-07
1.913118229e-07
1.593147722e-07
1.212358625e-07
3.560160093e-07
7.008425567e-07
1.546947286e-06
2.688320647e-06
)


101
(
-5.497261062e-10
-2.468450495e-07
-8.333432342e-07
-1.413552237e-06
-1.77689037e-06
-1.8483135e-06
-1.591635491e-06
-9.892423164e-07
-3.936386528e-08
1.220264834e-06
2.795862262e-06
4.621085335e-06
6.625937043e-06
8.770221037e-06
1.098556459e-05
1.319504642e-05
1.532850653e-05
1.731103615e-05
1.905038874e-05
2.051386456e-05
2.16322056e-05
2.238604296e-05
2.280572479e-05
2.291484602e-05
2.273208634e-05
2.23106279e-05
2.170883405e-05
2.097095263e-05
2.013654727e-05
1.923614859e-05
1.830086557e-05
1.735649357e-05
1.641484656e-05
1.551667305e-05
1.465264999e-05
1.384440935e-05
1.309046014e-05
1.237536283e-05
1.169516959e-05
1.104602018e-05
1.043294701e-05
9.859306051e-06
9.338247016e-06
8.863393703e-06
8.428795555e-06
8.031617184e-06
7.660204776e-06
7.313787862e-06
6.990027724e-06
6.69153244e-06
6.416692323e-06
6.164816092e-06
5.928966366e-06
5.703644441e-06
5.48461201e-06
5.277896933e-06
5.086426026e-06
4.900609478e-06
4.726529872e-06
4.561440252e-06
4.399302175e-06
4.242390163e-06
4.09047948e-06
3.942425407e-06
3.798430833e-06
3.659533725e-06
3.532263572e-06
3.410051614e-06
3.292502698e-06
3.174572431e-06
3.056598381e-06
2.939513702e-06
2.825253246e-06
2.714980585e-06
2.607037412e-06
2.497580074e-06
2.386252686e-06
2.276739278e-06
2.16991481e-06
2.062510103e-06
1.951945518e-06
1.843630234e-06
1.735842954e-06
1.633817856e-06
1.52815595e-06
1.418985131e-06
1.318512602e-06
1.217283507e-06
1.116403306e-06
1.021242965e-06
9.239396158e-07
8.316957238e-07
7.457172039e-07
6.670337573e-07
5.892542585e-07
5.116836351e-07
4.169244012e-07
1.037366022e-06
1.881782776e-06
3.581111766e-06
5.542937725e-06
)


101
(
-5.497252634e-10
-2.451905497e-07
-8.269670724e-07
-1.399498281e-06
-1.749798037e-06
-1.798672433e-06
-1.507535125e-06
-8.580490767e-07
1.487083039e-07
1.480783037e-06
3.146637964e-06
5.082010305e-06
7.215251087e-06
9.505009279e-06
1.188524999e-05
1.428027891e-05
1.661978646e-05
1.882991709e-05
2.081666854e-05
2.254336411e-05
2.393218764e-05
2.495145128e-05
2.56174897e-05
2.594741988e-05
2.59611745e-05
2.570055025e-05
2.521980608e-05
2.456748803e-05
2.378774663e-05
2.291371626e-05
2.197789388e-05
2.100892995e-05
2.002496256e-05
1.907922994e-05
1.815279114e-05
1.727250851e-05
1.644824492e-05
1.566928411e-05
1.492683789e-05
1.421367576e-05
1.353043419e-05
1.287758471e-05
1.227660165e-05
1.172632437e-05
1.122263633e-05
1.076433381e-05
1.033576679e-05
9.933619747e-06
9.555475165e-06
9.206784638e-06
8.88566582e-06
8.592571677e-06
8.322352447e-06
8.065994328e-06
7.814103309e-06
7.58078493e-06
7.359150538e-06
7.147295524e-06
6.945459006e-06
6.758520957e-06
6.576707897e-06
6.397827523e-06
6.224620647e-06
6.053623964e-06
5.887303818e-06
5.723692794e-06
5.569590523e-06
5.42735643e-06
5.293229832e-06
5.159573423e-06
5.024896039e-06
4.887637473e-06
4.752006742e-06
4.618984736e-06
4.488585376e-06
4.355461039e-06
4.2202695e-06
4.085440098e-06
3.945810432e-06
3.80714571e-06
3.664495684e-06
3.518265698e-06
3.3703598e-06
3.226785898e-06
3.077226627e-06
2.914426302e-06
2.75727886e-06
2.604527621e-06
2.446721159e-06
2.288585263e-06
2.123824473e-06
1.966368512e-06
1.811926493e-06
1.665645173e-06
1.521656092e-06
1.370337478e-06
1.18482456e-06
2.49473124e-06
4.1954414e-06
7.150413024e-06
1.04484452e-05
)


101
(
-5.497230149e-10
-2.435411659e-07
-8.207413241e-07
-1.386082444e-06
-1.724393358e-06
-1.752564536e-06
-1.429575146e-06
-7.361255789e-07
3.237689043e-07
1.723904363e-06
3.474871696e-06
5.516693279e-06
7.776002014e-06
1.021144671e-05
1.275961507e-05
1.534628928e-05
1.790097744e-05
2.035164795e-05
2.260456188e-05
2.461993788e-05
2.63101084e-05
2.763404575e-05
2.859305359e-05
2.918852337e-05
2.944511595e-05
2.939427172e-05
2.908342324e-05
2.856251159e-05
2.788042301e-05
2.707212675e-05
2.617152984e-05
2.520967405e-05
2.420933173e-05
2.323816504e-05
2.227037874e-05
2.133416491e-05
2.044750906e-05
1.960782847e-05
1.88088533e-05
1.804457283e-05
1.730625069e-05
1.658829803e-05
1.591482436e-05
1.529326359e-05
1.472198317e-05
1.42032052e-05
1.372123052e-05
1.326949609e-05
1.284303254e-05
1.244910293e-05
1.20847507e-05
1.175287548e-05
1.1451696e-05
1.11702703e-05
1.089964627e-05
1.064663805e-05
1.040480404e-05
1.017248821e-05
9.951959694e-06
9.750515871e-06
9.560837573e-06
9.374383319e-06
9.193071453e-06
9.012779685e-06
8.835871704e-06
8.666144662e-06
8.497778782e-06
8.343359419e-06
8.202599985e-06
8.065000345e-06
7.930084378e-06
7.791607483e-06
7.646682514e-06
7.50145297e-06
7.358441127e-06
7.216746621e-06
7.07137669e-06
6.921247801e-06
6.764458016e-06
6.602230674e-06
6.432681836e-06
6.254976604e-06
6.072061989e-06
5.884751077e-06
5.695243127e-06
5.483488162e-06
5.25853083e-06
5.043453374e-06
4.820201222e-06
4.58384859e-06
4.335877172e-06
4.096550689e-06
3.853206073e-06
3.610495595e-06
3.375465692e-06
3.123352985e-06
2.822527862e-06
5.204619804e-06
8.148433709e-06
1.261642385e-05
1.748813472e-05
)


101
(
-5.49721407e-10
-2.418951665e-07
-8.146574066e-07
-1.373283981e-06
-1.700629164e-06
-1.70990819e-06
-1.357708872e-06
-6.233161121e-07
4.869312493e-07
1.951245836e-06
3.781604884e-06
5.926511703e-06
8.309692339e-06
1.089051433e-05
1.360933489e-05
1.639372334e-05
1.917401874e-05
2.187940634e-05
2.441715713e-05
2.674585505e-05
2.876437305e-05
3.042686955e-05
3.17207178e-05
3.262913975e-05
3.317636768e-05
3.338618014e-05
3.330065918e-05
3.296674869e-05
3.243595561e-05
3.174270496e-05
3.092219296e-05
3.000944023e-05
2.903123372e-05
2.806546483e-05
2.708211319e-05
2.61107295e-05
2.517480279e-05
2.428194564e-05
2.343521832e-05
2.263524896e-05
2.186124757e-05
2.1098028e-05
2.036738453e-05
1.968273747e-05
1.904738097e-05
1.847053348e-05
1.794148373e-05
1.745134855e-05
1.698940924e-05
1.656347368e-05
1.616425079e-05
1.580045499e-05
1.547837588e-05
1.518395975e-05
1.490777465e-05
1.46432814e-05
1.440258082e-05
1.416569164e-05
1.394637137e-05
1.374381154e-05
1.356399396e-05
1.338840191e-05
1.321890378e-05
1.305298947e-05
1.289115974e-05
1.273508803e-05
1.257769331e-05
1.243144338e-05
1.229685962e-05
1.217637397e-05
1.206221174e-05
1.194973783e-05
1.182223033e-05
1.16873223e-05
1.154907919e-05
1.141251128e-05
1.127611571e-05
1.113512773e-05
1.097926011e-05
1.081218673e-05
1.062708846e-05
1.043256414e-05
1.022149395e-05
9.993854865e-06
9.768932115e-06
9.519661064e-06
9.226107129e-06
8.935818934e-06
8.637194418e-06
8.321369288e-06
7.974918872e-06
7.636373242e-06
7.282904863e-06
6.927809973e-06
6.573600641e-06
6.199938277e-06
5.769071207e-06
9.566405994e-06
1.403247984e-05
1.998132248e-05
2.624404727e-05
)


101
(
-5.49721613e-10
-2.402510387e-07
-8.087092438e-07
-1.361086663e-06
-1.678467642e-06
-1.670615462e-06
-1.291846099e-06
-5.194976903e-07
6.390333136e-07
2.164390256e-06
4.067880926e-06
6.312656412e-06
8.817647957e-06
1.154296655e-05
1.443468605e-05
1.742253745e-05
2.043956266e-05
2.341546686e-05
2.625677723e-05
2.892388113e-05
3.129553324e-05
3.332623261e-05
3.499284369e-05
3.626376598e-05
3.715700824e-05
3.768545565e-05
3.788480017e-05
3.779652203e-05
3.747380106e-05
3.695107819e-05
3.626452718e-05
3.54508557e-05
3.453927517e-05
3.361827357e-05
3.265321974e-05
3.167586787e-05
3.071371449e-05
2.97850503e-05
2.890668236e-05
2.8086509e-05
2.729892599e-05
2.651737709e-05
2.575635831e-05
2.502678705e-05
2.433832535e-05
2.371127502e-05
2.314215802e-05
2.262368127e-05
2.214247959e-05
2.170057443e-05
2.128269444e-05
2.090248746e-05
2.057597813e-05
2.028519356e-05
2.002207281e-05
1.97749799e-05
1.955832382e-05
1.934889232e-05
1.915125831e-05
1.897195993e-05
1.882615858e-05
1.869030147e-05
1.855675519e-05
1.843610388e-05
1.83271503e-05
1.821143836e-05
1.810065628e-05
1.798876272e-05
1.789327275e-05
1.781587929e-05
1.774591825e-05
1.768638612e-05
1.761370433e-05
1.752609588e-05
1.742151281e-05
1.730508151e-05
1.719836319e-05
1.708607257e-05
1.695338401e-05
1.680503875e-05
1.661866503e-05
1.641419282e-05
1.618765707e-05
1.592969337e-05
1.565341518e-05
1.536382944e-05
1.501875148e-05
1.463644705e-05
1.424962738e-05
1.385000889e-05
1.33833753e-05
1.293331012e-05
1.242995765e-05
1.194528777e-05
1.144932154e-05
1.093766442e-05
1.033830564e-05
1.565054074e-05
2.162854825e-05
2.885388209e-05
3.680227857e-05
)


101
(
-5.497218165e-10
-2.386071047e-07
-8.028907369e-07
-1.349472962e-06
-1.657881584e-06
-1.634626365e-06
-1.231811305e-06
-4.244700618e-07
7.804709102e-07
2.364397221e-06
4.335551948e-06
6.67595106e-06
9.3011046e-06
1.217046591e-05
1.523743228e-05
1.843413519e-05
2.16969714e-05
2.495730281e-05
2.811872595e-05
3.114390397e-05
3.389464209e-05
3.63259218e-05
3.840805207e-05
4.00918855e-05
4.138927653e-05
4.23011441e-05
4.285036605e-05
4.3069202e-05
4.301261227e-05
4.271944977e-05
4.222976892e-05
4.157611148e-05
4.078164409e-05
3.995205738e-05
3.904802454e-05
3.810489019e-05
3.715165695e-05
3.621494054e-05
3.532770065e-05
3.450602357e-05
3.37301275e-05
3.296042958e-05
3.22029003e-05
3.146031466e-05
3.074463218e-05
3.008535966e-05
2.948777284e-05
2.895543124e-05
2.847078187e-05
2.802958058e-05
2.762126679e-05
2.725257783e-05
2.694029097e-05
2.667720503e-05
2.645609778e-05
2.626222631e-05
2.610025823e-05
2.595675701e-05
2.581568313e-05
2.569319496e-05
2.560263724e-05
2.554298183e-05
2.548656994e-05
2.545422358e-05
2.543407919e-05
2.540280236e-05
2.537587651e-05
2.53422517e-05
2.533068385e-05
2.532453814e-05
2.532727139e-05
2.534677883e-05
2.535862289e-05
2.536091188e-05
2.533229729e-05
2.526072847e-05
2.518744121e-05
2.510390556e-05
2.502077564e-05
2.489933816e-05
2.472527197e-05
2.451317131e-05
2.426060255e-05
2.397442445e-05
2.364228142e-05
2.327784894e-05
2.286648579e-05
2.237861333e-05
2.186147758e-05
2.134463269e-05
2.072396947e-05
2.012591112e-05
1.944682174e-05
1.878253431e-05
1.812190813e-05
1.742768365e-05
1.660008874e-05
2.334079086e-05
3.059144118e-05
3.877780798e-05
4.668386775e-05
)


101
(
-5.49721407e-10
-2.369614242e-07
-7.971947882e-07
-1.338426698e-06
-1.638836629e-06
-1.601876952e-06
-1.17743773e-06
-3.380717996e-07
9.115600385e-07
2.552160426e-06
4.586792526e-06
7.01692564e-06
9.760790637e-06
1.277472283e-05
1.601965057e-05
1.943064059e-05
2.294566731e-05
2.649985457e-05
2.999430342e-05
3.338754516e-05
3.654470681e-05
3.941282416e-05
4.196101766e-05
4.411103849e-05
4.587164294e-05
4.723617053e-05
4.820563229e-05
4.879962532e-05
4.907546866e-05
4.907741112e-05
4.885003706e-05
4.842254193e-05
4.780709781e-05
4.71251974e-05
4.633528251e-05
4.547879166e-05
4.45830011e-05
4.367683752e-05
4.28097424e-05
4.201231354e-05
4.127115278e-05
4.054330513e-05
3.983021466e-05
3.911802075e-05
3.841264097e-05
3.775117433e-05
3.715107153e-05
3.663097135e-05
3.616282348e-05
3.574855238e-05
3.538490981e-05
3.506486489e-05
3.479411477e-05
3.459175718e-05
3.44423865e-05
3.432774253e-05
3.426420806e-05
3.423115207e-05
3.419917375e-05
3.417559185e-05
3.418198544e-05
3.423491236e-05
3.431127593e-05
3.441829119e-05
3.452065667e-05
3.4639367e-05
3.474239577e-05
3.483544456e-05
3.493744529e-05
3.503719899e-05
3.515290844e-05
3.527417349e-05
3.539511189e-05
3.551159533e-05
3.559328347e-05
3.560451045e-05
3.555325095e-05
3.550464472e-05
3.544525634e-05
3.534499343e-05
3.519450674e-05
3.496317629e-05
3.464134462e-05
3.429384351e-05
3.387840335e-05
3.339872863e-05
3.285224483e-05
3.222661949e-05
3.150568487e-05
3.07937585e-05
2.997639479e-05
2.913799877e-05
2.825130468e-05
2.733080337e-05
2.644253297e-05
2.550977408e-05
2.44268811e-05
3.234210353e-05
4.053137918e-05
4.959459039e-05
5.794175497e-05
)


101
(
-5.49721407e-10
-2.353131933e-07
-7.915624922e-07
-1.327938327e-06
-1.621300857e-06
-1.572272823e-06
-1.12855749e-06
-2.601558465e-07
1.032141262e-06
2.728014345e-06
4.823318348e-06
7.336625881e-06
1.019729977e-05
1.335666911e-05
1.67820619e-05
2.041271724e-05
2.4185489e-05
2.804090361e-05
3.188063504e-05
3.564783631e-05
3.923834217e-05
4.257917095e-05
4.564215936e-05
4.831278567e-05
5.059346587e-05
5.247815287e-05
5.394374404e-05
5.499219171e-05
5.568108542e-05
5.605618921e-05
5.615953e-05
5.602320357e-05
5.565787112e-05
5.519038812e-05
5.457915113e-05
5.387507591e-05
5.310104059e-05
5.227916744e-05
5.14688693e-05
5.072257099e-05
5.004012685e-05
4.938763214e-05
4.876088231e-05
4.812875446e-05
4.74835512e-05
4.686536762e-05
4.630233188e-05
4.582629741e-05
4.541145019e-05
4.506441723e-05
4.478177295e-05
4.455353364e-05
4.437107057e-05
4.426732848e-05
4.423125293e-05
4.423542372e-05
4.431413857e-05
4.443489984e-05
4.457407071e-05
4.471112123e-05
4.487458469e-05
4.508172716e-05
4.534448377e-05
4.563801003e-05
4.592105353e-05
4.624288234e-05
4.652645939e-05
4.679249524e-05
4.70456188e-05
4.730611669e-05
4.756682986e-05
4.780566073e-05
4.804953638e-05
4.827869995e-05
4.846847756e-05
4.858932565e-05
4.860352875e-05
4.8554336e-05
4.846594077e-05
4.835505881e-05
4.819871627e-05
4.789753597e-05
4.747591259e-05
4.698530603e-05
4.6407143e-05
4.574191992e-05
4.495730703e-05
4.410570331e-05
4.30933185e-05
4.207304016e-05
4.098795448e-05
3.978740061e-05
3.858485144e-05
3.732430264e-05
3.608624134e-05
3.483645694e-05
3.342123242e-05
4.228488541e-05
5.123661122e-05
6.157981666e-05
7.205855106e-05
)


101
(
-5.497218165e-10
-2.336611923e-07
-7.860411478e-07
-1.31799377e-06
-1.605240129e-06
-1.545720849e-06
-1.085002018e-06
-1.90536381e-07
1.14137444e-06
2.890746148e-06
5.046541306e-06
7.636927496e-06
1.061194169e-05
1.391632388e-05
1.752218925e-05
2.137493726e-05
2.540991654e-05
2.957398809e-05
3.377379459e-05
3.79343625e-05
4.19835219e-05
4.583008969e-05
4.944274083e-05
5.268689546e-05
5.554258935e-05
5.801139619e-05
6.005249641e-05
6.164341406e-05
6.283665607e-05
6.367356961e-05
6.418641202e-05
6.441252962e-05
6.437406995e-05
6.419713706e-05
6.383767548e-05
6.335894238e-05
6.278137418e-05
6.211336333e-05
6.141427454e-05
6.075845534e-05
6.016757398e-05
5.962111093e-05
5.911955335e-05
5.862283932e-05
5.810345075e-05
5.75910913e-05
5.711285029e-05
5.671924107e-05
5.641385671e-05
5.618840028e-05
5.60340638e-05
5.594567986e-05
5.59075263e-05
5.594753568e-05
5.607552929e-05
5.627046619e-05
5.654647391e-05
5.686960312e-05
5.724981051e-05
5.76356879e-05
5.80069913e-05
5.843396649e-05
5.892458983e-05
5.944696266e-05
5.998012842e-05
6.053477088e-05
6.105613967e-05
6.154988492e-05
6.200853489e-05
6.246829938e-05
6.287700008e-05
6.326382741e-05
6.363752471e-05
6.396869615e-05
6.425223861e-05
6.44740937e-05
6.455145055e-05
6.446923021e-05
6.43178306e-05
6.412078446e-05
6.385872311e-05
6.343053944e-05
6.284913571e-05
6.212413095e-05
6.125435054e-05
6.031424759e-05
5.917762217e-05
5.795786418e-05
5.654006126e-05
5.507496535e-05
5.357582734e-05
5.190167376e-05
5.021395936e-05
4.848535474e-05
4.677070736e-05
4.508956785e-05
4.321527151e-05
5.313528365e-05
6.311184453e-05