/*--------------------------------*- C++ -*----------------------------------*\
| =========                 |                                                 |
| \\      /  F ield         | OpenFOAM: The Open Source CFD Toolbox           |
|  \\    /   O peration     | Version:  2.3.1                                 |
|   \\  /    A nd           | Web:      www.OpenFOAM.org                      |
|    \\/     M anipulation  |                                                 |
\*---------------------------------------------------------------------------*/
FoamFile
{
    version     2.0;
    format      ascii;
    class       dictionary;
    location    "constant";
    object      GRPSI24;
}
// * * * * * * * * * * * * * * * * * * * * * * * * * * * * * * * * * * * * * //

GRPSI24_table
101
(

101
(
1.633586882e-05
0.0001016700708
0.0003615174955
0.0007285459126
0.001082730591
0.001365305873
0.001577200644
0.001722586462
0.001804213941
0.001836282633
0.001827789947
0.001787506977
0.001720187064
0.001631474868
0.00152850802
0.001413512691
0.00128730454
0.001161022183
0.00102866587
0.0008946988991
0.0007722171699
0.0006467253026
0.000523506684
0.0004119026116
0.0003085177381
0.000212699751
0.0001254122901
4.573973632e-05
-2.613762643e-05
-8.975961916e-05
-0.0001456657641
-0.0001924272191
-0.0002382036034
-0.0002796656732
-0.000311706816
-0.0003415242618
-0.0003676634952
-0.0003878637538
-0.0004058358643
-0.0004231711547
-0.0004364883262
-0.0004477567197
-0.0004579861535
-0.0004659777202
-0.0004726822066
-0.0004783012094
-0.0004827108049
-0.0004861386235
-0.0004885695837
-0.0004901612122
-0.0004909531491
-0.0004910839283
-0.0004906046227
-0.000489603716
-0.0004881407361
-0.0004860925912
-0.0004837597291
-0.0004811010871
-0.000478072816
-0.000474842941
-0.0004713578283
-0.0004677664787
-0.0004639848971
-0.0004600823679
-0.0004560984283
-0.0004520726611
-0.0004480597544
-0.0004439546361
-0.0004399015928
-0.0004359487281
-0.0004320130447
-0.0004280854634
-0.0004243747505
-0.000421402323
-0.0004181610909
-0.0004138282829
-0.0004099130252
-0.0004069331245
-0.0004042409551
-0.0004017783663
-0.0003994365225
-0.0003974214342
-0.0003960868956
-0.0003940987315
-0.0003917322829
-0.0003903645896
-0.0003894912445
-0.0003889274596
-0.0003890888225
-0.0003883916625
-0.0003873693923
-0.0003878031686
-0.0003880171833
-0.0003881341582
-0.0003878642381
-0.0003872099941
-0.0001935677739
2.046644812e-13
-8.82878042e-22
-3.927200136e-23
1.765756084e-21
)


101
(
1.528603023e-05
9.83173385e-05
0.0003516739268
0.0007106113743
0.001058461863
0.001337411398
0.001547162866
0.001692156951
0.001775229746
0.001809603004
0.001804301363
0.00176785578
0.001704938656
0.001620998325
0.001522895985
0.001412888108
0.00129198028
0.001169755547
0.001042424264
0.0009127339538
0.0007922054438
0.0006709167586
0.0005510132804
0.000440329045
0.0003378785
0.0002428081144
0.0001556306813
7.590408734e-05
3.552292211e-06
-6.107501566e-05
-0.0001182281439
-0.0001671525647
-0.0002122301545
-0.0002539445106
-0.0002888112694
-0.0003193176821
-0.0003464472264
-0.0003688082632
-0.0003876782182
-0.000405050991
-0.0004200428255
-0.0004324170379
-0.0004430679596
-0.0004522224887
-0.0004597274696
-0.0004659850678
-0.0004711111851
-0.0004751811502
-0.0004783050712
-0.0004805565181
-0.0004820451987
-0.0004827631088
-0.0004828765824
-0.0004824559776
-0.0004815451803
-0.0004799801203
-0.0004781582173
-0.0004760062388
-0.0004734124405
-0.0004706113669
-0.0004675228808
-0.0004643025413
-0.0004608741336
-0.0004572899411
-0.0004536025336
-0.0004498470801
-0.0004460639256
-0.0004421921208
-0.0004383265528
-0.0004345178798
-0.0004307243538
-0.0004269447467
-0.0004232955121
-0.0004200475204
-0.000416977582
-0.0004134668102
-0.0004097046641
-0.0004063114608
-0.0004033725571
-0.0004007826646
-0.0003983819637
-0.0003962201713
-0.0003945050736
-0.0003929323073
-0.0003910796229
-0.0003892758896
-0.0003880006344
-0.0003872240326
-0.0003868839134
-0.0003867872366
-0.0003863313232
-0.0003859434332
-0.0003862816909
-0.0003866369516
-0.0003866653819
-0.0003862054639
-0.0001876028828
1.048772806e-05
9.918705892e-06
9.412614717e-06
9.414457947e-06
)


101
(
1.426599716e-05
9.502479407e-05
0.0003419669331
0.0006928820085
0.00103440443
0.00130968359
0.001517264398
0.001661776533
0.001746166987
0.001782742366
0.001780500747
0.001747756963
0.001689095729
0.00160978733
0.001516434017
0.00141128887
0.001295517508
0.00117748403
0.001054879869
0.0009295331176
0.0008113998162
0.000693747228
0.0005772510149
0.0004680884778
0.0003666380309
0.0002723642924
0.0001854929927
0.0001057957628
3.3131086e-05
-3.228463785e-05
-9.054856133e-05
-0.0001412528018
-0.0001866453673
-0.0002284418127
-0.0002650356846
-0.000296815373
-0.0003249585252
-0.0003489289196
-0.0003690587584
-0.0003869316619
-0.0004029547076
-0.0004164748871
-0.0004278568695
-0.0004378877354
-0.0004462603608
-0.0004532452291
-0.0004590681459
-0.0004637990809
-0.0004675859503
-0.0004704914622
-0.0004726431115
-0.0004739852563
-0.0004746973348
-0.0004748593458
-0.0004745061255
-0.0004734576322
-0.0004721376753
-0.0004704880381
-0.00046836536
-0.0004660079947
-0.0004633392519
-0.0004605111191
-0.0004574577673
-0.0004542257224
-0.000450861597
-0.0004474012743
-0.0004438835881
-0.0004402640246
-0.0004366234138
-0.0004330004205
-0.0004293705201
-0.0004257512159
-0.0004222238085
-0.0004189323399
-0.0004158637321
-0.0004127111199
-0.0004093296968
-0.0004059767729
-0.0004028600402
-0.0004000878252
-0.0003975957356
-0.0003953569144
-0.0003934255356
-0.0003917956634
-0.0003902674809
-0.0003886212582
-0.0003870729173
-0.0003860159273
-0.0003854395877
-0.0003852128047
-0.0003851149961
-0.000384817153
-0.0003848002099
-0.0003853456738
-0.0003855056816
-0.0003848510128
-0.0001819729605
2.029614921e-05
1.895588746e-05
1.775615924e-05
1.775234963e-05
)


101
(
1.327570456e-05
9.17924984e-05
0.0003323968882
0.0006753589829
0.001010561126
0.001282126779
0.001487509084
0.001631453847
0.00171703683
0.001755711566
0.001756402515
0.001727226891
0.001672677514
0.001597861783
0.001509140035
0.001408735722
0.001297945011
0.001184181177
0.001066094115
0.0009450813178
0.0008297024081
0.0007153467391
0.0006022082153
0.0004950172046
0.0003947540053
0.0003013484127
0.000214936639
0.0001353795707
6.25420324e-05
-3.462927581e-06
-6.267537667e-05
-0.0001148651595
-0.0001610857805
-0.0002031597644
-0.0002407996289
-0.0002738536896
-0.0003031171772
-0.0003284157017
-0.0003498701047
-0.0003685857451
-0.0003854636119
-0.0003999987615
-0.0004122380798
-0.0004230817288
-0.000432291241
-0.0004400498019
-0.000446589119
-0.0004519943717
-0.0004564349688
-0.0004599835794
-0.0004627758251
-0.0004647448198
-0.0004660585927
-0.0004668030734
-0.0004670148721
-0.0004665030833
-0.0004656911734
-0.000464541405
-0.0004629031094
-0.0004610054277
-0.0004587750474
-0.0004563599808
-0.0004536987331
-0.0004508355168
-0.0004478164339
-0.0004446794898
-0.0004414573829
-0.0004381140577
-0.0004347311124
-0.0004313320285
-0.0004278997658
-0.0004244655512
-0.0004210992587
-0.0004178845668
-0.0004148365215
-0.0004118298775
-0.0004087366522
-0.0004056275118
-0.0004025619197
-0.000399672812
-0.0003970550405
-0.0003947527162
-0.0003927372424
-0.0003909828983
-0.0003894661557
-0.0003880425546
-0.0003865494557
-0.0003852390806
-0.0003844068131
-0.0003840606685
-0.0003839575918
-0.0003838535507
-0.0003837985277
-0.0003841577233
-0.0003843489345
-0.0003835370595
-0.0001764326007
2.982858964e-05
2.779536993e-05
2.59608545e-05
2.593892096e-05
)


101
(
1.231508356e-05
8.862050632e-05
0.0003229641612
0.0006580434779
0.0009869347817
0.001254745289
0.001457900823
0.001601197283
0.001687850442
0.001728521565
0.001732020903
0.001706281873
0.001655703068
0.001585241675
0.001501032352
0.001405249058
0.001299290344
0.001189830574
0.001076109682
0.0009593792659
0.0008470323252
0.0007357915028
0.0006259035944
0.000520992875
0.0004221524443
0.0003297261217
0.000243906555
0.0001646079022
9.172671782e-05
2.531232265e-05
-3.467317649e-05
-8.809783302e-05
-0.0001353676167
-0.0001779926081
-0.0002164373976
-0.0002505214423
-0.0002808265233
-0.0003073728909
-0.0003301093697
-0.0003498483545
-0.000367610812
-0.0003830761771
-0.0003961981658
-0.0004078472474
-0.0004178583727
-0.0004263951512
-0.0004336679846
-0.0004397637902
-0.0004448624592
-0.0004490490201
-0.0004524666587
-0.0004550535064
-0.0004569692697
-0.0004582958566
-0.0004590675709
-0.0004591024927
-0.00045881167
-0.0004581620129
-0.0004570108155
-0.0004555804166
-0.0004538022577
-0.000451816681
-0.0004495647591
-0.0004470884937
-0.000444431347
-0.0004416365971
-0.0004387381294
-0.0004356967742
-0.0004325949459
-0.000429447467
-0.0004262425063
-0.0004230229187
-0.0004198527904
-0.0004167901505
-0.000413830793
-0.0004109180922
-0.0004080056292
-0.0004051517423
-0.0004022927777
-0.0003994417208
-0.0003967361797
-0.0003943539975
-0.0003923032792
-0.000390497798
-0.0003889082901
-0.0003875317088
-0.0003862096562
-0.0003848814984
-0.0003838068421
-0.0003833053987
-0.0003831053618
-0.0003829979612
-0.0003829894571
-0.0003832214045
-0.0003833593855
-0.0003825466486
-0.0001711010196
3.938210599e-05
3.673808384e-05
3.437197505e-05
3.435794009e-05
)


101
(
1.138405576e-05
8.550886541e-05
0.0003136691166
0.0006409366687
0.0009635282267
0.001227543454
0.001428443568
0.001571014995
0.00165861896
0.00170118343
0.001707369978
0.001684938134
0.001638191256
0.001571946994
0.001492129641
0.001400848984
0.001299579878
0.001194423932
0.001084956557
0.0009724361668
0.0008633250997
0.0007551204001
0.0006483671493
0.0005459311737
0.0004487489226
0.0003574469304
0.0002723492095
0.0001934286461
0.0001206261665
5.396092337e-05
-6.619966679e-06
-6.105044139e-05
-0.0001094153124
-0.0001528041898
-0.0001919741692
-0.000226952227
-0.0002582137029
-0.000285862801
-0.000309813436
-0.0003306596345
-0.0003493711367
-0.0003657511563
-0.0003797567525
-0.0003922116497
-0.0004030005233
-0.0004123020374
-0.0004203160922
-0.0004271204329
-0.0004328874324
-0.0004377101165
-0.0004417417337
-0.0004449336926
-0.0004474453376
-0.0004493546072
-0.0004506873763
-0.0004512664258
-0.0004514978856
-0.000451354589
-0.0004506946014
-0.0004497313089
-0.0004484110843
-0.0004468657994
-0.0004450341029
-0.0004429612344
-0.0004406849244
-0.0004382480702
-0.0004356870575
-0.0004329642497
-0.000430169879
-0.0004273053837
-0.0004243518538
-0.0004213671842
-0.000418416
-0.0004155495805
-0.0004127450439
-0.0004099596908
-0.0004071823185
-0.0004045215799
-0.000401911722
-0.0003992464355
-0.0003965771298
-0.0003941338582
-0.0003920423419
-0.000390233843
-0.0003886177924
-0.0003872255035
-0.0003859866886
-0.0003847615074
-0.000383582359
-0.0003829069619
-0.0003826125463
-0.0003824276669
-0.0003824063475
-0.0003825398468
-0.0003825670503
-0.0003817208187
-0.0001657504907
4.909574225e-05
4.53835848e-05
4.200667032e-05
4.192087198e-05
)


101
(
1.048253749e-05
8.245761977e-05
0.0003045121201
0.0006240397392
0.0009403443048
0.001200525645
0.001399141355
0.001540914944
0.001629353503
0.001673708372
0.001682463716
0.001663211876
0.001620160856
0.001557997811
0.001482450977
0.001395555627
0.001298839216
0.001197959699
0.001092656425
0.0009842654934
0.0008785322291
0.0007733475834
0.0006696285348
0.0005697783509
0.0004744623984
0.0003844493411
0.0003002091242
0.0002217877668
0.0001491819196
8.240946967e-05
2.139985171e-05
-3.38250681e-05
-8.322528158e-05
-0.0001275069165
-0.0001674275627
-0.0002032223255
-0.000235353849
-0.0002639828223
-0.0002890468684
-0.0003110053451
-0.0003307160141
-0.0003480320891
-0.0003629343436
-0.0003762036374
-0.0003877602039
-0.0003978097938
-0.0004065602907
-0.0004140841879
-0.0004205343347
-0.0004260035278
-0.000430648307
-0.0004344350019
-0.0004375326243
-0.0004400228167
-0.0004419201466
-0.000443043342
-0.0004437965881
-0.0004441573968
-0.0004439891507
-0.0004435017587
-0.0004426439749
-0.0004415425509
-0.0004401342646
-0.000438468831
-0.0004365871191
-0.0004345213727
-0.000432307663
-0.0004299139221
-0.0004274322248
-0.0004248690604
-0.0004221980344
-0.0004194694058
-0.0004167500741
-0.0004140970224
-0.0004114843856
-0.0004088713443
-0.0004062381983
-0.000403728979
-0.0004013350562
-0.0003989150006
-0.00039641669
-0.0003940011136
-0.0003918778727
-0.0003900779962
-0.0003884754415
-0.0003870885198
-0.0003858933483
-0.0003847853442
-0.0003836189004
-0.0003828143952
-0.000382397249
-0.0003821342771
-0.0003820965281
-0.0003821134149
-0.0003819231624
-0.0003809786437
-0.0001607290439
5.825226581e-05
5.35433438e-05
4.930500243e-05
4.920607016e-05
)


101
(
9.610439085e-06
7.946680194e-05
0.0002954935186
0.0006073538483
0.0009173858301
0.001173696213
0.001369998244
0.00151090485
0.00160006509
0.001646107677
0.001657315961
0.001641119217
0.001601630531
0.001543414245
0.001472015784
0.001389389209
0.00129709337
0.001200442039
0.001099226239
0.0009948822239
0.0008926187867
0.0007904728164
0.0006897128074
0.0005925036766
0.0004992229423
0.0004106667994
0.0003274268922
0.0002496296437
0.0001773362338
0.0001105865977
4.930121068e-05
-6.524662319e-06
-5.683976091e-05
-0.0001020539659
-0.0001427795725
-0.0001793754467
-0.000212318081
-0.0002418280879
-0.0002678977168
-0.0002909189715
-0.0003116409494
-0.0003299222747
-0.0003457503647
-0.0003598580947
-0.0003721924184
-0.0003829836416
-0.0003924594888
-0.0004007049881
-0.0004078563451
-0.0004139935347
-0.000419264185
-0.0004236501073
-0.0004273339308
-0.0004304008054
-0.0004328650724
-0.0004345456571
-0.0004358266485
-0.0004366902296
-0.0004370095522
-0.0004369904247
-0.0004365943639
-0.000435941294
-0.0004349645022
-0.0004337088299
-0.0004322201981
-0.0004305267854
-0.0004286660033
-0.0004266065801
-0.0004244357682
-0.0004221743024
-0.000419786533
-0.0004173190249
-0.0004148370695
-0.0004124022587
-0.0004099909063
-0.0004075698493
-0.0004051060007
-0.000402744527
-0.0004005194799
-0.0003983118543
-0.0003960402684
-0.0003937700963
-0.0003916728315
-0.0003898826794
-0.000388316366
-0.0003869583783
-0.0003858021375
-0.0003847978307
-0.0003837234966
-0.0003828905307
-0.0003823502419
-0.0003819859607
-0.0003819389028
-0.0003818411141
-0.0003814381571
-0.0003803662853
-0.0001560930824
6.666993295e-05
6.071918512e-05
5.541378142e-05
5.528609739e-05
)


101
(
8.767661955e-06
7.653644156e-05
0.0002866136684
0.0005908801763
0.0008946556509
0.00114705957
0.001341018402
0.001480992291
0.001570764702
0.001618392773
0.00163194051
0.00161867624
0.001582618863
0.001528216483
0.001460843857
0.00138237008
0.001294366899
0.001201879479
0.001104680564
0.001004301917
0.0009055601683
0.0008064872713
0.0007086376197
0.0006140905407
0.0005229732538
0.0004360327744
0.0003539396728
0.0002768954857
0.0002050307064
0.0001384245568
7.700246676e-05
2.075008193e-05
-3.033237524e-05
-7.644471095e-05
-0.0001180069808
-0.0001554215082
-0.0001891560904
-0.0002194854994
-0.0002464673159
-0.0002704765708
-0.0002921896006
-0.0003114512382
-0.0003282349601
-0.0003432195134
-0.0003563652883
-0.0003679164189
-0.0003781220699
-0.0003870951819
-0.0003949639619
-0.0004017884492
-0.0004077102451
-0.0004127195899
-0.0004169918312
-0.0004206353631
-0.0004236804581
-0.0004259240593
-0.0004277343447
-0.000429109247
-0.000429920041
-0.000430364014
-0.000430418329
-0.0004301927034
-0.0004296354823
-0.0004287925357
-0.0004277009806
-0.0004263870141
-0.0004248667406
-0.00042311921
-0.0004212294863
-0.0004192444934
-0.0004171366044
-0.0004149473774
-0.0004127190128
-0.0004104795024
-0.0004082484444
-0.0004060152318
-0.0004037218378
-0.0004015085392
-0.0003994216841
-0.0003973853337
-0.0003953254881
-0.0003932587461
-0.0003912658654
-0.0003895064845
-0.0003879664972
-0.0003866586911
-0.0003855540474
-0.0003846248554
-0.0003836758185
-0.0003828879844
-0.000382254938
-0.0003818212713
-0.000381781338
-0.000381573361
-0.0003809186282
-0.0003795056634
-0.0001518577821
7.389129191e-05
6.664273687e-05
6.014032154e-05
5.991682213e-05
)


101
(
7.954098797e-06
7.366655547e-05
0.0002778729024
0.0005746198682
0.0008721565731
0.001120620101
0.001312206012
0.001451184612
0.001541463168
0.001590575134
0.001606351055
0.001595898942
0.001563144329
0.001512424718
0.00144895528
0.001374518742
0.001290683943
0.001202284227
0.001109032831
0.001012539908
0.0009173411121
0.0008213783723
0.00072641265
0.0006345308212
0.0005456686344
0.0004604842523
0.0003796831846
0.0003035250405
0.0002322074813
0.0001658602176
0.0001044277378
4.790374701e-05
-3.79108939e-06
-5.071508104e-05
-9.310551622e-05
-0.0001313636614
-0.0001659063422
-0.0001970348762
-0.0002248671358
-0.0002497886896
-0.0002724421212
-0.0002926798136
-0.0003104506966
-0.0003263599331
-0.0003403688669
-0.0003527203154
-0.0003636807714
-0.0003733913363
-0.0003819845957
-0.0003895193759
-0.0003961274738
-0.0004017873045
-0.0004066639559
-0.0004108838456
-0.0004144884328
-0.0004172975211
-0.0004196388667
-0.0004215188101
-0.000422832053
-0.0004237301976
-0.0004242195631
-0.0004244099031
-0.0004242485674
-0.0004237930047
-0.0004230734309
-0.0004221248851
-0.0004209384701
-0.0004194906296
-0.0004178854674
-0.0004161629333
-0.000414308847
-0.0004123537437
-0.0004103465591
-0.0004083222422
-0.0004062777802
-0.0004042047167
-0.0004020617053
-0.0004000113249
-0.0003980550738
-0.0003961217266
-0.0003942361904
-0.0003923785012
-0.0003905533131
-0.0003888633538
-0.0003873320548
-0.0003860948535
-0.0003850437886
-0.0003841644602
-0.0003833295328
-0.0003826353167
-0.0003819747451
-0.0003814791202
-0.0003814354
-0.0003811364531
-0.0003801642078
-0.0003783323864
-0.00014807413
7.99511303e-05
7.16064107e-05
6.399548831e-05
6.361590588e-05
)


101
(
7.16963823e-06
7.085715883e-05
0.0002692715682
0.0005585741084
0.0008498914621
0.001094382281
0.001283565406
0.001421489077
0.001512171267
0.00156266638
0.001580561324
0.001572803348
0.001543225418
0.001496059252
0.001436370484
0.001365855955
0.00128606839
0.001201671426
0.001112296923
0.001019611521
0.0009279526206
0.0008351318684
0.0007430409906
0.0006538206845
0.0005672753024
0.0004839643598
0.0004045929771
0.0003294556134
0.0002588070329
0.0001928315659
0.0001315061047
7.484818044e-05
2.268832779e-05
-2.493492639e-05
-6.810531892e-05
-0.0001072144775
-0.0001425971472
-0.0001745410409
-0.0002032012092
-0.0002289831904
-0.0002525228792
-0.0002737125677
-0.0002924860258
-0.0003093634237
-0.0003242942001
-0.0003374969751
-0.0003492399739
-0.0003596954567
-0.0003690193798
-0.0003772790358
-0.0003845933794
-0.0003909279676
-0.0003964278181
-0.0004012056601
-0.0004053509181
-0.0004087289711
-0.0004116019727
-0.0004139758987
-0.0004157747381
-0.0004171188037
-0.0004180150923
-0.0004186060057
-0.0004188262506
-0.0004187142142
-0.00041832543
-0.0004177347531
-0.000416895138
-0.000415752669
-0.0004144159096
-0.0004129169305
-0.0004112830568
-0.0004095615366
-0.0004077763374
-0.0004059464828
-0.0004040606532
-0.0004021312212
-0.0004001422871
-0.0003982373652
-0.0003964115151
-0.0003945805781
-0.000392816361
-0.0003911224304
-0.0003894814387
-0.0003879142653
-0.0003863937694
-0.0003851983893
-0.0003842260218
-0.0003833935972
-0.000382664839
-0.000382082397
-0.0003814120082
-0.0003808737545
-0.0003808282828
-0.0003804704014
-0.0003790761495
-0.0003765611536
-0.0001445509201
8.486161455e-05
7.594266645e-05
6.813409082e-05
6.80905614e-05
)


101
(
6.414155964e-06
6.81082519e-05
0.0002608099881
0.0005427440396
0.0008278631335
0.001068350547
0.001255100926
0.001391912739
0.00148289959
0.001534678135
0.001554584947
0.001549405384
0.001522880519
0.001479140389
0.001423110135
0.001356402672
0.00128054396
0.001200058332
0.001114487455
0.001025532458
0.0009373915576
0.0008477345168
0.0007585202624
0.0006719573914
0.0005877691304
0.0005064254303
0.0004286081741
0.000354623255
0.0002847672798
0.0002192758371
0.0001581665854
0.0001014969116
4.900572621e-05
8.02830774e-07
-4.307014132e-05
-8.300927261e-05
-0.0001192569232
-0.0001520546947
-0.0001815594269
-0.000208184108
-0.0002325674226
-0.0002546671759
-0.0002744324812
-0.0002923024109
-0.0003081988186
-0.0003222977177
-0.0003348517526
-0.0003460629739
-0.0003561182539
-0.000365097583
-0.0003731121319
-0.0003801278987
-0.0003862615976
-0.0003916035249
-0.0003962977072
-0.0004002092511
-0.0004035808983
-0.0004064330945
-0.000408703092
-0.0004105038574
-0.0004117963151
-0.0004127532146
-0.0004133252813
-0.0004135516692
-0.0004134818828
-0.000413186369
-0.0004126719484
-0.0004118560801
-0.0004107922481
-0.0004095211584
-0.0004080870056
-0.0004065660483
-0.0004049803441
-0.0004033380039
-0.0004016141188
-0.000399831314
-0.000397986838
-0.0003961957581
-0.0003944918196
-0.0003927928486
-0.00039112135
-0.0003895430243
-0.0003880756774
-0.0003866488995
-0.0003851632562
-0.0003839915016
-0.0003831191193
-0.0003823619894
-0.0003816612737
-0.000381186017
-0.0003805761566
-0.0003799776863
-0.0003799198794
-0.0003795385926
-0.0003776883062
-0.0003743307373
-0.0001409559615
8.934516098e-05
7.98179718e-05
7.136896998e-05
7.124756957e-05
)


101
(
5.687519743e-06
6.541982717e-05
0.0002524884819
0.000527130811
0.0008060744189
0.001042529384
0.001226817012
0.001362462546
0.001453658616
0.001506622093
0.001528435549
0.001525720939
0.001502127975
0.00146168847
0.001409195159
0.001346180083
0.001274134092
0.001197464081
0.001115620129
0.001030318628
0.0009456601068
0.0008591765119
0.0007728457364
0.0006889393456
0.0006071347098
0.0005278294144
0.0004516721457
0.0003789625273
0.0003100219683
0.0002451272562
0.0001843370928
0.0001277609622
7.505644441e-05
2.639174171e-05
-1.809011289e-05
-5.880849232e-05
-9.592072166e-05
-0.0001296093121
-0.0001600038099
-0.0001874864429
-0.000212685674
-0.0002356445185
-0.0002563589324
-0.0002752081282
-0.0002920864824
-0.0003071194201
-0.000320521158
-0.000332500489
-0.0003432783612
-0.0003529584043
-0.0003616525513
-0.0003693376294
-0.0003761081103
-0.000382034259
-0.0003872556759
-0.0003916710741
-0.0003955231984
-0.000398834731
-0.0004015597922
-0.00040380394
-0.0004055017906
-0.0004068194465
-0.0004077266241
-0.0004082584481
-0.0004085037533
-0.0004085006109
-0.0004082595301
-0.0004077515525
-0.00040697251
-0.0004059411626
-0.000404717386
-0.0004033712083
-0.0004019543116
-0.0004004963794
-0.000398956336
-0.0003973276256
-0.0003955946221
-0.0003939227704
-0.0003923422604
-0.0003907492691
-0.0003891757273
-0.000387693622
-0.0003863523019
-0.0003850904607
-0.0003837023846
-0.0003825207429
-0.0003817031521
-0.0003810577993
-0.0003803798542
-0.0003799736949
-0.0003794628453
-0.0003788450558
-0.0003787344065
-0.0003783135715
-0.0003759773356
-0.0003716438174
-0.0001373375669
9.339318177e-05
8.350762186e-05
7.48423314e-05
7.486863207e-05
)


101
(
4.98958923e-06
6.279186688e-05
0.0002443073602
0.0005117355659
0.0007845281487
0.001016923295
0.001198718182
0.001333145333
0.001424458681
0.001478509989
0.001502126739
0.00150176585
0.001480986084
0.001443723885
0.001394646736
0.001335209577
0.001266861961
0.001193908831
0.001115712041
0.001033987059
0.0009527643073
0.0008694517518
0.0007860115436
0.0007047628058
0.0006253595305
0.000548145698
0.0004737353989
0.0004024105232
0.0003345027732
0.0002703168371
0.0002099458628
0.0001535570898
0.0001007390203
5.172012858e-05
6.731842733e-06
-3.468888937e-05
-7.263328877e-05
-0.000107229612
-0.0001385602078
-0.0001669362683
-0.0001929457159
-0.0002167158878
-0.0002383137497
-0.0002580903606
-0.0002759303398
-0.0002919116848
-0.0003061935836
-0.0003189648153
-0.0003304679811
-0.0003408211331
-0.0003501545206
-0.0003584916099
-0.0003658958763
-0.000372402918
-0.000378138847
-0.0003830577208
-0.0003873858967
-0.0003911389847
-0.0003942960769
-0.000396965234
-0.0003990673649
-0.0004007374433
-0.0004019826815
-0.0004028349793
-0.0004033714386
-0.0004036297121
-0.000403651055
-0.0004034096114
-0.0004029181053
-0.0004021597739
-0.0004011575179
-0.0003999900412
-0.0003987187769
-0.0003974180926
-0.0003960515593
-0.0003946002895
-0.0003930125491
-0.0003914359278
-0.000389957381
-0.000388481396
-0.0003870128286
-0.0003856095024
-0.0003843514013
-0.0003832475763
-0.0003820031017
-0.0003808329092
-0.0003800265115
-0.0003794839814
-0.0003788670565
-0.0003785031914
-0.000378069295
-0.0003774644168
-0.0003773124923
-0.0003768321283
-0.0003739575892
-0.0003685870585
-0.0001336276369
9.723499321e-05
8.71506196e-05
7.823981956e-05
7.823709873e-05
)


101
(
4.320211416e-06
6.022434057e-05
0.0002362669188
0.0004965594288
0.0007632271358
0.0009915367906
0.001170809015
0.001303967815
0.00139530996
0.001450353549
0.001475672079
0.001477555884
0.001459473058
0.001425267015
0.001379486254
0.001323512818
0.001258750706
0.001189413726
0.001114781216
0.001036555319
0.0009587137503
0.0008785577484
0.0007980114902
0.0007194226507
0.0006424330505
0.0005673494396
0.0004947552774
0.000424909582
0.0003581431867
0.0002947745626
0.0002349208809
0.0001788073339
0.0001259646515
7.66874875e-05
3.1292649e-05
-1.073754391e-05
-4.944936611e-05
-8.493449586e-05
-0.0001172250167
-0.0001465323801
-0.0001733675657
-0.0001979203044
-0.000220330313
-0.0002409523371
-0.0002596991339
-0.0002766120831
-0.0002917858502
-0.0003053735936
-0.000317609579
-0.0003286221537
-0.0003385743402
-0.0003475373858
-0.0003555550398
-0.0003626421349
-0.0003689079494
-0.0003743185134
-0.00037911133
-0.0003832877444
-0.0003868516907
-0.0003899408802
-0.0003924480688
-0.0003944677407
-0.0003960497727
-0.000397236921
-0.0003980581672
-0.0003985779843
-0.0003988382657
-0.0003988441415
-0.0003986325595
-0.0003981320878
-0.0003973699619
-0.000396410129
-0.0003952966579
-0.0003941300322
-0.000392907402
-0.0003916387863
-0.0003902126679
-0.0003887456257
-0.000387371907
-0.0003859900232
-0.0003846198902
-0.0003833144256
-0.0003821306608
-0.0003811256699
-0.0003800335284
-0.0003789569371
-0.0003781446197
-0.0003776550999
-0.0003771338971
-0.000376807616
-0.000376442166
-0.0003758313648
-0.0003756319598
-0.0003751198943
-0.0003716719969
-0.0003651438087
-0.0001296641346
0.000101082653
9.081706651e-05
8.135974794e-05
8.099011729e-05
)


101
(
3.67922388e-06
5.771720992e-05
0.0002283674551
0.0004816035385
0.0007421742209
0.0009663744432
0.001143094215
0.00127493667
0.001366222528
0.001422164527
0.001449085158
0.001453106797
0.001437607044
0.001406338219
0.001363735265
0.001311111845
0.00124982365
0.001184000996
0.001112847623
0.001038042326
0.000963520203
0.0008864943105
0.0008088392908
0.0007329127086
0.0006583456719
0.0005854199615
0.0005146954393
0.0004464074635
0.0003808791546
0.0003184303051
0.0002591908336
0.0002034405379
0.0001506560019
0.0001012071112
5.550142842e-05
1.296278541e-05
-2.642552437e-05
-6.274230179e-05
-9.598055158e-05
-0.0001262430913
-0.0001539285583
-0.0001792523486
-0.0002024206851
-0.0002238077864
-0.0002433803407
-0.0002611692043
-0.0002772239534
-0.0002916425497
-0.0003046208818
-0.0003163049955
-0.0003268731278
-0.0003364252847
-0.0003450301454
-0.0003526963527
-0.0003594985525
-0.000365401462
-0.0003706541079
-0.0003752505526
-0.0003792053854
-0.000382679887
-0.0003855891535
-0.0003879871945
-0.0003899176026
-0.0003914348434
-0.0003925419044
-0.0003933223964
-0.0003938276397
-0.0003940744189
-0.0003941060848
-0.0003938517914
-0.0003933400984
-0.0003926057224
-0.0003916784486
-0.0003906561885
-0.0003895448517
-0.0003884186647
-0.0003871601572
-0.0003858508168
-0.0003845889952
-0.0003832872497
-0.0003820197811
-0.0003808013661
-0.0003796948184
-0.0003787866801
-0.0003778142733
-0.0003768487312
-0.0003760702607
-0.0003755982783
-0.0003751567704
-0.0003748878254
-0.0003745871504
-0.0003739830047
-0.0003737220087
-0.0003731789741
-0.0003691252417
-0.0003613218774
-0.0001254928216
0.0001049217811
9.460981401e-05
8.558506011e-05
8.570404884e-05
)


101
(
3.066454104e-06
5.527042604e-05
0.00022060926
0.0004668690345
0.0007213722552
0.0009414408681
0.001115578589
0.001246058531
0.001337206343
0.001393954679
0.001422379562
0.001428434319
0.001415406116
0.001386957821
0.001347415471
0.001298028995
0.001240104383
0.001177693529
0.001109932444
0.001038468233
0.00096719793
0.0008932647457
0.0008184899675
0.0007452258764
0.0006730881843
0.000602340399
0.0005335258388
0.0004668577313
0.0004026498662
0.0003412170611
0.0002826898049
0.0002273932772
0.0001747502291
0.0001252110359
7.928232519e-05
3.633597112e-05
-3.620484062e-06
-4.067620228e-05
-7.481123442e-05
-0.0001060195975
-0.0001345718575
-0.0001606820936
-0.0001845818387
-0.0002066579561
-0.0002269664432
-0.0002455630656
-0.0002624661256
-0.0002777057342
-0.0002914345623
-0.0003038121101
-0.0003150061937
-0.0003251252935
-0.0003342911299
-0.0003425201331
-0.0003498460551
-0.0003562556004
-0.0003619850443
-0.0003670004779
-0.000371333533
-0.0003751821243
-0.0003784833481
-0.000381269669
-0.0003835641752
-0.0003853943818
-0.0003868091649
-0.000387875771
-0.0003886093799
-0.000389078089
-0.0003893362382
-0.000389329434
-0.0003890639571
-0.0003885622939
-0.0003878458387
-0.000386985272
-0.0003859917439
-0.0003849615327
-0.0003838535805
-0.0003827167232
-0.0003815840208
-0.0003803976397
-0.0003792202764
-0.0003780634887
-0.0003770391724
-0.0003762202577
-0.0003753539922
-0.0003745125489
-0.0003737932666
-0.0003733258214
-0.0003729338473
-0.0003727529441
-0.0003725024918
-0.0003719150835
-0.0003716011319
-0.0003709985204
-0.0003663353111
-0.0003572325949
-0.0001211055303
0.0001089043202
9.855200422e-05
8.931108976e-05
8.924532032e-05
)


101
(
2.481714413e-06
5.288390279e-05
0.0002129925779
0.0004523569942
0.0007008239931
0.0009167405962
0.001088266906
0.001217339843
0.001308271094
0.001365735603
0.001395568716
0.001403554018
0.00139288818
0.001367146029
0.001330548654
0.001284286794
0.001229616471
0.001170514557
0.001106057485
0.001037853799
0.0009697635783
0.0008988763417
0.0008269614866
0.000756355889
0.0006866521693
0.0006180968661
0.00055122151
0.0004862204043
0.0004234003005
0.0003630718478
0.0003053570506
0.0002506102624
0.0001981966916
0.0001486489931
0.0001025788941
5.931995647e-05
1.890751855e-05
-1.876908582e-05
-5.37042553e-05
-8.581387558e-05
-0.0001152389259
-0.0001421543128
-0.0001667832478
-0.0001895066449
-0.0002104721596
-0.0002297914472
-0.0002474809205
-0.0002635222184
-0.000278012042
-0.0002910939265
-0.0003029245271
-0.0003136147046
-0.0003233228983
-0.0003320959118
-0.0003399400609