/*--------------------------------*- C++ -*----------------------------------*\
| =========                 |                                                 |
| \\      /  F ield         | OpenFOAM: The Open Source CFD Toolbox           |
|  \\    /   O peration     | Version:  2.3.1                                 |
|   \\  /    A nd           | Web:      www.OpenFOAM.org                      |
|    \\/     M anipulation  |                                                 |
\*---------------------------------------------------------------------------*/
FoamFile
{
    version     2.0;
    format      ascii;
    class       dictionary;
    location    "constant";
    object      GRPSI35;
}
// * * * * * * * * * * * * * * * * * * * * * * * * * * * * * * * * * * * * * //

GRPSI35_table
101
(

101
(
-1.826278984e-05
-0.0005185395816
-0.001002005749
-0.001521617395
-0.002095989677
-0.00272960284
-0.003417478102
-0.004173887737
-0.004982098297
-0.005845369845
-0.006758795198
-0.007722995073
-0.00872582876
-0.009791496602
-0.01088906539
-0.01202392323
-0.01320527678
-0.014439556
-0.01565702177
-0.01698965115
-0.01828614549
-0.01960179229
-0.02100737899
-0.02240848826
-0.02381327367
-0.02523659909
-0.02667507087
-0.02812093729
-0.02959180348
-0.03106377031
-0.03254519695
-0.0340192336
-0.0354391476
-0.03704754838
-0.03854278978
-0.0400423952
-0.04153088875
-0.04298741088
-0.04448667051
-0.04603824952
-0.04757883312
-0.04902386037
-0.05052789488
-0.0520201413
-0.05346041847
-0.05493781854
-0.05637888803
-0.05784636636
-0.05928450779
-0.06073752201
-0.06215791455
-0.06357573593
-0.0649836536
-0.06637580763
-0.06774798144
-0.06910469198
-0.07049695188
-0.07181260423
-0.07315865265
-0.07446576184
-0.07577533363
-0.07705997576
-0.07832499687
-0.07957968084
-0.08081508045
-0.08203610592
-0.08323358726
-0.08441028461
-0.08557735714
-0.08671354755
-0.08783255682
-0.08893076888
-0.09001872445
-0.09107071643
-0.09208705443
-0.09307440251
-0.09405736374
-0.09500705157
-0.09591690392
-0.09679258512
-0.09763345674
-0.09845253069
-0.09922726003
-0.09996540672
-0.1006708995
-0.1013345863
-0.1019500721
-0.1025246748
-0.1030530019
-0.1035407669
-0.1039849939
-0.1043882255
-0.1047434734
-0.1050632899
-0.1053427345
-0.1057111942
-0.1062121691
-0.1071856632
-0.1081565287
-0.1091055971
-0.110054642
)


101
(
-1.82627898e-05
-0.0005186255536
-0.001002151659
-0.001521261617
-0.002094516824
-0.002726423732
-0.003412094541
-0.004165318834
-0.004970179435
-0.005829332998
-0.006738193431
-0.007697128299
-0.00869475472
-0.009752942312
-0.01084446299
-0.01197242619
-0.01314539834
-0.01436986076
-0.01558402677
-0.01689926621
-0.01819332903
-0.01950169404
-0.02088953608
-0.02228343952
-0.02368147785
-0.0250957925
-0.02652518207
-0.02796309098
-0.02942314805
-0.03088769351
-0.03236072609
-0.03382898936
-0.03525274769
-0.03681934554
-0.03832166484
-0.03981731657
-0.04130263897
-0.04276081307
-0.04424648006
-0.04577711298
-0.04730854846
-0.04876832546
-0.05025817417
-0.05174436004
-0.05319143146
-0.05465768972
-0.05610023152
-0.05755728894
-0.05899530265
-0.0604400791
-0.06186211597
-0.06327734689
-0.06468336203
-0.06607571822
-0.06745026487
-0.06880905656
-0.07018854746
-0.07151788804
-0.0728573452
-0.07416995158
-0.07547786035
-0.07676606787
-0.07803547024
-0.07929216718
-0.08053164815
-0.08175591405
-0.08295922908
-0.08414208471
-0.08531203215
-0.0864561222
-0.08758121048
-0.08868512972
-0.08977489891
-0.09083551946
-0.09186419395
-0.09286403396
-0.09385041456
-0.0948087174
-0.09573023371
-0.09661756869
-0.09747005762
-0.09829585302
-0.09908238995
-0.09983152855
-0.1005458695
-0.1012220293
-0.1018502783
-0.1024354995
-0.1029742377
-0.1034738336
-0.1039249384
-0.1043409163
-0.1047073721
-0.10503507
-0.1053273793
-0.1057045679
-0.1062222103
-0.1071970643
-0.1081693648
-0.1091204586
-0.1100715545
)


101
(
-1.82627898e-05
-0.0005187995164
-0.001002450261
-0.001520565796
-0.002091596779
-0.002720102789
-0.00340137723
-0.004148268741
-0.004946424689
-0.005797384458
-0.006697139077
-0.007645599389
-0.008632793757
-0.00967628998
-0.01075550874
-0.01186978815
-0.0130262403
-0.01423131943
-0.01543762644
-0.01672088551
-0.01800707124
-0.01930167499
-0.02065675297
-0.02203382114
-0.0234178366
-0.02481469336
-0.02622600964
-0.02764761489
-0.02908685811
-0.03053557632
-0.03199205134
-0.0334480258
-0.03487580126
-0.0363753187
-0.03787642047
-0.03936441783
-0.04084313518
-0.04230262831
-0.04376735747
-0.04526131269
-0.04677071546
-0.0482478113
-0.04971889473
-0.05119195836
-0.0526459973
-0.05409657917
-0.0555380081
-0.05697892141
-0.05841313901
-0.05984450298
-0.06126574957
-0.06267644248
-0.06407833432
-0.0654696715
-0.06684713697
-0.06820952425
-0.06957166594
-0.07091676773
-0.07224998614
-0.07356954781
-0.07487667582
-0.07617003854
-0.0774468289
-0.07870829513
-0.07995498727
-0.08118587076
-0.08239939933
-0.08359371428
-0.08477100956
-0.08592859858
-0.08706613822
-0.0881822625
-0.08927894202
-0.09035426209
-0.09140371465
-0.09242601574
-0.09342373378
-0.09439858697
-0.0953420207
-0.09625221788
-0.09712748491
-0.09796972398
-0.09877831605
-0.09954959198
-0.1002830768
-0.1009819272
-0.1016360389
-0.1022446723
-0.1028046161
-0.1033271561
-0.1037960345
-0.1042342844
-0.1046254149
-0.1049722348
-0.1052884274
-0.1056886645
-0.1062398373
-0.107216506
-0.1081906675
-0.1091439175
-0.1100972302
)


101
(
-1.82627898e-05
-0.0005189775912
-0.001002762547
-0.001519901687
-0.002088728456
-0.002713856759
-0.003390760016
-0.004131393766
-0.00492283827
-0.005765684953
-0.006656383204
-0.007594477071
-0.008571211512
-0.009600520848
-0.01066708942
-0.01176785042
-0.01290824414
-0.01409444218
-0.015290652
-0.01654672356
-0.01782018637
-0.01910187883
-0.02042908408
-0.0217857554
-0.02315435773
-0.02453451102
-0.02592802814
-0.027332731
-0.02875240928
-0.0301838193
-0.03162381558
-0.03306627019
-0.03449193965
-0.03595010503
-0.0374300622
-0.03890778898
-0.04037820507
-0.04183530981
-0.04328805453
-0.04475525758
-0.04623917316
-0.04771438583
-0.04917739041
-0.05063772474
-0.052088939
-0.05353165966
-0.05496733784
-0.05639819519
-0.0578245537
-0.05924627844
-0.06066159897
-0.06206780353
-0.06346511563
-0.0648532905
-0.06623048396
-0.0675947455
-0.068950684
-0.07029742154
-0.07163138877
-0.07295334236
-0.07426246879
-0.07555881068
-0.07684075356
-0.0781074876
-0.07936009169
-0.08059747115
-0.08181914585
-0.0830233552
-0.08420985032
-0.08537810437
-0.08652774795
-0.08765665972
-0.08876462005
-0.08985237597
-0.09091761929
-0.09195832492
-0.09297229338
-0.09396330909
-0.09492628451
-0.09585858223
-0.0967563594
-0.09761901348
-0.0984483049
-0.0992416018
-0.09999666024
-0.1007164983
-0.1013947877
-0.1020301674
-0.1026139398
-0.1031592078
-0.1036507814
-0.1041101916
-0.1045270621
-0.1048979198
-0.1052375206
-0.1056682542
-0.1062551206
-0.107232052
-0.108206391
-0.1091590742
-0.1101117285
)


101
(
-1.82627915e-05
-0.0005191599072
-0.001003088852
-0.001519269916
-0.002085912831
-0.00270768669
-0.003380244168
-0.004114693756
-0.004899425314
-0.00573423312
-0.006615927043
-0.007543757125
-0.008510018788
-0.009525583764
-0.01057926883
-0.01166660382
-0.01279135022
-0.01395916993
-0.01514355502
-0.01637583752
-0.01763369152
-0.01890220139
-0.02020531113
-0.02154011193
-0.02289162316
-0.02425514768
-0.02563118997
-0.02701869782
-0.02841951388
-0.02983287887
-0.0312559822
-0.0326839832
-0.03410337395
-0.03553442334
-0.03698853029
-0.03845010895
-0.03990935297
-0.04136065786
-0.04280482159
-0.04425316096
-0.04571376147
-0.04717700478
-0.04863158287
-0.05008106335
-0.0515250385
-0.05296077602
-0.0543898824
-0.05581257238
-0.0572306619
-0.05864368145
-0.06005170022
-0.06145233476
-0.0628447338
-0.06422871454
-0.0656034773
-0.06696740187
-0.0683207203
-0.06966616749
-0.07100032591
-0.07232368221
-0.07363486986
-0.07493391014
-0.07621981083
-0.07749130166
-0.07874919185
-0.07999250635
-0.08122127632
-0.082434145
-0.08362995782
-0.08480820535
-0.08596896585
-0.0871101002
-0.08823053958
-0.08933123684
-0.09041101546
-0.09146809717
-0.09249864063
-0.09350615329
-0.09448721347
-0.09544049562
-0.09636109646
-0.09724587644
-0.0980966027
-0.0989117279
-0.09968940662
-0.1004317352
-0.1011326852
-0.1017942376
-0.1024056165
-0.1029755785
-0.1034913234
-0.103975154
-0.1044168502
-0.1048151082
-0.1051807429
-0.1056444807
-0.10626889
-0.1072449695
-0.1082185822
-0.1091714723
-0.1101244313
)


101
(
-1.826278984e-05
-0.0005193463877
-0.001003429155
-0.001518670553
-0.002083150089
-0.002701592715
-0.003369829729
-0.004098167156
-0.004876188987
-0.005703026463
-0.006575769683
-0.007493433525
-0.00844922201
-0.009451431835
-0.01049209081
-0.0115660463
-0.01267550366
-0.0138254378
-0.01499668928
-0.01620755724
-0.01744819366
-0.01870275936
-0.01998449369
-0.02129720903
-0.02263020287
-0.02397669142
-0.02533543936
-0.02670565835
-0.02808803813
-0.02948301663
-0.03088867121
-0.032301339
-0.03371151063
-0.03512308252
-0.03655266059
-0.0379939576
-0.03943869051
-0.04088067983
-0.04231647084
-0.04375082743
-0.04519198694
-0.04663950862
-0.0480828948
-0.04952163852
-0.0509564724
-0.05238433963
-0.05380628332
-0.05522136709
-0.05663140978
-0.05803605173
-0.05943631956
-0.06083055891
-0.0622176
-0.06359692655
-0.06496811026
-0.06633001436
-0.06768117809
-0.06902476095
-0.07035807857
-0.0716818617
-0.07299455957
-0.07429599434
-0.0755853307
-0.0768611438
-0.07812391718
-0.07937264112
-0.0806077168
-0.08182825574
-0.08303294202
-0.08422093226
-0.08539230491
-0.08654506833
-0.08767792703
-0.08879174836
-0.08988579529
-0.09095859506
-0.09200564101
-0.09302985931
-0.09402837487
-0.0950011336
-0.0959440278
-0.09685214824
-0.0977256359
-0.09856321788
-0.09936378498
-0.1001296724
-0.1008544601
-0.1015407954
-0.1021807895
-0.1027783245
-0.1033201242
-0.1038299983
-0.1042979431
-0.1047258869
-0.105119779
-0.1056173451
-0.1062800549
-0.1072559795
-0.1082294806
-0.1091824179
-0.110135377
)


101
(
-1.82627898e-05
-0.0005195373241
-0.001003784005
-0.001518104539
-0.002080441621
-0.002695576543
-0.003359518725
-0.004081814884
-0.004853135066
-0.005672066389
-0.006535913867
-0.007443505301
-0.00838883022
-0.009378028378
-0.01040559119
-0.01146618611
-0.0125606617
-0.01369318244
-0.0148503417
-0.01604142489
-0.01726403728
-0.01850377993
-0.01976596682
-0.02105706304
-0.02237056357
-0.02369937456
-0.02504078464
-0.02639369719
-0.0277579524
-0.02913444537
-0.03052213686
-0.03191856911
-0.03331725608
-0.03471318273
-0.03612139732
-0.03754137079
-0.03896848528
-0.0403976594
-0.04182349722
-0.04324603162
-0.04467116264
-0.04610263398
-0.04753282312
-0.04895993888
-0.0503844212
-0.0518033027
-0.05321732639
-0.05462477073
-0.0560269446
-0.05742338073
-0.05881563351
-0.06020284086
-0.06158401675
-0.06295837873
-0.0643254751
-0.06568446241
-0.06703321978
-0.06837460311
-0.06970637179
-0.0710296446
-0.07234302265
-0.0736462821
-0.07493861361
-0.07621845357
-0.07748594369
-0.07873979894
-0.07998059332
-0.08120793242
-0.08242078024
-0.08361815227
-0.08479983891
-0.08596386439
-0.08710884072
-0.08823560359
-0.08934364424
-0.09043181065
-0.09149533282
-0.09253653958
-0.09355249956
-0.0945438456
-0.09550766404
-0.09643920441
-0.09733674664
-0.09819809582
-0.09902237931
-0.09981239803
-0.1005617913
-0.10127363
-0.1019412087
-0.1025687441
-0.1031387307
-0.1036763102
-0.1041722679
-0.1046308746
-0.1050551679
-0.1055865638
-0.1062903681
-0.1072665099
-0.1082399653
-0.1091906733
-0.1101410157
)


101
(
-1.82627898e-05
-0.0005197327643
-0.001004153581
-0.001517572268
-0.002077788085
-0.00268963895
-0.00334931203
-0.004065636539
-0.004830267457
-0.005641352815
-0.006496360203
-0.007393969314
-0.008328849585
-0.00930534015
-0.01031979555
-0.0113670361
-0.01244678828
-0.01356234187
-0.01470473056
-0.01587714345
-0.01708140433
-0.0183054975
-0.01954928934
-0.02081952274
-0.0221130125
-0.02342347201
-0.02474729834
-0.02608285372
-0.02742922794
-0.02878730065
-0.03015668022
-0.03153603319
-0.03292131378
-0.03430311611
-0.03569299807
-0.03709250233
-0.03850041359
-0.03991384004
-0.04132730532
-0.04273810818
-0.04414934846
-0.04556574551
-0.0469820206
-0.04839665603
-0.04980980803
-0.05121861484
-0.05262381695
-0.05402325328
-0.05541764469
-0.0568061292
-0.05819027854
-0.05956989041
-0.06094456728
-0.06231355492
-0.06367623292
-0.06503184111
-0.06637800492
-0.06771707567
-0.06904694311
-0.07036900228
-0.07168218616
-0.07298648263
-0.07428115888
-0.07556464104
-0.07683673214
-0.0780957116
-0.0793419476
-0.08057539041
-0.08179553527
-0.08300166863
-0.0841933528
-0.08536838223
-0.08652520435
-0.08766459015
-0.08878622271
-0.08988928777
-0.09096908368
-0.0920274104
-0.09306106983
-0.09407089251
-0.09505475934
-0.0960087677
-0.09693067778
-0.09781685335
-0.09866600814
-0.09948119075
-0.1002557647
-0.1009939584
-0.1016887994
-0.1023472052
-0.1029472424
-0.1035145008
-0.1040402597
-0.1045302154
-0.1049874337
-0.1055548035
-0.1062993508
-0.1072744824
-0.1082462747
-0.1091915958
-0.1101356505
)


101
(
-1.82627932e-05
-0.0005199328871
-0.001004538367
-0.001517074588
-0.002075190747
-0.002683781483
-0.003339211422
-0.004049632816
-0.004807591205
-0.005610887647
-0.006457111356
-0.007344824994
-0.008269287741
-0.009233340023
-0.01023472202
-0.01126861398
-0.01233385765
-0.01343286015
-0.01456002262
-0.0157145208
-0.01690038599
-0.01810814157
-0.01933419455
-0.02058436806
-0.02185771777
-0.02314926302
-0.02445513671
-0.02577319997
-0.02710184995
-0.0284416574
-0.02979255635
-0.03115414785
-0.03252440761
-0.03389220244
-0.03526586507
-0.03664661787
-0.03803520511
-0.03943099572
-0.04082967779
-0.04222757864
-0.04362565231
-0.04502801498
-0.04643048678
-0.04783224079
-0.04923343993
-0.05063130279
-0.05202674891
-0.05341753045
-0.05480396143
-0.056184724
-0.05756102929
-0.0589328308
-0.06030031146
-0.06166323814
-0.06302101347
-0.06437279401
-0.06571612926
-0.06705294357
-0.06838086746
-0.06970134986
-0.07101365497
-0.07231809109
-0.07361418242
-0.07490057182
-0.07617692839
-0.0774410709
-0.07869279322
-0.07993200219
-0.08115862258
-0.08237257705
-0.08357363081
-0.08475931721
-0.08592776861
-0.08707951006
-0.08821429838
-0.08933166583
-0.09042730211
-0.09150270405
-0.09255419012
-0.09358251733
-0.09458618855
-0.09556192355
-0.09650768566
-0.09741892849
-0.09829373335
-0.09913521296
-0.09993609442
-0.1007012748
-0.10142424
-0.1021131271
-0.1027451822
-0.1033436737
-0.1039012354
-0.1044234002
-0.1049157593
-0.1055214435
-0.1063061798
-0.107277727
-0.108244523
-0.1091778176
-0.1101064833
)


101
(
-1.82627932e-05
-0.0005201376586
-0.001004938295
-0.001516611538
-0.002072649784
-0.002678004257
-0.003329216838
-0.004033802108
-0.004785108562
-0.005580670375
-0.006418166639
-0.007296068075
-0.008210146945
-0.009162000255
-0.01015037615
-0.01117093062
-0.01222184366
-0.01330467572
-0.01441633678
-0.01555343232
-0.01672100945
-0.0179118991
-0.0191205323
-0.02035137172
-0.02160473188
-0.02287698045
-0.02416448508
-0.02546482226
-0.02677580903
-0.02809753722
-0.02942995209
-0.03077330512
-0.03212720524
-0.03348036045
-0.03483884103
-0.03620256451
-0.03757272291
-0.03895021724
-0.04033230161
-0.04171563633
-0.04310014157
-0.04448897482
-0.0458779853
-0.04726683613
-0.04865579604
-0.05004214181
-0.05142702773
-0.05280842757
-0.05418644862
-0.0555593986
-0.05692809379
-0.05829226573
-0.05965225337
-0.06100833869
-0.06236042343
-0.06370772418
-0.06504775954
-0.06638214495
-0.06770812376
-0.06902693663
-0.07033795925
-0.07164177814
-0.07293825674
-0.07422645524
-0.07550625271
-0.07677528454
-0.07803260544
-0.07927759818
-0.08051021686
-0.08173100869
-0.08294040465
-0.08413608443
-0.08531581089
-0.08647967832
-0.08762728202
-0.08875841962
-0.08986920668
-0.09096129203
-0.0920306381
-0.09307743245
-0.09410055185
-0.09509760926
-0.09606670196
-0.09700286443
-0.0979033738
-0.09877188806
-0.09960037841
-0.1003929397
-0.1011449529
-0.1018643397
-0.1025299837
-0.1031609724
-0.1037518871
-0.1043077223
-0.1048367115
-0.1054811429
-0.1063085501
-0.1072711563
-0.1082270441
-0.1091409033
-0.1100519348
)


101
(
-1.826278702e-05
-0.0005203470993
-0.001005353498
-0.001516183462
-0.002070165797
-0.00267230794
-0.003319328888
-0.004018143617
-0.004762822466
-0.005550702034
-0.006379526761
-0.007247696391
-0.008151430066
-0.009091300085
-0.01006676239
-0.01107399879
-0.01211072909
-0.01317773673
-0.01427375149
-0.01539381384
-0.01654328354
-0.01771692014
-0.01890824044
-0.02012032911
-0.02135401304
-0.02260678764
-0.02387554055
-0.02515783959
-0.0264511113
-0.02775492581
-0.02906898273
-0.03039386091
-0.03173040253
-0.03306793152
-0.03441137895
-0.03575928288
-0.03711229782
-0.03847182687
-0.03983638185
-0.04120365934
-0.04257353283
-0.04394859448
-0.04532435254
-0.04670040137
-0.04807707214
-0.04945163911
-0.05082534768
-0.05219655044
-0.05356554532
-0.05493033588
-0.05629138504
-0.05764806461
-0.05900060391
-0.06034944611
-0.06169498672
-0.06303689736
-0.06437281729
-0.06570428532
-0.06702813611
-0.06834521905
-0.06965478498
-0.07095751263
-0.07225354202
-0.0735423659
-0.07482433222
-0.0760973434
-0.07736007881
-0.07861101608
-0.07984963735
-0.08107668109
-0.08229330603
-0.08349788413
-0.08468819255
-0.08586386963
-0.08702407106
-0.0881685729
-0.08929374016
-0.09040165382
-0.09148857911
-0.09255388039
-0.09359599131
-0.09461372249
-0.09560572351
-0.09656662767
-0.0974926663
-0.0983879336
-0.0992449732
-0.1000656199
-0.1008465789
-0.1015971267
-0.102296673
-0.1029614419
-0.1035869366
-0.1041780271
-0.1047446948
-0.10542897
-0.1062999224
-0.1072471195
-0.1081851898
-0.1090723675
-0.1099562655
)


101
(
-1.826278902e-05
-0.000520561701
-0.001005785067
-0.001515792135
-0.002067741345
-0.002666695739
-0.003309551341
-0.004002660412
-0.004740740126
-0.005520989051
-0.006341198634
-0.007199715277
-0.008093147247
-0.009021229131
-0.009983890492
-0.01097784113
-0.01200051499
-0.01305200682
-0.01413233651
-0.01523563936
-0.01636721965
-0.01752335812
-0.01869733714
-0.01989109681
-0.02110547685
-0.02233878064
-0.02358849958
-0.02485242366
-0.0261278206
-0.02741381833
-0.02870971856
-0.03001609368
-0.03133461474
-0.03265552054
-0.03398347065
-0.03531607396
-0.03665308314
-0.03799558556
-0.03934260184
-0.04069283889
-0.04204686348
-0.0434073446
-0.04476963389
-0.04613287406
-0.04749724848
-0.04885996045
-0.05022217982
-0.05158250284
-0.05294161136
-0.05429761473
-0.05565071628
-0.05699988685
-0.05834503361
-0.05968653509
-0.06102502554
-0.06236064526
-0.06369145465
-0.06501916855
-0.06634041657
-0.06765560143
-0.0689636148
-0.07026503887
-0.0715601101
-0.07284861884
-0.07413144492
-0.07540702475
-0.07667431023
-0.07793110795
-0.07917598617
-0.08040921624
-0.08163232866
-0.08284457787
-0.08404441737
-0.08523129941
-0.08640384135
-0.0875613692
-0.0887003955
-0.08982325725
-0.09092679216
-0.09201031122
-0.09307126809
-0.09410875009
-0.09512281784
-0.09610824197
-0.09705988374
-0.09798091967
-0.09886638661
-0.09971611471
-0.1005257926
-0.1013074457
-0.1020406398
-0.1027400358
-0.103400728
-0.1040283217
-0.1046333064
-0.1053587184
-0.1062727219
-0.107197431
-0.1081110902
-0.1089683786
-0.1098213791
)


101
(
-1.826279048e-05
-0.0005207814439
-0.001006232986
-0.001515437667
-0.002065376718
-0.002661167933
-0.003299884276
-0.003987351069
-0.004718863348
-0.005491531968
-0.006303182223
-0.00715212201
-0.008035299836
-0.008951768856
-0.009901754536
-0.01088246707
-0.01189119374
-0.01292744128
-0.01399212372
-0.01507888913
-0.01619280776
-0.01733130603
-0.01848785333
-0.0196635625
-0.02085900127
-0.02207295876
-0.02330349033
-0.02454873444
-0.02580601885
-0.02707419192
-0.02835212968
-0.02964015149
-0.03094032776
-0.03224378374
-0.03355544717
-0.03487262683
-0.03619430916
-0.03752083574
-0.03885093299
-0.04018387583
-0.04152112169
-0.04286593375
-0.04421398956
-0.04556415748
-0.04691613698
-0.04826692691
-0.04961752927
-0.05096655604
-0.05231503357
-0.05366144268
-0.05500594795
-0.05634730629
-0.05768504968
-0.05901922289
-0.06035045783
-0.06167922319
-0.06300402603
-0.06432693359
-0.06564478793
-0.06695766153
-0.06826394557
-0.06956401681
-0.070857973
-0.07214565853
-0.07342828791
-0.07470501197
-0.07597541237
-0.07723731572
-0.07848847897
-0.07972814169
-0.08095760333
-0.08217663838
-0.08338470676
-0.0845817298
-0.0857660951
-0.08693649699
-0.08808910668
-0.08922625773
-0.09034534751
-0.0914462501
-0.09252590352
-0.09358243862
-0.09461725981
-0.09562641781
-0.09660370232
-0.09754998306
-0.09846258061
-0.09934171703
-0.1001807645
-0.1009922513
-0.101758746
-0.102492938
-0.1031890596
-0.1038536105
-0.1044969821
-0.1052634933
-0.1062196496
-0.107116823
-0.1080022721
-0.1088331317
-0.1096609297
)


101
(
-1.826279732e-05
-0.0005210066687
-0.001006698
-0.001515121322
-0.002063073793
-0.002655726861
-0.003290330331
-0.003972217244
-0.004697197265
-0.005462335674
-0.006265482623
-0.00710492013
-0.007977894686
-0.00888291059
-0.009820355265
-0.01078789267
-0.01178276948
-0.01280401514
-0.0138531323
-0.01492356104
-0.01602005295
-0.01714085583
-0.01827986446
-0.01943768128
-0.02061450088
-0.02180932078
-0.02302063576
-0.02424695946
-0.02548584899
-0.02673607895
-0.027996179
-0.02926607355
-0.03054786133
-0.03183333609
-0.0331278939
-0.0344290679
-0.03573549792
-0.03704678854
-0.03836092632
-0.03967699212
-0.04099702307
-0.0423251633
-0.0436578895
-0.04499432101
-0.04633363152
-0.04767235104
-0.04901124902
-0.05034878574
-0.05168610884
-0.05302217543
-0.05435737359
-0.05569032941
-0.05702036272
-0.05834720786
-0.05967112264
-0.06099274043
-0.06231091428
-0.0636281242
-0.06494163484
-0.06625148928
-0.06755570513
-0.06885429222
-0.07014715266
-0.07143392038
-0.0727158342
-0.07399262971
-0.07526460804
-0.07653027836
-0.07778709202
-0.07903333012
-0.08026938641
-0.08149494922
-0.08271016328
-0.08391593685
-0.08511112974
-0.08629412545
-0.08746023976
-0.08861141693
-0.08974528372
-0.09086250274
-0.09196041435
-0.09303591925
-0.09409030035
-0.09512161183
-0.09612423313
-0.09709602939
-0.09803418498
-0.09894188627
-0.09981088297
-0.1006513002
-0.1014501814
-0.1022187818
-0.1029504363
-0.1036519454
-0.1043332139
-0.105139651
-0.1061375665
-0.1070079178
-0.1078672512
-0.1086794565
-0.1094816006
)


101
(
-1.826280408e-05
-0.0005212373216
-0.001007180121
-0.001514843268
-0.002060832953
-0.002650372952
-0.003280889802
-0.003957257764
-0.004675743205
-0.005433401078
-0.006228100807
-0.007058108258
-0.007920932777
-0.008814641674
-0.009739686743
-0.01069412385
-0.01167524211
-0.01268169526
-0.0137153638
-0.01476963306
-0.01584893821
-0.01695207174
-0.0180734459
-0.01921343613
-0.02037189471
-0.02154782661
-0.02273999989
-0.0239472528
-0.02516746593
-0.02639953859
-0.02764182027
-0.02889381598
-0.03015735323
-0.03142460914
-0.03270141708
-0.03398580366
-0.03527654276
-0.03657281984
-0.0378718351
-0.03917182506
-0.04047486728
-0.04178573148
-0.04310201945
-0.04442362265
-0.04574968463
-0.04707610415
-0.04840314334
-0.04972910596
-0.05105501097
-0.05238011682
-0.05370525465
-0.05502921074
-0.05635106029
-0.05767033622
-0.05898696113
-0.06030126738
-0.06161241509
-0.06292326346
-0.0642315358
-0.06553756133
-0.06683922722
-0.06813602597
-0.06942768537
-0.07071358342
-0.07199481517
-0.07327119176
-0.07454361233
-0.07581149706
-0.07707270025
-0.07832515447
-0.0795680677
-0.08080041277
-0.08202239343
-0.08323568523
-0.08444023468
-0.0856349501
-0.08681458715
-0.08798000651
-0.08912819361
-0.09026082742
-0.0913762029
-0.09247076032
-0.09354444602
-0.09459632956
-0.09562302791
-0.09662088896
-0.09758412638
-0.09851894994
-0.09941792793
-0.1002875294
-0.1011178645
-0.1019203438
-0.1026866949
-0.10342511
-0.1041436726
-0.104988997
-0.1060280625
-0.1068766284
-0.1077170067
-0.1085232436
-0.1093328301
)


101
(
-1.826279047e-05
-0.0005214730075
-0.001007678628
-0.001514602571
-0.00205865311
-0.002645104756
-0.003271560649
-0.003942468643
-0.004654498896
-0.00540472526
-0.006191033493
-0.007011680253
-0.007864409491
-0.008746945036
-0.009659734153
-0.01060115692
-0.01156860498
-0.01256044647
-0.0135787952
-0.01461707412
-0.0156794313
-0.01676498145
-0.017868663
-0.01899082832
-0.0201311042
-0.02128839922
-0.02246158833
-0.02364973709
-0.02485104263
-0.02606467658
-0.02728901756
-0.02852325998
-0.0297688059
-0.03101785575
-0.03227651652
-0.03354337101
-0.03481767023
-0.03609863353
-0.03738290321
-0.03866770733
-0.03995446411
-0.04124803585
-0.04254707965
-0.04385262448
-0.04516443476
-0.04647808622
-0.04779307256
-0.04910734325
-0.05042174922
-0.05173555777
-0.05304996699
-0.05436420558
-0.05567737553
-0.05698872923
-0.05829795777
-0.05960501556
-0.06090890476
-0.0622128336
-0.0635151057
-0.06481648095
-0.06611492635
-0.06740955247
-0.06869976196
-0.06998476556
-0.07126550686
-0.07254145071
-0.07381381733
-0.07508274177
-0.07634697702
-0.07760466045
-0.07885427848
-0.08009383842
-0.0813229014
-0.08254326675
-0.08375581934
-0.08496078598
-0.08615348806
-0.08733337392
-0.0884963454
-0.08964391454
-0.09077562377
-0.09188897674
-0.09298254969
-0.09405441715
-0.09510378347
-0.0961277178
-0.09711681717
-0.09807770718
-0.09900641146
-0.0999061247
-0.1007670053
-0.1016037418
-0.10240373
-0.1031787609
-0.1039346503
-0.1048187909
-0.1058966661
-0.1067328864
-0.1075653157
-0.1083785302
-0.1092030445
)


101
(
-1.826279048e-05
-0.000521714869
-0.001008196178
-0.001514402843
-0.002056539363
-0.002639928798
-0.003262350657
-0.003927857783
-0.004633475712
-0.005376321323
-0.006154295995
-0.00696565189
-0.007808343447
-0.008679831001
-0.009580509724
-0.01050902063
-0.01146288631
-0.01244028033
-0.013443445
-0.01446589821
-0.01551154512
-0.01657966236
-0.01766563661
-0.01876995287
-0.01989213962
-0.02103101203
-0.02218542734
-0.0233545515
-0.02453681738
-0.02573172523
-0.02693788072
-0.02815435676
-0.02938214304
-0.03061321332
-0.03185361264
-0.03310240711
-0.03435946421
-0.03562439714
-0.03689374263
-0.03816396326
-0.03943532212
-0.04071224369
-0.0419938051
-0.04328224707
-0.0445784994
-0.0458785153
-0.04718114923
-0.04848360227
-0.04978642729
-0.05108878839
-0.05239205632
-0.05369592133
-0.05499980445
-0.05630283068
-0.05760443491
-0.05890424821
-0.06020092641
-0.06149768037
-0.06279329036
-0.06408913107
-0.06538352535
-0.06667550067
-0.06796394952
-0.06924796223
-0.07052825834
-0.0718039867
-0.07307633972
-0.07434576688
-0.07561195168
-0.07687359324
-0.07812925121
-0.07937624512
-0.08061306849
-0.08184103557
-0.08306116619
-0.08427489169
-0.08547916598
-0.08667351404
-0.08785218772
-0.08901510902
-0.09016255009
-0.09129414878
-0.09240800612
-0.09350049622
-0.09457186956
-0.09562155432
-0.09663790157
-0.09762502074
-0.09858301461
-0.0995139866
-0.1004052067
-0.101276834
-0.102111107
-0.1029222916
-0.1037164987
-0.1046394739
-0.1057552709
-0.1065914403
-0.1074285476
-0.1082574353
-0.1090909181
)


101
(
-1.826280408e-05
-0.0005219630779
-0.001008732864
-0.001514244911
-0.002054493033
-0.002634846765
-0.003253261601
-0.003913425863
-0.004612676032
-0.00534819184
-0.006117892173
-0.00692002645
-0.007752739415
-0.008613294988
-0.009502005976
-0.01041771842
-0.01135809359
-0.01232118645
-0.01330930812
-0.01431609919
-0.01534526358
-0.0163961362
-0.01746444443
-0.01855088784
-0.01965501414
-0.02077560603
-0.02191146783
-0.02306173933
-0.02422495907
-0.02540090802
-0.02658855647
-0.02778709633
-0.02899722724
-0.03021060747
-0.03143289539
-0.03266337715
-0.03390250092
-0.03515050314
-0.03640429157
-0.03765998373
-0.03891673293
-0.04017795007
-0.04144245456
-0.04271327658
-0.04399274867
-0.04527787874
-0.0465674867
-0.04785794983
-0.04914911728
-0.05043997328
-0.05173185998
-0.05302483241
-0.05431879765
-0.05561301423
-0.05690672647
-0.05819920433
-0.05948876534
-0.06077832955
-0.06206687107
-0.06335640142
-0.0646459032
-0.06593450466
-0.06722081338
-0.06850361533
-0.06978333901
-0.07105909264
-0.07233170077
-0.07360160854
-0.07486911574
-0.076133715
-0.07739456343
-0.07864864734
-0.07989379216
-0.08113042176
-0.08235881105
-0.08358072324
-0.08479508592
-0.08600303349
-0.08719782092
-0.08837746908
-0.08954143593
-0.09069071292
-0.09182499547
-0.09293938103
-0.09403316878
-0.09510817673
-0.096153164
-0.09716808331
-0.09815531661
-0.09911871995
-0.1000417508
-0.1009485033
-0.1018192901
-0.1026671585
-0.1035009181
-0.104463292
-0.1056183896
-0.1064655109
-0.1073175847
-0.1081663091
-0.1090239247
)


101
(
-1.826279052e-05
-0.0005222166706
-0.001009286548
-0.001514126242
-0.002052510921
-0.002629854554
-0.00324428826
-0.003899164957
-0.00459209198
-0.005320327512
-0.006081812129
-0.006874792144
-0.007697585121
-0.008547314519
-0.00942419519
-0.01032722641
-0.0112542102
-0.0122031342
-0.01317634483
-0.01416763528
-0.01518053421
-0.01621436827
-0.01726511414
-0.01833367862
-0.01941973992
-0.02052212138
-0.02163960423
-0.02277123637
-0.02391552283
-0.02507239471
-0.02624121181
-0.02742149868
-0.028613899
-0.02980978315
-0.03101426799
-0.03222647663
-0.03344725909
-0.03467751698
-0.03591481874
-0.03715546157
-0.03839791643
-0.03964434266
-0.04089275288
-0.04214616319
-0.04340801026
-0.04467687864
-0.04595232284
-0.04723033235
-0.0485097628
-0.04978910678
-0.05106952964
-0.05235123861
-0.05363464759
-0.05491947811
-0.05620493545
-0.05749000826
-0.05877256699
-0.06005507054
-0.06133642729
-0.06261906591
-0.06390283489
-0.06518721494
-0.06647089097
-0.06775218568
-0.06903115252
-0.07030697623
-0.07158005389
-0.07285073307
-0.07411949595
-0.07538657728
-0.07665173228
-0.07791226876
-0.07916589185
-0.08041219765
-0.08165026346
-0.08288120599
-0.08410507597
-0.08532512108
-0.08653579225
-0.08773354246
-0.08891578942
-0.09008308306
-0.09123794375
-0.09237574392
-0.09349325493
-0.09459376056
-0.09566829912
-0.09671344921
-0.09773066712
-0.09872781856
-0.09968517604
-0.1006279108
-0.1015371621
-0.1024236387
-0.1032984831
-0.1043022248
-0.1054983896
-0.106363656
-0.1072361504
-0.1081037399
-0.108979152
)


101
(
-1.826279048e-05
-0.0005224770234
-0.001009860339
-0.001514051112
-0.002050599069
-0.002624959932
-0.003235440015
-0.003885084777
-0.004571736437
-0.005292743431
-0.006046072668
-0.006829968626
-0.007642902715
-0.008481906907
-0.009347092777
-0.01023756867
-0.0111512707
-0.01208615636
-0.01304458784
-0.0140205207
-0.01501735851
-0.01603438691
-0.017067729
-0.01811845907
-0.01918644037
-0.02027062651
-0.02136983765