/*--------------------------------*- C++ -*----------------------------------*\
| =========                 |                                                 |
| \\      /  F ield         | OpenFOAM: The Open Source CFD Toolbox           |
|  \\    /   O peration     | Version:  2.3.1                                 |
|   \\  /    A nd           | Web:      www.OpenFOAM.org                      |
|    \\/     M anipulation  |                                                 |
\*---------------------------------------------------------------------------*/
FoamFile
{
    version     2.0;
    format      ascii;
    class       dictionary;
    location    "constant";
    object      GRPSI15;
}
// * * * * * * * * * * * * * * * * * * * * * * * * * * * * * * * * * * * * * //

GRPSI15_table
101
(

101
(
7.167963647e-10
9.372391411e-09
5.096001653e-08
1.449080269e-07
2.879363897e-07
4.653140721e-07
6.780070539e-07
9.219849286e-07
1.189791786e-06
1.481446795e-06
1.795697869e-06
2.128134072e-06
2.483173142e-06
2.853253493e-06
3.216377735e-06
3.564955375e-06
3.880957057e-06
4.124616767e-06
4.274236081e-06
4.310508132e-06
4.207102521e-06
3.94385189e-06
3.53060529e-06
3.006052367e-06
2.390486633e-06
1.717700013e-06
1.031987508e-06
3.550632662e-07
-2.846170248e-07
-8.58140459e-07
-1.354496412e-06
-1.756789852e-06
-2.118500945e-06
-2.408672763e-06
-2.59205665e-06
-1.349990737e-06
9.352134351e-07
-6.983753508e-07
-3.295497702e-06
-3.265215199e-06
-3.200468008e-06
-3.110064946e-06
-2.992911472e-06
-2.865586565e-06
-2.7208482e-06
-2.567469282e-06
-2.405218683e-06
-2.238080117e-06
-2.069746651e-06
-1.898552578e-06
-1.733168157e-06
-1.569880684e-06
-1.412242637e-06
-1.259435156e-06
-1.116954021e-06
-9.756728191e-07
-8.477796599e-07
-7.33416398e-07
-6.250398429e-07
-5.27821654e-07
-4.41467244e-07
-3.699179408e-07
-3.041270949e-07
-2.421903491e-07
-1.918109951e-07
-1.52893727e-07
-1.176052769e-07
-8.842609487e-08
-6.606253797e-08
-4.839087102e-08
-3.451887583e-08
-2.429524979e-08
-1.641311421e-08
-9.356069868e-09
-5.265572141e-09
-5.0337677e-09
-4.087742665e-09
-2.38038611e-09
-1.372815541e-09
-7.825237809e-10
-4.303035457e-10
-2.297150858e-10
-1.107693126e-10
-5.102503132e-11
-4.552290073e-11
-3.456187517e-11
-1.898378899e-11
-1.045240808e-11
-4.462270198e-12
-2.423541174e-12
-2.682124006e-12
-1.465167676e-12
-6.271948875e-13
-2.850601298e-13
-2.006787519e-13
-1.216220454e-13
-3.078294068e-14
3.62333244e-20
-2.659789421e-30
-2.901575191e-30
5.319579236e-30
)


101
(
5.992404274e-10
8.87910122e-09
4.895078537e-08
1.397085754e-07
2.779511199e-07
4.493500107e-07
6.541550787e-07
8.887425064e-07
1.145811519e-06
1.4250633e-06
1.725220634e-06
2.04258157e-06
2.380320484e-06
2.73321611e-06
3.08217179e-06
3.418196228e-06
3.726229096e-06
3.973832758e-06
4.135330752e-06
4.195087349e-06
4.129956782e-06
3.915813451e-06
3.559667666e-06
3.090778028e-06
2.527707259e-06
1.899943647e-06
1.247349595e-06
5.962484968e-07
-2.780781487e-08
-5.980872971e-07
-1.102442792e-06
-1.535484539e-06
-1.919954761e-06
-2.25679793e-06
-2.520937679e-06
-1.96182317e-06
-4.429975614e-07
-6.049299511e-07
-2.219214127e-06
-2.949938854e-06
-3.073227505e-06
-3.019353755e-06
-2.905890389e-06
-2.782306343e-06
-2.646797361e-06
-2.503053377e-06
-2.355444128e-06
-2.202193601e-06
-2.046175951e-06
-1.888136054e-06
-1.732331494e-06
-1.580222533e-06
-1.437497763e-06
-1.300246084e-06
-1.163121231e-06
-1.027185565e-06
-9.004310025e-07
-7.85999902e-07
-6.80640217e-07
-5.848631566e-07
-4.984438968e-07
-4.230737764e-07
-3.567671419e-07
-2.964857401e-07
-2.420124415e-07
-1.959411125e-07
-1.574745614e-07
-1.247865024e-07
-9.761025541e-08
-7.501779327e-08
-5.658555296e-08
-4.189824408e-08
-3.067763017e-08
-2.18638186e-08
-1.490483523e-08
-1.032245305e-08
-7.173783762e-09
-4.684336919e-09
-2.9417085e-09
-1.810550227e-09
-1.093571566e-09
-6.413847575e-10
-3.606107807e-10
-1.984723734e-10
-1.069603054e-10
-5.85860786e-11
-3.507540888e-11
-2.306021211e-11
-1.431593987e-11
-8.276122554e-12
-5.111056361e-12
-3.201165516e-12
-1.994643145e-12
-1.163464268e-12
-6.70712742e-13
-4.760507193e-13
-1.498899875e-13
1.830317294e-13
6.039592139e-13
1.538648776e-12
2.112412055e-12
)


101
(
4.875067113e-10
8.403235562e-09
4.700281899e-08
1.34672057e-07
2.683199894e-07
4.3406311e-07
6.315538892e-07
8.575929571e-07
1.105161119e-06
1.373764799e-06
1.66221926e-06
1.967547066e-06
2.292125837e-06
2.632680589e-06
2.973039756e-06
3.303559638e-06
3.611569675e-06
3.870717379e-06
4.053921695e-06
4.146960262e-06
4.129432558e-06
3.975416644e-06
3.687635559e-06
3.286894617e-06
2.788822868e-06
2.218239191e-06
1.610054699e-06
9.926451545e-07
3.902574927e-07
-1.716958167e-07
-6.784976061e-07
-1.132008561e-06
-1.536340347e-06
-1.917537502e-06
-2.255579799e-06
-2.043537021e-06
-1.104778777e-06
-7.977441907e-07
-1.590546328e-06
-2.398686871e-06
-2.790597894e-06
-2.876878505e-06
-2.814358562e-06
-2.722461726e-06
-2.616087202e-06
-2.49666992e-06
-2.376996244e-06
-2.253271678e-06
-2.124675173e-06
-1.993143396e-06
-1.859977698e-06
-1.725550299e-06
-1.595092725e-06
-1.473057295e-06
-1.354515937e-06
-1.235552931e-06
-1.117551202e-06
-1.003857617e-06
-8.980076913e-07
-7.989420918e-07
-7.067933415e-07
-6.243030622e-07
-5.483777797e-07
-4.770481825e-07
-4.115443061e-07
-3.534887756e-07
-3.019492573e-07
-2.546858933e-07
-2.134480344e-07
-1.775866613e-07
-1.457676015e-07
-1.171777009e-07
-9.269596683e-08
-7.330246367e-08
-5.681189504e-08
-4.306693776e-08
-3.190504606e-08
-2.291927503e-08
-1.609495226e-08
-1.110321493e-08
-7.517255085e-09
-4.954679212e-09
-3.157115371e-09
-1.976510634e-09
-1.174326416e-09
-6.520619081e-10
-3.404639316e-10
-1.900710556e-10
-1.190683133e-10
-6.859904058e-11
-3.852735864e-11
-2.247289072e-11
-1.374704594e-11
-8.898355381e-12
-5.534734138e-12
-4.431650812e-12
-3.235357949e-13
5.896039611e-12
2.06936697e-11
4.455061397e-11
5.579544311e-11
)


101
(
3.814689047e-10
7.944397834e-09
4.511436173e-08
1.297921981e-07
2.590249938e-07
4.194096984e-07
6.101069931e-07
8.283521048e-07
1.067507443e-06
1.326989326e-06
1.605791629e-06
1.901654945e-06
2.216509054e-06
2.54870718e-06
2.884929815e-06
3.215502575e-06
3.529716602e-06
3.806217106e-06
4.018347816e-06
4.1522243e-06
4.189478162e-06
4.103837666e-06
3.893487287e-06
3.57138937e-06
3.14973515e-06
2.648471955e-06
2.096478666e-06
1.522458269e-06
9.499210744e-07
4.027230324e-07
-9.991501322e-08
-5.630576135e-07
-9.776192079e-07
-1.387648646e-06
-1.844456126e-06
-1.820044204e-06
-1.238492138e-06
-9.187652142e-07
-1.206676873e-06
-1.817505972e-06
-2.340452911e-06
-2.59366346e-06
-2.644160198e-06
-2.619878024e-06
-2.556824378e-06
-2.474867972e-06
-2.392365194e-06
-2.30987103e-06
-2.224072902e-06
-2.134163643e-06
-2.040777674e-06
-1.938205565e-06
-1.834112616e-06
-1.735333185e-06
-1.63714123e-06
-1.542525409e-06
-1.448423351e-06
-1.347375702e-06
-1.249790314e-06
-1.154021746e-06
-1.058509185e-06
-9.701523395e-07
-8.861920211e-07
-8.051893645e-07
-7.295677197e-07
-6.580378718e-07
-5.907756215e-07
-5.237943558e-07
-4.596145265e-07
-4.038355344e-07
-3.528494578e-07
-3.028811652e-07
-2.556966566e-07
-2.152459103e-07
-1.794879836e-07
-1.475198206e-07
-1.189916514e-07
-9.353813355e-08
-7.179037591e-08
-5.408629217e-08
-4.043879914e-08
-2.968220238e-08
-2.106518697e-08
-1.471523675e-08
-1.000367723e-08
-6.530320296e-09
-3.9700176e-09
-2.287355209e-09
-1.40114748e-09
-8.642197652e-10
-4.831785503e-10
-2.524224025e-10
-1.405145647e-10
-8.221572239e-11
-5.03979647e-11
-3.993470406e-11
1.325402664e-11
1.171441094e-10
5.288390133e-10
1.320179895e-09
1.751472535e-09
)


101
(
2.810025034e-10
7.502203446e-09
4.32837374e-08
1.250630687e-07
2.500492402e-07
4.053491559e-07
5.89725448e-07
8.008517694e-07
1.032549578e-06
1.284235242e-06
1.555140091e-06
1.843707523e-06
2.151680682e-06
2.478785666e-06
2.814441351e-06
3.149402344e-06
3.474649517e-06
3.773021042e-06
4.019348655e-06
4.199699775e-06
4.297298623e-06
4.286558498e-06
4.161172676e-06
3.927142322e-06
3.592734242e-06
3.172599427e-06
2.689805476e-06
2.171692487e-06
1.640443324e-06
1.116461941e-06
6.252541132e-07
1.617743417e-07
-2.521213826e-07
-6.602387711e-07
-1.12137651e-06
-1.326210957e-06
-1.094044643e-06
-8.087929976e-07
-8.578136508e-07
-1.254210986e-06
-1.760125546e-06
-2.129280552e-06
-2.309975304e-06
-2.387188103e-06
-2.395353384e-06
-2.368534325e-06
-2.335773349e-06
-2.304051572e-06
-2.269403749e-06
-2.231703326e-06
-2.193841966e-06
-2.141645937e-06
-2.078138019e-06
-2.015596664e-06
-1.958505356e-06
-1.896310252e-06
-1.831632957e-06
-1.76166139e-06
-1.692622181e-06
-1.620471379e-06
-1.533852634e-06
-1.44956546e-06
-1.365600427e-06
-1.280498995e-06
-1.205788185e-06
-1.133557543e-06
-1.055461097e-06
-9.724525194e-07
-8.867856126e-07
-8.122401626e-07
-7.435746274e-07
-6.694623771e-07
-5.937078637e-07
-5.227832656e-07
-4.588315563e-07
-4.008714191e-07
-3.447430592e-07
-2.89773128e-07
-2.398219449e-07
-1.945898888e-07
-1.568485922e-07
-1.25172434e-07
-9.697026778e-08
-7.388442257e-08
-5.570135588e-08
-4.105479163e-08
-2.877282447e-08
-1.893663281e-08
-1.237958934e-08
-8.373516384e-09
-5.417649072e-09
-3.16794824e-09
-1.834983458e-09
-1.023602562e-09
-5.910610266e-10
-4.164836423e-10
4.395003584e-10
2.064068808e-09
8.605827128e-09
1.6737609e-08
1.915086442e-08
)


101
(
1.859840427e-10
7.076278959e-09
4.150934509e-08
1.204790613e-07
2.413768813e-07
3.918437043e-07
5.703275917e-07
7.749393588e-07
1.000018221e-06
1.245059652e-06
1.50957477e-06
1.792680375e-06
2.096139805e-06
2.42084494e-06
2.758794211e-06
3.101553163e-06
3.441598107e-06
3.765303485e-06
4.049681437e-06
4.280735562e-06
4.442956311e-06
4.512210794e-06
4.478085544e-06
4.3404009e-06
4.103649652e-06
3.776800357e-06
3.376898204e-06
2.929012741e-06
2.453692722e-06
1.96923548e-06
1.497692284e-06
1.039656932e-06
6.357373389e-07
2.380976578e-07
-2.187880651e-07
-5.486795543e-07
-5.764370326e-07
-4.286393995e-07
-3.919606454e-07
-6.216755275e-07
-1.050097442e-06
-1.466778142e-06
-1.755928863e-06
-1.947727866e-06
-2.053807751e-06
-2.102991532e-06
-2.126456976e-06
-2.143947484e-06
-2.166001845e-06
-2.194065464e-06
-2.228552002e-06
-2.247040409e-06
-2.242188649e-06
-2.226475075e-06
-2.221634652e-06
-2.215764776e-06
-2.201757969e-06
-2.17238375e-06
-2.146768601e-06
-2.12906244e-06
-2.076917878e-06
-2.016613545e-06
-1.954809936e-06
-1.877118558e-06
-1.812535149e-06
-1.75829632e-06
-1.695128993e-06
-1.621776193e-06
-1.523555996e-06
-1.431520665e-06
-1.35835799e-06
-1.275727589e-06
-1.181585637e-06
-1.082021199e-06
-9.867203953e-07
-8.952871491e-07
-8.068628021e-07
-7.220353782e-07
-6.352245394e-07
-5.458412536e-07
-4.626121319e-07
-3.920950948e-07
-3.285285235e-07
-2.685006165e-07
-2.178191578e-07
-1.755657983e-07
-1.373598629e-07
-1.017299877e-07
-7.313512449e-08
-5.330855146e-08
-3.888913715e-08
-2.599932908e-08
-1.698494129e-08
-1.084507687e-08
-6.782603126e-09
-4.811479128e-09
5.440815975e-09
2.429219623e-08
9.930195369e-08
1.880151967e-07
2.110714698e-07
)


101
(
9.629144147e-11
6.666261983e-09
3.978965626e-08
1.160348749e-07
2.329930547e-07
3.78858198e-07
5.518379588e-07
7.504750217e-07
9.696685854e-07
1.20906297e-06
1.468479714e-06
1.747667463e-06
2.048573811e-06
2.373088675e-06
2.715598923e-06
3.068802162e-06
3.426534977e-06
3.77816524e-06
4.103331333e-06
4.38814974e-06
4.618147991e-06
4.771325553e-06
4.83372266e-06
4.799501422e-06
4.670080212e-06
4.448956376e-06
4.146310152e-06
3.783901127e-06
3.380722499e-06
2.953009908e-06
2.5190006e-06
2.080182731e-06
1.693513982e-06
1.316233319e-06
8.760523886e-07
4.859411654e-07
2.824712963e-07
2.736358442e-07
2.975784136e-07
1.672069268e-07
-1.732682644e-07
-5.859986101e-07
-9.425215395e-07
-1.237407157e-06
-1.451440576e-06
-1.595096857e-06
-1.686519655e-06
-1.752542077e-06
-1.828917036e-06
-1.920948821e-06
-2.033708484e-06
-2.141457093e-06
-2.216972615e-06
-2.260752069e-06
-2.315306321e-06
-2.385301258e-06
-2.446224681e-06
-2.485133089e-06
-2.523282612e-06
-2.565873484e-06
-2.571376675e-06
-2.566042953e-06
-2.56119831e-06
-2.527218243e-06
-2.489409442e-06
-2.471243487e-06
-2.4516789e-06
-2.42001513e-06
-2.355010849e-06
-2.269489336e-06
-2.193539376e-06
-2.120690009e-06
-2.037708407e-06
-1.939596389e-06
-1.832697382e-06
-1.71468708e-06
-1.599769979e-06
-1.496186857e-06
-1.38223859e-06
-1.252235016e-06
-1.111134609e-06
-9.837651343e-07
-8.722398329e-07
-7.555313352e-07
-6.483896577e-07
-5.572810905e-07
-4.723602862e-07
-3.838068338e-07
-2.988707889e-07
-2.357038131e-07
-1.891110237e-07
-1.410106362e-07
-1.008616644e-07
-7.238928549e-08
-5.242709895e-08
-4.160098995e-08
6.056572097e-08
2.239260049e-07
7.040904561e-07
1.209279395e-06
1.300276744e-06
)


101
(
1.180385217e-11
6.271799424e-09
3.812320748e-08
1.117255146e-07
2.248839974e-07
3.663606493e-07
5.341884478e-07
7.273312995e-07
9.412781317e-07
1.17588754e-06
1.431308211e-06
1.707875001e-06
2.007842252e-06
2.333971476e-06
2.682824714e-06
3.04846009e-06
3.42603015e-06
3.807465365e-06
4.175267844e-06
4.515938478e-06
4.815867255e-06
5.055629283e-06
5.218581155e-06
5.29362709e-06
5.279917939e-06
5.176638071e-06
4.986470502e-06
4.72620746e-06
4.412924818e-06
4.061380693e-06
3.686338825e-06
3.286507716e-06
2.930058211e-06
2.58486885e-06
2.177236646e-06
1.773476606e-06
1.465174265e-06
1.323410477e-06
1.287108714e-06
1.193703364e-06
9.23367506e-07
5.465112209e-07
1.679630075e-07
-1.999128986e-07
-5.087848367e-07
-7.515332503e-07
-9.288161835e-07
-1.054079062e-06
-1.179081004e-06
-1.325173448e-06
-1.511796332e-06
-1.708122644e-06
-1.870800848e-06
-1.995389271e-06
-2.121118368e-06
-2.26134521e-06
-2.411472076e-06
-2.547944853e-06
-2.679434386e-06
-2.815145792e-06
-2.903180679e-06
-2.972581112e-06
-3.040266609e-06
-3.079692677e-06
-3.105919426e-06
-3.152356664e-06
-3.199982297e-06
-3.239040781e-06
-3.252178929e-06
-3.219639119e-06
-3.185270179e-06
-3.156951984e-06
-3.119002018e-06
-3.06268271e-06
-2.988944352e-06
-2.883822965e-06
-2.761936352e-06
-2.654318324e-06
-2.545710651e-06
-2.421630294e-06
-2.257196654e-06
-2.0679583e-06
-1.904997685e-06
-1.736133663e-06
-1.556427358e-06
-1.402439101e-06
-1.261894612e-06
-1.097543776e-06
-9.190614137e-07
-7.700614071e-07
-6.604811168e-07
-5.398573877e-07
-4.158904074e-07
-3.274472081e-07
-2.609624997e-07
-2.31593787e-07
3.730741975e-07
1.278617031e-06
3.392495074e-06
5.529395768e-06
5.858278903e-06
)


101
(
-6.759877179e-11
5.892548045e-09
3.650860098e-08
1.07546264e-07
2.170368923e-07
3.543218857e-07
5.173179584e-07
7.053924266e-07
9.146450141e-07
1.145212708e-06
1.397578947e-06
1.672611546e-06
1.972961605e-06
2.302163988e-06
2.65873915e-06
3.038252582e-06
3.4371711e-06
3.849670289e-06
4.261231051e-06
4.659058771e-06
5.030236169e-06
5.358046423e-06
5.624463609e-06
5.81355508e-06
5.922519855e-06
5.948161206e-06
5.885946157e-06
5.745698667e-06
5.541334895e-06
5.286742662e-06
4.994670387e-06
4.659150129e-06
4.352375646e-06
4.054116735e-06
3.694621467e-06
3.310931207e-06
2.956331606e-06
2.725893324e-06
2.622990967e-06
2.529259269e-06
2.311415957e-06
1.983535443e-06
1.611559906e-06
1.204222508e-06
8.29255934e-07
5.057662987e-07
2.451403877e-07
5.72005822e-08
-1.154056598e-07
-3.183310949e-07
-5.680562218e-07
-8.32568291e-07
-1.089648962e-06
-1.305466807e-06
-1.493498436e-06
-1.707278316e-06
-1.956018064e-06
-2.191581089e-06
-2.424691735e-06
-2.671712218e-06
-2.86984492e-06
-3.05688273e-06
-3.229985632e-06
-3.356784329e-06
-3.46081596e-06
-3.579508445e-06
-3.728298114e-06
-3.890214808e-06
-4.048728695e-06
-4.138173532e-06
-4.18794784e-06
-4.217342555e-06
-4.23691118e-06
-4.290865067e-06
-4.329277789e-06
-4.305770045e-06
-4.238556564e-06
-4.170435273e-06
-4.119021498e-06
-4.051444237e-06
-3.929287107e-06
-3.727819555e-06
-3.541444635e-06
-3.360503875e-06
-3.151715963e-06
-2.935212039e-06
-2.744515359e-06
-2.529943611e-06
-2.238657641e-06
-1.987034939e-06
-1.796059598e-06
-1.55137786e-06
-1.274711845e-06
-1.081952031e-06
-9.196304947e-07
-8.963611699e-07
1.576962581e-06
5.110780967e-06
1.175515943e-05
1.886571699e-05
2.033785003e-05
)


101
(
-1.420357296e-10
5.528172641e-09
3.494450034e-08
1.034926604e-07
2.094396572e-07
3.427145898e-07
5.011701556e-07
6.845526598e-07
8.895852061e-07
1.116747378e-06
1.366859319e-06
1.641261942e-06
1.943066478e-06
2.276506149e-06
2.641846974e-06
3.036239995e-06
3.457487501e-06
3.901778102e-06
4.357614067e-06
4.813262186e-06
5.256377608e-06
5.672632847e-06
6.044364695e-06
6.351624487e-06
6.589248114e-06
6.753305937e-06
6.833132026e-06
6.830435252e-06
6.754223948e-06
6.617218843e-06
6.432107796e-06
6.189527602e-06
5.959104729e-06
5.726372007e-06
5.432439778e-06
5.1020157e-06
4.755320227e-06
4.488619284e-06
4.338472074e-06
4.226599544e-06
4.036992052e-06
3.763108864e-06
3.43091609e-06
3.024097452e-06
2.619942035e-06
2.245066391e-06
1.922031157e-06
1.672859717e-06
1.447471035e-06
1.203715959e-06
9.210834458e-07
6.099138645e-07
2.766113534e-07
-2.813907739e-08
-3.043941232e-07
-5.821079685e-07
-9.171236382e-07
-1.252905769e-06
-1.569310908e-06
-1.933995426e-06
-2.254152168e-06
-2.565644975e-06
-2.872496588e-06
-3.12320579e-06
-3.344676471e-06
-3.558425442e-06
-3.817775883e-06
-4.121770149e-06
-4.431782615e-06
-4.682881133e-06
-4.882384702e-06
-5.063643089e-06
-5.216279654e-06
-5.385736628e-06
-5.570482046e-06
-5.728770011e-06
-5.818359425e-06
-5.833354352e-06
-5.896781494e-06
-6.010206616e-06
-6.012406644e-06
-5.879919617e-06
-5.726564943e-06
-5.618162252e-06
-5.511394153e-06
-5.25966361e-06
-5.06112014e-06
-4.883782771e-06
-4.531938888e-06
-4.214611199e-06
-3.954285602e-06
-3.579031465e-06
-3.117105613e-06
-2.796409059e-06
-2.551701049e-06
-2.587747286e-06
5.146362803e-06
1.554225606e-05
3.113219177e-05
4.926418656e-05
5.429541539e-05
)


101
(
-2.116252198e-10
5.178346849e-09
3.34296349e-08
9.956053583e-08
2.020810538e-07
3.315132152e-07
4.856923735e-07
6.6471698e-07
8.659369672e-07
1.090231247e-06
1.338757225e-06
1.613270259e-06
1.917383497e-06
2.255969844e-06
2.630836946e-06
3.040735514e-06
3.484838181e-06
3.961175077e-06
4.461245877e-06
4.974787139e-06
5.490114527e-06
5.994870361e-06
6.472748789e-06
6.901303395e-06
7.272797818e-06
7.583019351e-06
7.816854225e-06
7.968006682e-06
8.039258629e-06
8.040602582e-06
7.984639319e-06
7.861660302e-06
7.739146573e-06
7.600162822e-06
7.394752091e-06
7.149627306e-06
6.859927109e-06
6.60589165e-06
6.43992774e-06
6.319473352e-06
6.152634906e-06
5.937070333e-06
5.671983628e-06
5.307696253e-06
4.919384876e-06
4.529676369e-06
4.166547403e-06
3.86558495e-06
3.598674415e-06
3.335648708e-06
3.048458584e-06
2.727528098e-06
2.354483754e-06
1.959926298e-06
1.599287321e-06
1.288195785e-06
8.96975623e-07
4.773182422e-07
8.382906768e-08
-3.844036121e-07
-8.37737934e-07
-1.266694078e-06
-1.701207161e-06
-2.114224356e-06
-2.500145615e-06
-2.813316616e-06
-3.15604474e-06
-3.583045463e-06
-4.059487396e-06
-4.530775977e-06
-4.946167726e-06
-5.306616085e-06
-5.616371182e-06
-5.955185754e-06
-6.363933782e-06
-6.785488532e-06
-7.094926445e-06
-7.297195977e-06
-7.54860166e-06
-7.903019697e-06
-8.15205481e-06
-8.22843966e-06
-8.211967899e-06
-8.258101821e-06
-8.438924219e-06
-8.330327353e-06
-8.167417325e-06
-8.130860405e-06
-7.814907663e-06
-7.559988231e-06
-7.376860121e-06
-6.902093647e-06
-6.279975598e-06
-5.847205338e-06
-5.65572449e-06
-6.114207915e-06
1.358273228e-05
3.869250549e-05
6.75152331e-05
9.566989728e-05
9.988716261e-05
)


101
(
-2.764852655e-10
4.842750758e-09
3.196278158e-08
9.574593079e-08
1.949504991e-07
3.206938741e-07
4.708357988e-07
6.457984958e-07
8.435549852e-07
1.065429716e-06
1.312919805e-06
1.58813904e-06
1.89522584e-06
2.239651622e-06
2.624572026e-06
3.050286761e-06
3.517376685e-06
4.025628761e-06
4.569461253e-06
5.140423508e-06
5.727778871e-06
6.320889324e-06
6.904856153e-06
7.456791285e-06
7.966567746e-06
8.42859867e-06
8.825689264e-06
9.145416719e-06
9.383300264e-06
9.544352552e-06
9.639733496e-06
9.661348256e-06
9.678708031e-06
9.667742898e-06
9.579983136e-06
9.450554056e-06
9.259903153e-06
9.068080361e-06
8.930453082e-06
8.830331341e-06
8.699052819e-06
8.550882742e-06
8.37791224e-06
8.100089554e-06
7.775484156e-06
7.411045254e-06
7.037622628e-06
6.713268662e-06
6.43145032e-06
6.168762123e-06
5.895639611e-06
5.600798089e-06
5.235036549e-06
4.797617028e-06
4.407961879e-06
4.067994475e-06
3.628692343e-06
3.153324385e-06
2.712233065e-06
2.199349787e-06
1.639509618e-06
1.088739913e-06
5.269225562e-07
-1.499578421e-08
-5.470973535e-07
-1.030541924e-06
-1.468962733e-06
-1.964622908e-06
-2.580636722e-06
-3.247591749e-06
-3.903703479e-06
-4.507078163e-06
-5.030835231e-06
-5.56817402e-06
-6.214398985e-06
-6.923764309e-06
-7.511180573e-06
-8.037365475e-06
-8.578369129e-06
-9.177197625e-06
-9.785477391e-06
-1.021795965e-05
-1.045049625e-05
-1.078865717e-05
-1.143721343e-05
-1.171302955e-05
-1.16613385e-05
-1.181135829e-05
-1.185307521e-05
-1.190249648e-05
-1.185438022e-05
-1.145970391e-05
-1.085729995e-05
-1.035200588e-05
-1.033957294e-05
-1.153737996e-05
2.942835631e-05
8.001946867e-05
0.000127779318
0.0001750952414
0.000183209113
)


101
(
-3.367333327e-10
4.521071451e-09
3.054276832e-08
9.204509605e-08
1.880380266e-07
3.10234106e-07
4.565550401e-07
6.277186129e-07
8.223083627e-07
1.042129361e-06
1.289029715e-06
1.56542594e-06
1.875985654e-06
2.226756001e-06
2.622060731e-06
3.063661676e-06
3.553550984e-06
4.09325816e-06
4.680026989e-06
5.307332723e-06
5.965830364e-06
6.646566018e-06
7.335574929e-06
8.011003803e-06
8.661634742e-06
9.280437017e-06
9.849249613e-06
1.035106432e-05
1.07740171e-05
1.111639607e-05
1.138662648e-05
1.157852212e-05
1.176542483e-05
1.191653115e-05
1.198013712e-05
1.199836146e-05
1.194413735e-05
1.186083326e-05
1.180485546e-05
1.177061046e-05
1.17028899e-05
1.16389145e-05
1.157753089e-05
1.142030643e-05
1.120784515e-05
1.092872099e-05
1.060221473e-05
1.029433198e-05
1.002794221e-05
9.791548924e-06
9.556721956e-06
9.321792733e-06
9.015528698e-06
8.612597357e-06
8.226636835e-06
7.885010356e-06
7.438274257e-06
6.946853424e-06
6.500727041e-06
5.987651086e-06
5.389064173e-06
4.764023047e-06
4.107611932e-06
3.439409526e-06
2.814916985e-06
2.208437516e-06
1.625777428e-06
1.068687414e-06
3.634997529e-07
-4.475502667e-07
-1.286486496e-06
-2.166160855e-06
-2.967574821e-06
-3.711155958e-06
-4.539712387e-06
-5.518869985e-06
-6.486613244e-06
-7.354490727e-06
-8.230952253e-06
-9.2194556e-06
-1.023859833e-05
-1.110327318e-05
-1.177130697e-05
-1.244793115e-05
-1.357253512e-05
-1.460044636e-05
-1.497913843e-05
-1.534505535e-05
-1.590041073e-05
-1.654839582e-05
-1.679775184e-05
-1.661288798e-05
-1.637453419e-05
-1.601633993e-05
-1.629489606e-05
-1.84441818e-05
5.668736546e-05
0.0001463188116
0.0002146205563
0.0002782954991
0.0002864795975
)


101
(
-3.924864043e-10
4.213002055e-09
2.91684681e-08
8.845448016e-08
1.813342683e-07
3.001126568e-07
4.428073289e-07
6.104075389e-07
8.020834203e-07
1.02013383e-06
1.266796274e-06
1.544735168e-06
1.859111734e-06
2.216560113e-06
2.622421216e-06
3.079829872e-06
3.592152021e-06
4.162586385e-06
4.791109876e-06
5.472974831e-06
6.200718197e-06
6.967495983e-06
7.76011769e-06
8.558468212e-06
9.350952436e-06
1.012979359e-05
1.087721316e-05
1.157312239e-05
1.219835348e-05
1.274305132e-05
1.321224003e-05
1.360164738e-05
1.398696044e-05
1.433122521e-05
1.457947985e-05
1.477888288e-05
1.489901069e-05
1.497154376e-05
1.505396677e-05
1.514003624e-05
1.517556434e-05
1.522194225e-05
1.529519674e-05
1.528841599e-05
1.523074008e-05
1.509815983e-05
1.488885791e-05
1.466320374e-05
1.446789725e-05
1.428634529e-05
1.410523436e-05
1.397438283e-05
1.378782065e-05
1.347674539e-05
1.31416721e-05
1.28734293e-05
1.249183309e-05
1.203927844e-05
1.163445224e-05
1.117399941e-05
1.060599878e-05
9.953990472e-06
9.276137275e-06
8.585321034e-06
7.900070201e-06
7.180524051e-06
6.503411461e-06
5.859449796e-06
5.124848686e-06
4.291199003e-06
3.346665458e-06
2.249687198e-06
1.145637477e-06
1.507450746e-07
-8.728959512e-07
-2.03486159e-06
-3.252095826e-06
-4.538845719e-06
-5.834524724e-06
-7.208857645e-06
-8.665081555e-06
-1.00512585e-05
-1.132389696e-05
-1.239963855e-05
-1.394916548e-05
-1.590756691e-05
-1.70965249e-05
-1.785030252e-05
-1.88984433e-05
-2.03919654e-05
-2.128807387e-05
-2.155595199e-05
-2.179793854e-05
-2.182055955e-05
-2.261216081e-05
-2.55152679e-05
9.737642717e-05
0.0002397143193
0.0003273507435
0.0004086412605
0.0004195567791
)


101
(
-4.438614913e-10
3.918240978e-09
2.78387957e-08
8.4970709e-08
1.748304368e-07
2.90309733e-07
4.295527804e-07
5.938008773e-07
7.827788412e-07
9.992670048e-07
1.245957692e-06
1.525716118e-06
1.844119281e-06
2.208427791e-06
2.624875749e-06
3.097889279e-06
3.632157503e-06
4.232387475e-06
4.901291225e-06
5.635434007e-06
6.429597365e-06
7.279876243e-06
8.174098035e-06
9.09439282e-06
1.002881315e-05
1.096918882e-05
1.189919858e-05
1.279768612e-05
1.364018229e-05
1.440832053e-05
1.510094082e-05
1.571357257e-05
1.632465663e-05
1.689280165e-05
1.735985691e-05
1.777663021e-05
1.811160281e-05
1.838896641e-05
1.866289987e-05
1.892373742e-05
1.911632944e-05
1.93156837e-05
1.955210724e-05
1.972159345e-05
1.985605804e-05
1.992673825e-05
1.990539973e-05
1.983654971e-05
1.977616537e-05
1.970398151e-05
1.962579455e-05
1.964177862e-05
1.962464662e-05
1.947652303e-05
1.928449067e-05
1.915162747e-05
1.890977522e-05
1.85554015e-05
1.823976268e-05
1.791994172e-05
1.747615381e-05
1.68635873e-05
1.623828567e-05
1.564404996e-05
1.496585934e-05
1.422465137e-05
1.348686279e-05
1.281130685e-05
1.212579952e-05
1.128625507e-05
1.033946035e-05
9.177468119e-06
7.880193426e-06
6.630904381e-06
5.364272521e-06
4.092104048e-06
2.713275322e-06
1.087371347e-06
-5.641221693e-07
-2.411376546e-06
-4.373737066e-06
-6.202848839e-06
-8.078931942e-06
-9.84179121e-06
-1.18462391e-05
-1.44541702e-05
-1.676674731e-05
-1.828951292e-05
-1.970666308e-05
-2.226430059e-05
-2.397740913e-05
-2.516281129e-05
-2.62234288e-05
-2.646462485e-05
-2.779854117e-05
-3.176802119e-05
0.0001506005708
0.0003572469067
0.0004608397606
0.0005625084415
0.0005818009425
)


101
(
-4.909754014e-10
3.636492003e-09
2.655270805e-08
8.15905811e-08
1.685182534e-07
2.80806933e-07
4.167542434e-07
5.77839246e-07
7.643042848e-07
9.793779467e-07
1.226274255e-06
1.508048911e-06
1.830593455e-06
2.201821026e-06
2.628762763e-06
3.117020943e-06
3.672574083e-06
4.30143923e-06
5.008876183e-06
5.792717084e-06
6.650292348e-06
7.581213593e-06
8.574346358e-06
9.614622024e-06
1.06903694e-05
1.179244102e-05
1.290619284e-05
1.401180017e-05
1.508292176e-05
1.609455025e-05
1.703625603e-05
1.78970856e-05
1.875892273e-05
1.958011809e-05
2.029957173e-05
2.097076217e-05
2.156182418e-05
2.209268014e-05
2.261109819e-05
2.310511038e-05
2.351116625e-05
2.390952586e-05
2.43516949e-05
2.474037418e-05
2.510685986e-05
2.542037347e-05
2.565132948e-05
2.581858569e-05
2.596119091e-05
2.607975788e-05
2.618401266e-05
2.638542317e-05
2.658582536e-05
2.668179455e-05
2.671779146e-05
2.679721466e-05
2.678106608e-05
2.661926372e-05
2.646542005e-05
2.632195217e-05
2.610119129e-05
2.568270966e-05
2.522854803e-05
2.481724497e-05
2.423904832e-05
2.356320039e-05
2.289012008e-05
2.229366667e-05
2.167586959e-05
2.089306828e-05
2.005311355e-05
1.895022173e-05
1.764518822e-05
1.628977275e-05
1.474368161e-05
1.326694788e-05
1.179936352e-05
1.011094294e-05
8.189982398e-06
5.856903656e-06
3.462668401e-06
1.097881271e-06
-1.339086984e-06
-3.664206608e-06
-6.328677023e-06
-9.64524988e-06
-1.298064321e-05
-1.56206505e-05
-1.758985476e-05
-2.120560556e-05
-2.388360434e-05
-2.601714726e-05
-2.824849549e-05
-2.878154813e-05
-3.06856195e-05
-3.603944429e-05
0.0002154563015
0.0004944529099
0.0006068878939
0.0007031874696
0.0007105998566
)


101
(
-5.33944838e-10
3.367463584e-09
2.530919957e-08
7.831106671e-08
1.623899883e-07
2.715871924e-07
4.043770423e-07
5.624675376e-07
7.465790209e-07
9.603365604e-07
1.207528877e-06
1.491441409e-06
1.81817694e-06
2.196283878e-06
2.633522156e-06
3.136509411e-06
3.712462946e-06
4.368578815e-06
5.112247177e-06
5.943081303e-06
6.861117859e-06
7.869636305e-06
8.958352483e-06
1.011547952e-05
1.133119643e-05
1.259402012e-05
1.389040365e-05
1.520456684e-05
1.651167908e-05
1.778213714e-05
1.899571728e-05
2.013088845e-05
2.126907223e-05
2.237105511e-05
2.33763911e-05
2.433976238e-05
2.522749428e-05
2.605798035e-05
2.687403589e-05
2.765375553e-05
2.832861652e-05
2.898791168e-05
2.96880406e-05
3.033642707e-05
3.097886549e-05
3.15905894e-05
3.214006552e-05
3.26071001e-05
3.302371726e-05
3.342729162e-05
3.380705524e-05
3.425302286e-05
3.47303366e-05
3.513642813e-05
3.545740883e-05
3.584827738e-05
3.617559997e-05
3.630613067e-05
3.639596247e-05
3.652500645e-05
3.662795123e-05
3.654438335e-05
3.640641339e-05
3.621979325e-05
3.591516363e-05
3.549341285e-05
3.492981068e-05
3.446850105e-05
3.400563144e-05
3.344276346e-05
3.28059393e-05
3.186896174e-05
3.073236823e-05
2.943583625e-05
2.777549624e-05
2.597544012e-05
2.444925649e-05
2.282695501e-05
2.074987316e-05
1.824669517e-05
1.543201464e-05
1.23503459e-05
9.388990275e-06
6.540323104e-06
3.2397665e-06
-7.625025133e-07
-5.099520949e-06
-9.078637826e-06
-1.193822605e-05
-1.637183807e-05
-2.02566481e-05
-2.336516939e-05
-2.683880812e-05
-2.80274082e-05
-3.008654409e-05
-3.606153188e-05
0.0002886214889
0.0006417728479
0.0007579689547
0.000858302276
0.0008665961049
)


101
(
-5.72886815e-10
3.110865621e-09
2.410729326e-08
7.512927619e-08
1.564384024e-07
2.626346984e-07
3.923888451e-07
5.476324033e-07
7.29527659e-07
9.420327557e-07
1.189533162e-06
1.475629381e-06
1.806549831e-06
2.191411408e-06
2.638662839e-06
3.155750439e-06
3.751071067e-06
4.432950822e-06
5.210157029e-06
6.085135064e-06
7.060754045e-06
8.143393116e-06
9.323685575e-06
1.059316414e-05
1.194599033e-05
1.336811352e-05
1.484558621e-05
1.636799985e-05
1.791477992e-05
1.945334241e-05
2.095545107e-05
2.238989333e-05
2.383166697e-05
2.524205823e-05
2.656630933e-05
2.785981701e-05
2.908303976e-05
3.025231957e-05
3.141080044e-05
3.253120378e-05
3.353872032e-05
3.451809843e-05
3.552939011e-05
3.649292179e-05
3.746676673e-05
3.843167387e-05
3.935487144e-05
4.0196111e-05
4.09724635e-05
4.1737022e-05
4.248192649e-05
4.326913227e-05
4.4094549e-05
4.488606589e-05
4.557230574e-05
4.634782515e-05
4.709979542e-05
4.765243553e-05
4.812527989e-05
4.861756767e-05
4.912592568e-05