/*--------------------------------*- C++ -*----------------------------------*\
| =========                 |                                                 |
| \\      /  F ield         | OpenFOAM: The Open Source CFD Toolbox           |
|  \\    /   O peration     | Version:  2.3.1                                 |
|   \\  /    A nd           | Web:      www.OpenFOAM.org                      |
|    \\/     M anipulation  |                                                 |
\*---------------------------------------------------------------------------*/
FoamFile
{
    version     2.0;
    format      ascii;
    class       dictionary;
    location    "constant";
    object      GRPSI29;
}
// * * * * * * * * * * * * * * * * * * * * * * * * * * * * * * * * * * * * * //

GRPSI29_table
101
(

101
(
1.916057251e-36
1.765641705e-34
3.478730854e-33
2.716794759e-32
1.230354891e-31
3.93150936e-31
1.07658387e-30
2.597130948e-30
5.720900968e-30
1.184040112e-29
2.355822062e-29
4.498532466e-29
8.541189803e-29
1.592159758e-28
2.878424322e-28
5.089924974e-28
8.931830987e-28
1.47493924e-27
2.430928054e-27
3.843270036e-27
5.716616827e-27
8.424480296e-27
1.202749457e-26
1.635003986e-26
2.142172586e-26
2.715003795e-26
3.328948804e-26
3.967042782e-26
4.600098616e-26
5.195614452e-26
5.730301634e-26
6.172311327e-26
6.573737538e-26
6.886922009e-26
7.063092982e-26
2.606310271e-25
6.017420278e-25
4.541678811e-25
1.502255186e-25
1.401236674e-25
1.292361015e-25
1.169448452e-25
1.027553343e-25
8.860871352e-26
7.365932884e-26
5.809382155e-26
4.231679977e-26
2.637709644e-26
1.071076249e-26
-4.458772188e-27
-1.873554518e-26
-3.245429341e-26
-4.516392536e-26
-5.676245282e-26
-6.72885752e-26
-7.728268059e-26
-8.574934294e-26
-9.28396136e-26
-9.911240652e-26
-1.039525467e-25
-1.077886122e-25
-1.1053746e-25
-1.121968986e-25
-1.128298334e-25
-1.126645082e-25
-1.117293684e-25
-1.09929558e-25
-1.073908882e-25
-1.043274809e-25
-1.00737951e-25
-9.667811026e-26
-9.217464961e-26
-8.736345485e-26
1.354804129e-25
2.68045151e-25
-3.814437213e-27
-1.772232913e-25
-1.572541618e-25
-1.391451443e-25
-1.22444807e-25
-1.062409419e-25
-9.151820937e-26
2.110418537e-26
8.394780569e-26
-5.161406228e-26
-1.273191156e-25
-9.738320677e-26
-7.314407134e-26
-6.445122042e-27
-7.691588465e-27
-6.034090478e-26
-4.388105297e-26
-1.883012903e-26
-8.51224365e-27
-1.017634682e-26
-5.834802098e-27
-1.253123222e-27
3.496074847e-33
-6.446053232e-43
-8.280097353e-43
1.289210646e-42
)


101
(
1.304674817e-36
1.228026616e-34
2.280175977e-33
1.658453018e-32
7.207781156e-32
2.282629139e-31
6.075188693e-31
1.430531266e-30
3.094565445e-30
6.322423212e-30
1.244537782e-29
2.375871484e-29
4.479623914e-29
8.321008599e-29
1.513764012e-28
2.702628983e-28
4.751104677e-28
8.047770762e-28
1.338774613e-27
2.157120053e-27
3.332266621e-27
5.02337204e-27
7.346461918e-27
1.034789993e-26
1.40911956e-26
1.859684144e-26
2.381441548e-26
2.967917325e-26
3.6052316e-26
4.276813228e-26
4.966195213e-26
5.648806676e-26
6.373879083e-26
7.061408581e-26
7.675702256e-26
8.29556738e-26
8.869336584e-26
9.352093395e-26
9.767604533e-26
1.01076133e-25
1.030013314e-25
1.049128657e-25
1.066641114e-25
1.067595601e-25
1.066588224e-25
1.05893993e-25
1.042918473e-25
1.01950127e-25
9.873852408e-26
9.472339722e-26
8.983807942e-26
8.461254007e-26
7.854467339e-26
7.176860124e-26
6.452583887e-26
5.761673148e-26
4.912055072e-26
4.029564352e-26
3.178653315e-26
2.249769653e-26
1.328055154e-26
3.588616059e-27
-5.853337956e-27
-1.527838926e-26
-2.467293847e-26
-3.396864074e-26
-4.312532914e-26
-5.174352121e-26
-6.016854815e-26
-6.823238962e-26
-7.559321312e-26
-8.231253123e-26
-8.855596744e-26
-9.364845607e-26
-9.793377107e-26
-1.028692921e-25
-1.079022402e-25
-1.119383879e-25
-1.143983175e-25
-1.154246412e-25
-1.152813096e-25
-1.142488508e-25
-1.119437366e-25
-1.090246001e-25
-1.065848076e-25
-1.035742132e-25
-9.893712982e-26
-9.290742903e-26
-8.575907692e-26
-7.807093507e-26
-7.060920803e-26
-6.255434128e-26
-5.335153146e-26
-4.386010406e-26
-3.438416794e-26
-2.466473753e-26
5.033589453e-27
6.305025682e-26
1.826495489e-25
4.651056513e-25
6.612043518e-25
)


101
(
1.129253286e-36
1.165774687e-34
2.224936163e-33
1.651692109e-32
7.319669903e-32
2.363886534e-31
6.411440668e-31
1.539032051e-30
3.393794042e-30
7.065528763e-30
1.416512935e-29
2.754251692e-29
5.284639113e-29
9.996789162e-29
1.854685356e-28
3.380199084e-28
6.07094603e-28
1.054595438e-27
1.798552628e-27
2.979316265e-27
4.746459017e-27
7.375751346e-27
1.113899295e-26
1.624254439e-26
2.292150888e-26
3.137553993e-26
4.170546338e-26
5.398670228e-26
6.814589761e-26
8.402236316e-26
1.013869512e-25
1.196729912e-25
1.40418109e-25
1.619380259e-25
1.828316204e-25
2.04829341e-25
2.269040726e-25
2.488125058e-25
2.71094791e-25
2.922988226e-25
3.093491996e-25
3.266047641e-25
3.450306167e-25
3.592489487e-25
3.73015986e-25
3.855241694e-25
3.959749281e-25
4.043170905e-25
4.099090021e-25
4.125253833e-25
4.115404995e-25
4.08826486e-25
4.026312353e-25
3.926812017e-25
3.796030805e-25
3.675099656e-25
3.484876319e-25
3.256367133e-25
3.024540703e-25
2.748925017e-25
2.455445697e-25
2.121188899e-25
1.774616455e-25
1.411164264e-25
1.027781936e-25
6.250952231e-26
2.048097953e-26
-2.121774841e-26
-6.407640432e-26
-1.076538736e-25
-1.501297912e-25
-1.912236795e-25
-2.319576134e-25
-2.713226991e-25
-3.074499797e-25
-3.420166801e-25
-3.773145146e-25
-4.13850014e-25
-4.468494017e-25
-4.729783239e-25
-4.919551178e-25
-5.058560532e-25
-5.146290019e-25
-5.176108501e-25
-5.175023067e-25
-5.16479451e-25
-5.113644603e-25
-4.973761163e-25
-4.747460877e-25
-4.469067011e-25
-4.152236538e-25
-3.812909002e-25
-3.430311994e-25
-2.981918906e-25
-2.534126793e-25
-2.087525668e-25
1.54757971e-25
9.15217649e-25
2.28344534e-24
5.136502135e-24
7.041576691e-24
)


101
(
9.703631759e-37
1.105306313e-34
2.168766266e-33
1.642986153e-32
7.421978432e-32
2.44316215e-31
6.74866862e-31
1.650140291e-30
3.705881276e-30
7.853588589e-30
1.601685148e-29
3.167585926e-29
6.175532011e-29
1.1874992e-28
2.242092567e-28
4.161619525e-28
7.616711473e-28
1.352663524e-27
2.357967527e-27
4.001350683e-27
6.548900932e-27
1.045120944e-26
1.622883716e-26
2.438353378e-26
3.549078064e-26
5.013500596e-26
6.880873257e-26
9.19947139e-26
1.199549337e-25
1.527824795e-25
1.90378721e-25
2.318698082e-25
2.805019464e-25
3.338559251e-25
3.889678656e-25
4.486012973e-25
5.111581711e-25
5.770602422e-25
6.479311038e-25
7.200504769e-25
7.85167436e-25
8.516448009e-25
9.233559407e-25
9.886398069e-25
1.054343379e-24
1.119050082e-24
1.18100816e-24
1.239440559e-24
1.292408927e-24
1.338473365e-24
1.375300072e-24
1.407021018e-24
1.429308638e-24
1.440309706e-24
1.440580606e-24
1.441865238e-24
1.423267317e-24
1.390225773e-24
1.351790696e-24
1.297872135e-24
1.234397511e-24
1.154422813e-24
1.065208374e-24
9.66073507e-25
8.557813668e-25
7.337616536e-25
6.000664795e-25
4.611978316e-25
3.130262252e-25
1.564828352e-25
-2.983300897e-27
-1.63654697e-25
-3.281636566e-25
-4.962665086e-25
-6.6078196e-25
-8.180687303e-25
-9.732396704e-25
-1.138096267e-24
-1.304907881e-24
-1.458405641e-24
-1.587728673e-24
-1.694942436e-24
-1.784085829e-24
-1.853685883e-24
-1.902967804e-24
-1.938795778e-24
-1.967729969e-24
-1.974398699e-24
-1.940921403e-24
-1.877948189e-24
-1.791530469e-24
-1.685848165e-24
-1.568657167e-24
-1.42348768e-24
-1.272113974e-24
-1.128475455e-24
1.261770789e-24
5.989993142e-24
1.326708148e-23
2.703734169e-23
3.594281835e-23
)


101
(
8.270981829e-37
1.046644388e-34
2.11177275e-33
1.632351117e-32
7.514267898e-32
2.520118589e-31
7.085481952e-31
1.763429264e-30
4.029805894e-30
8.68466109e-30
1.799775375e-29
3.615674833e-29
7.152764466e-29
1.395812086e-28
2.676881448e-28
5.049767002e-28
9.396723154e-28
1.701310333e-27
3.023425043e-27
5.239519157e-27
8.779873209e-27
1.43437965e-26
2.281925259e-26
3.518814888e-26
5.261683267e-26
7.639481593e-26
1.078040445e-25
1.48207897e-25
1.987277973e-25
2.602566833e-25
3.333370209e-25
4.170914771e-25
5.174779492e-25
6.318908244e-25
7.557458083e-25
8.931310001e-25
1.041786181e-24
1.203640535e-24
1.383003826e-24
1.573319836e-24
1.757371225e-24
1.948313209e-24
2.154847862e-24
2.356353724e-24
2.564468389e-24
2.776268225e-24
2.988588571e-24
3.19906829e-24
3.403153553e-24
3.596348242e-24
3.772263092e-24
3.938034332e-24
4.084126649e-24
4.204909678e-24
4.299295622e-24
4.39318027e-24
4.44038288e-24
4.449578161e-24
4.438294988e-24
4.383884651e-24
4.298055114e-24
4.163225053e-24
3.994301082e-24
3.789793595e-24
3.545905273e-24
3.259538795e-24
2.929467807e-24
2.570493165e-24
2.172355333e-24
1.73753883e-24
1.278694575e-24
8.005389547e-25
2.985762925e-25
-2.300253535e-25
-7.708928787e-25
-1.306016301e-24
-1.831621658e-24
-2.381461636e-24
-2.957073394e-24
-3.532613454e-24
-4.066939102e-24
-4.536585992e-24
-4.94671206e-24
-5.305058667e-24
-5.603807086e-24
-5.844114532e-24
-6.047243247e-24
-6.212970084e-24
-6.275665164e-24
-6.22450071e-24
-6.077957057e-24
-5.845646193e-24
-5.573220198e-24
-5.213033477e-24
-4.823273324e-24
-4.474135459e-24
6.286331658e-24
2.619292414e-23
5.269976395e-23
9.884685266e-23
1.278070339e-22
)


101
(
6.985648424e-37
9.898080562e-35
2.054063467e-33
1.619809095e-32
7.59613183e-32
2.594420575e-31
7.420442535e-31
1.878438159e-30
4.364394134e-30
9.556271995e-30
2.010344335e-29
4.097875351e-29
8.215640969e-29
1.624567282e-28
3.15915371e-28
6.045488139e-28
1.141432757e-27
2.101661001e-27
3.798591217e-27
6.704276671e-27
1.146775154e-26
1.912581596e-26
3.107762003e-26
4.90189243e-26
7.504657164e-26
1.116115809e-25
1.613779008e-25
2.273307643e-25
3.123253159e-25
4.190356106e-25
5.496611014e-25
7.04152502e-25
8.927273183e-25
1.1137371e-24
1.361748869e-24
1.643154684e-24
1.955257397e-24
2.302884713e-24
2.695692399e-24
3.124669975e-24
3.559523351e-24
4.018867333e-24
4.517851527e-24
5.023582117e-24
5.55582109e-24
6.109103443e-24
6.678187112e-24
7.257900599e-24
7.839289436e-24
8.411945308e-24
8.961547828e-24
9.498335884e-24
1.000262117e-23
1.046113528e-23
1.086809634e-23
1.127233951e-23
1.158218442e-23
1.181076407e-23
1.198722265e-23
1.206397579e-23
1.206031001e-23
1.193712425e-23
1.172065367e-23
1.140634769e-23
1.098427453e-23
1.04444023e-23
9.780584979e-24
9.020451143e-24
8.13922865e-24
7.142859678e-24
6.055813486e-24
4.886726206e-24
3.630617505e-24
2.27910709e-24
8.53310428e-25
-6.088730333e-25
-2.072070984e-24
-3.591412967e-24
-5.181062919e-24
-6.828970146e-24
-8.472894341e-24
-1.000989007e-23
-1.139309083e-23
-1.264282862e-23
-1.375366402e-23
-1.472075164e-23
-1.555741758e-23
-1.629947186e-23
-1.684664485e-23
-1.71126503e-23
-1.705832224e-23
-1.672855192e-23
-1.627395027e-23
-1.557198583e-23
-1.477834461e-23
-1.41284114e-23
2.317839202e-23
8.812661376e-23
1.644179264e-22
2.893307654e-22
3.658903134e-22
)


101
(
5.838845154e-37
9.348127809e-35
1.99574737e-33
1.6053883e-32
7.667198697e-32
2.665736913e-31
7.75207327e-31
1.994674864e-30
4.708325793e-30
1.046542044e-29
2.232790988e-29
4.613090767e-29
9.362271777e-29
1.873404716e-28
3.688189442e-28
7.147495776e-28
1.366755287e-27
2.553530841e-27
4.68403953e-27
8.399209495e-27
1.462616431e-26
2.484034668e-26
4.11182164e-26
6.614686522e-26
1.033802822e-25
1.570332526e-25
2.319648425e-25
3.338398838e-25
4.685561717e-25
6.421188438e-25
8.601030095e-25
1.124933284e-24
1.453448871e-24
1.846972007e-24
2.301172582e-24
2.82698426e-24
3.422445376e-24
4.09760026e-24
4.871495382e-24
5.734605494e-24
6.64019143e-24
7.613579898e-24
8.67755152e-24
9.782602301e-24
1.096181795e-23
1.220691308e-23
1.351016821e-23
1.48620479e-23
1.62471323e-23
1.764536325e-23
1.902922108e-23
2.041117517e-23
2.175312334e-23
2.302744284e-23
2.421864072e-23
2.540959943e-23
2.64329639e-23
2.730721459e-23
2.807600247e-23
2.864687357e-23
2.904562899e-23
2.919303928e-23
2.912900259e-23
2.883981438e-23
2.830168099e-23
2.749072873e-23
2.638909224e-23
2.503986916e-23
2.338505431e-23
2.143501166e-23
1.923160823e-23
1.678523889e-23
1.409324961e-23
1.113917751e-23
7.948856294e-24
4.575478944e-24
1.113507248e-24
-2.50860594e-24
-6.28855139e-24
-1.023643995e-23
-1.43449358e-23
-1.841752984e-23
-2.223118188e-23
-2.574252802e-23
-2.894711475e-23
-3.187452522e-23
-3.450121424e-23
-3.686962547e-23
-3.889474573e-23
-4.041876526e-23
-4.111059795e-23
-4.102543324e-23
-4.060414752e-23
-3.958988046e-23
-3.833744237e-23
-3.744595438e-23
6.959365928e-23
2.465486007e-22
4.317294829e-22
7.187366031e-22
8.908230375e-22
)


101
(
4.821944917e-37
8.816701644e-35
1.936934067e-33
1.589122959e-32
7.727134081e-32
2.733742347e-31
8.078866361e-31
2.111619138e-30
5.060142232e-30
1.140859123e-29
2.466352905e-29
5.159765228e-29
1.058955056e-28
2.141649827e-28
4.26243838e-28
8.352333095e-28
1.614896603e-27
3.055375822e-27
5.677056706e-27
1.03203948e-26
1.825204431e-26
3.149554052e-26
5.298784199e-26
8.671901147e-26
1.380013178e-25
2.13554763e-25
3.214728699e-25
4.714985889e-25
6.743719507e-25
9.416504031e-25
1.284880234e-24
1.711702649e-24
2.249064127e-24
2.904506678e-24
3.678268596e-24
4.589818347e-24
5.640861687e-24
6.850531273e-24
8.253106648e-24
9.84273962e-24
1.155493348e-23
1.342463795e-23
1.548354174e-23
1.76600232e-23
2.000705121e-23
2.251495308e-23
2.517457406e-23
2.797041342e-23
3.087828862e-23
3.386433223e-23
3.688218255e-23
3.99448677e-23
4.298346232e-23
4.594568127e-23
4.879808251e-23
5.16697667e-23
5.427679799e-23
5.664342478e-23
5.883066998e-23
6.067272936e-23
6.219512958e-23
6.324904781e-23
6.388558113e-23
6.406960427e-23
6.374712065e-23
6.286948375e-23
6.139880061e-23
5.939478956e-23
5.673237764e-23
5.341671013e-23
4.951102747e-23
4.502063428e-23
3.994910337e-23
3.426870759e-23
2.800419899e-23
2.12026356e-23
1.404902541e-23
6.44482409e-24
-1.538418971e-24
-9.874031558e-24
-1.870517421e-23
-2.784495924e-23
-3.680802603e-23
-4.527405065e-23
-5.310408974e-23
-6.045647887e-23
-6.72665522e-23
-7.35203912e-23
-7.913021965e-23
-8.404972616e-23
-8.726235344e-23
-8.858956365e-23
-8.90733832e-23
-8.828064881e-23
-8.685046967e-23
-8.610164255e-23
1.790690754e-22
5.985044491e-22
9.927735951e-22
1.576164125e-21
1.919636001e-21
)


101
(
3.926487852e-37
8.303881151e-35
1.877733635e-33
1.571053296e-32
7.775642984e-32
2.798119514e-31
8.399291682e-31
2.228725664e-30
5.418254718e-30
1.238177101e-29
2.71010792e-29
5.735883134e-29
1.189314698e-28
2.428314454e-28
4.879530825e-28
9.654402812e-28
1.884572232e-27
3.604304772e-27
6.771615954e-27
1.24561759e-26
2.232474136e-26
3.906125723e-26
6.665580193e-26
1.107337093e-25
1.790189104e-25
2.815921017e-25
4.310263771e-25
6.428720877e-25
9.350134875e-25
1.327501082e-24
1.841436069e-24
2.493739536e-24
3.326351282e-24
4.357949192e-24
5.598693742e-24
7.0826916e-24
8.820728595e-24
1.084720525e-23
1.321986337e-23
1.594369e-23
1.893852276e-23
2.225503e-23
2.593642755e-23
2.988266797e-23
3.417334489e-23
3.880073996e-23
4.375824353e-23
4.902418237e-23
5.456382025e-23
6.032493627e-23
6.623567241e-23
7.230901455e-23
7.843236323e-23
8.451129637e-23
9.047994188e-23
9.652943791e-23
1.022067583e-22
1.075366596e-22
1.126011638e-22
1.171280311e-22
1.211307731e-22
1.243510591e-22
1.268354816e-22
1.285013137e-22
1.292340822e-22
1.289397717e-22
1.27562045e-22
1.251804722e-22
1.215560816e-22
1.166540621e-22
1.105377464e-22
1.031879612e-22
9.463401975e-23
8.485476838e-23
7.384257323e-23
6.158268887e-23
4.83912005e-23
3.410220532e-23
1.891270868e-23
2.999840207e-24
-1.39661802e-23
-3.197729545e-23
-5.039165909e-23
-6.838343663e-23
-8.526207081e-23
-1.013808859e-22
-1.166521685e-22
-1.30970077e-22
-1.441065297e-22
-1.565386076e-22
-1.660219129e-22
-1.715173105e-22
-1.751597098e-22
-1.762274981e-22
-1.756820173e-22
-1.762488892e-22
4.076074603e-22
1.296142164e-21
2.046306928e-21
3.108378689e-21
3.723983699e-21
)


101
(
3.144194621e-37
7.809706925e-35
1.818256046e-33
1.55122536e-32
7.812472504e-32
2.858561605e-31
8.711809361e-31
2.345428364e-30
5.780957252e-30
1.338047941e-29
2.962980527e-29
6.338981816e-29
1.326753615e-28
2.732107101e-28
5.536314944e-28
1.104607481e-27
2.173983358e-27
4.196146425e-27
7.958529488e-27
1.478739193e-26
2.680619766e-26
4.746834796e-26
8.200944327e-26
1.380263927e-25
2.262307708e-25
3.609910183e-25
5.607612259e-25
8.489083954e-25
1.253221766e-24
1.805880402e-24
2.542128172e-24
3.493658781e-24
4.723869376e-24
6.269553606e-24
8.158432656e-24
1.044770771e-23
1.316565727e-23
1.637111411e-23
2.01564075e-23
2.454826873e-23
2.945790571e-23
3.496193816e-23
4.112096418e-23
4.780151963e-23
5.511532084e-23
6.306066337e-23
7.164069729e-23
8.08315063e-23
9.058849875e-23
1.00835302e-22
1.114665292e-22
1.22496176e-22
1.337565947e-22
1.450937541e-22
1.563899067e-22
1.679016807e-22
1.789518043e-22
1.895541945e-22
1.998050099e-22
2.093011866e-22
2.180232661e-22
2.255532429e-22
2.319175487e-22
2.369419148e-22
2.403942718e-22
2.420813521e-22
2.419329382e-22
2.40070024e-22
2.360789587e-22
2.298620981e-22
2.214214879e-22
2.106690973e-22
1.976516638e-22
1.823486869e-22
1.64742464e-22
1.446963568e-22
1.226565439e-22
9.825094962e-23
7.191187342e-23
4.415969324e-23
1.437540794e-23
-1.767197717e-23
-5.148738473e-23
-8.570769093e-23
-1.183999896e-22
-1.501596917e-22
-1.807095559e-22
-2.098127095e-22
-2.370013541e-22
-2.6382126e-22
-2.862375102e-22
-3.013485901e-22
-3.127908414e-22
-3.192397915e-22
-3.21890346e-22
-3.257066694e-22
8.380829256e-22
2.546730502e-21
3.830647534e-21
5.555062187e-21
6.537256302e-21
)


101
(
2.466982411e-37
7.334182986e-35
1.758611047e-33
1.529690909e-32
7.837413239e-32
2.914774197e-31
9.014879612e-31
2.46114366e-30
6.146436018e-30
1.439979579e-29
3.223748529e-29
6.966166012e-29
1.470603166e-28
3.051445284e-28
6.228906659e-28
1.251784327e-27
2.480859558e-27
4.825564779e-27
9.225728913e-27
1.728799816e-26
3.164223587e-26
5.661054923e-26
9.885542548e-26
1.682672021e-25
2.79109353e-25
4.509808026e-25
7.096977178e-25
1.088639095e-24
1.628613472e-24
2.37815027e-24
3.392132075e-24
4.723902551e-24
6.466349579e-24
8.683658398e-24
1.143140827e-23
1.480093955e-23
1.884969288e-23
2.367346302e-23
2.941350769e-23
3.613333648e-23
4.374868043e-23
5.237765353e-23
6.210931477e-23
7.277598674e-23
8.452555276e-23
9.736582735e-23
1.113195268e-22
1.263684377e-22
1.424619269e-22
1.594964543e-22
1.773258581e-22
1.959631264e-22
2.151752933e-22
2.347434434e-22
2.544674276e-22
2.746596762e-22
2.943636693e-22
3.135660105e-22
3.323589638e-22
3.501783247e-22
3.669639499e-22
3.820622088e-22
3.954694767e-22
4.068970473e-22
4.158966149e-22
4.220328038e-22
4.252128479e-22
4.256572215e-22
4.227641392e-22
4.163754307e-22
4.063016491e-22
3.92219193e-22
3.742055445e-22
3.522982124e-22
3.265001847e-22
2.964132793e-22
2.625725484e-22
2.243144748e-22
1.8227077e-22
1.375345602e-22
8.921398335e-23
3.683321621e-23
-1.969882043e-23
-7.881663047e-23
-1.363636224e-22
-1.932781363e-22
-2.48957816e-22
-3.025143969e-22
-3.533216408e-22
-4.045821292e-22
-4.501237576e-22
-4.840210925e-22
-5.112847463e-22
-5.293410831e-22
-5.390044878e-22
-5.484105094e-22
1.573448948e-21
4.580259696e-21
6.557853107e-21
9.10202344e-21
1.054708968e-20
)


101
(
1.886967723e-37
6.877275168e-35
1.698907578e-33
1.506507218e-32
7.850301507e-32
2.966477582e-31
9.306974515e-31
2.575275564e-30
6.512786005e-30
1.543440463e-29
3.49105375e-29
7.614134923e-29
1.620085186e-28
3.384475298e-28
6.952758776e-28
1.405854311e-27
2.802517489e-27
5.486221994e-27
1.055867919e-26
1.992602086e-26
3.676471442e-26
6.634889856e-26
1.169271101e-25
2.009713139e-25
3.368136353e-25
5.501793105e-25
8.75710375e-25
1.359046613e-24
2.057318369e-24
3.040019107e-24
4.387855624e-24
6.183865923e-24
8.559820659e-24
1.161882324e-23
1.545743687e-23
2.021498591e-23
2.599315165e-23
3.294053839e-23
4.126476603e-23
5.108527472e-23
6.234211083e-23
7.521662657e-23
8.984391153e-23
1.060292228e-22
1.239616259e-22
1.436595464e-22
1.651735287e-22
1.885025306e-22
2.135997808e-22
2.403372011e-22
2.68522577e-22
2.981605431e-22
3.289442426e-22
3.605841777e-22
3.927660636e-22
4.258746204e-22
4.585974216e-22
4.908563602e-22
5.227024906e-22
5.533672745e-22
5.827762458e-22
6.099727627e-22
6.348891869e-22
6.570659952e-22
6.757804498e-22
6.90275811e-22
7.001882435e-22
7.058444294e-22
7.065773492e-22
7.021936616e-22
6.922765349e-22
6.760494969e-22
6.53469944e-22
6.24608001e-22
5.895789313e-22
5.476271032e-22
4.993640066e-22
4.438695352e-22
3.816110356e-22
3.142174728e-22
2.411019163e-22
1.615102439e-22
7.416110695e-23
-1.960700075e-23
-1.126604472e-22
-2.063340364e-22
-2.999481671e-22
-3.908205186e-22
-4.769741699e-22
-5.654501259e-22
-6.48182209e-22
-7.138042094e-22
-7.686511745e-22
-8.076822483e-22
-8.295752706e-22
-8.46360172e-22
2.713585403e-21
7.574649147e-21
1.028041435e-20
1.352637743e-20
1.535748068e-20
)


101
(
1.396482753e-37
6.438912565e-35
1.639253571e-33
1.481736934e-32
7.851020785e-32
3.013408704e-31
9.586588283e-31
2.687219677e-30
6.878025539e-30
1.647863906e-29
3.763413508e-29
8.279210295e-29
1.774319557e-28
3.729094412e-28
7.70273607e-28
1.565558743e-27
3.135930537e-27
6.170957367e-27
1.194087268e-26
2.266478602e-26
4.209437669e-26
7.651808524e-26
1.358969042e-25
2.355209805e-25
3.98226284e-25
6.566489679e-25
1.055597031e-24
1.655114407e-24
2.53192776e-24
3.781227676e-24
5.516088182e-24
7.858059973e-24
1.098813536e-23
1.50617394e-23
2.023217563e-23
2.670343194e-23
3.464002054e-23
4.426229523e-23
5.586397688e-23
6.96434667e-23
8.559142522e-23
1.039796063e-22
1.250144989e-22
1.484925987e-22
1.746528641e-22
2.035240752e-22
2.351875558e-22
2.696697895e-22
3.069437755e-22
3.468691862e-22
3.892079793e-22
4.339439186e-22
4.806800957e-22
5.290477513e-22
5.786238227e-22
6.298469519e-22
6.809912966e-22
7.318698763e-22
7.824315868e-22
8.316434487e-22
8.794113467e-22
9.244471137e-22
9.6659437e-22
1.005231184e-21
1.039153307e-21
1.067264294e-21
1.088850332e-21
1.103978208e-21
1.112009397e-21
1.112879975e-21
1.105940852e-21
1.090044425e-21
1.064675752e-21
1.029551645e-21
9.849112998e-22
9.299410514e-22
8.656363399e-22
7.899861056e-22
7.03468437e-22
6.084910177e-22
5.042375688e-22
3.903945161e-22
2.646102211e-22
1.261058659e-22
-1.427344417e-23
-1.564934819e-22
-3.017087037e-22
-4.454834229e-22
-5.806365955e-22
-7.20267225e-22
-8.56668375e-22
-9.704603729e-22
-1.067041933e-21
-1.138078665e-21
-1.178317396e-21
-1.203077712e-21
4.295180765e-21
1.150697382e-20
1.475148547e-20
1.836139823e-20
2.042682911e-20
)


101
(
9.880856144e-38
6.018987857e-35
1.579755562e-33
1.455447824e-32
7.839502914e-32
3.055323237e-31
9.852249208e-31
2.796367596e-30
7.240111529e-30
1.752653361e-29
4.039235265e-29
8.957374204e-29
1.932334223e-28
4.082979658e-28
8.47320326e-28
1.72952402e-27
3.477803882e-27
6.871999754e-27
1.335436707e-26
2.546427497e-26
4.754427303e-26
8.693426321e-26
1.553923476e-25
2.711958292e-25
4.620089104e-25
7.679942204e-25
1.245237402e-24
1.970055944e-24
3.041771793e-24
4.585794681e-24
6.754042452e-24
9.715632451e-24
1.371146945e-23
1.896390114e-23
2.570072894e-23
3.420973866e-23
4.474017079e-23
5.760596438e-23
7.320851248e-23
9.185074099e-23
1.136054176e-22
1.388658205e-22
1.679427349e-22
2.006555887e-22
2.373090581e-22
2.779443457e-22
3.22669651e-22
3.715417067e-22
4.245664426e-22
4.816189471e-22
5.424280888e-22
6.069310189e-22
6.746267607e-22
7.450620655e-22
8.177062695e-22
8.929979672e-22
9.687888562e-22
1.044754907e-21
1.12066469e-21
1.195112444e-21
1.267969011e-21
1.337620288e-21
1.403691416e-21
1.465374216e-21
1.521108357e-21
1.569355651e-21
1.60871745e-21
1.638967801e-21
1.658979306e-21
1.669002785e-21
1.668577425e-21
1.656267652e-21
1.631102597e-21
1.591748512e-21
1.538222611e-21
1.469434077e-21
1.387344431e-21
1.289857758e-21
1.17619984e-21
1.049069263e-21
9.077012269e-22
7.531722042e-22
5.826021872e-22
3.902721626e-22
1.907923734e-22
-1.131256484e-23
-2.20509995e-22
-4.329327381e-22
-6.324368297e-22
-8.36423649e-22
-1.04131958e-21
-1.220498814e-21
-1.375178817e-21
-1.488692429e-21
-1.551982952e-21
-1.587205858e-21
6.229998198e-21
1.603277049e-20
1.932918097e-20
2.252121251e-20
2.438490936e-20
)


101
(
6.545677717e-38
5.617357778e-35
1.520518295e-33
1.427712517e-32
7.815728989e-32
3.091997276e-31
1.010253038e-30
2.902112252e-30
7.596957967e-30
1.857187822e-29
4.316832193e-29
9.644312325e-29
2.093076001e-28
4.4436158e-28
9.258115415e-28
1.896290434e-27
3.824656704e-27
7.581186027e-27
1.478037204e-26
2.828255434e-26
5.302313122e-26
9.740326206e-26
1.750144821e-25
3.072098258e-25
5.266722869e-25
8.814918558e-25
1.439826219e-24
2.295703173e-24
3.573506522e-24
5.432810293e-24
8.070318156e-24
1.171139243e-23
1.666712733e-23
2.324162767e-23
3.175591542e-23
4.260227049e-23
5.613924634e-23
7.279883996e-23
9.31132846e-23
1.175167056e-22
1.461981613e-22
1.797047487e-22
2.184901913e-22
2.624420275e-22
3.119551878e-22
3.670950651e-22
4.279915081e-22
4.947164546e-22
5.673143659e-22
6.457033599e-22
7.295977306e-22
8.188786652e-22
9.129337755e-22
1.011189963e-21
1.112981768e-21
1.218760002e-21
1.325903483e-21
1.43397106e-21
1.542447499e-21
1.649367617e-21
1.754568249e-21
1.856184158e-21
1.953395404e-21
2.045069029e-21
2.129619326e-21
2.20483759e-21
2.268794122e-21
2.32036367e-21
2.357544279e-21
2.381273072e-21
2.390866729e-21
2.385002461e-21
2.362861381e-21
2.321927698e-21
2.261172656e-21
2.177776312e-21
2.076097309e-21
1.954729366e-21
1.810925931e-21
1.64860204e-21
1.465288325e-21
1.262732579e-21
1.041036811e-21
7.899761435e-22
5.21854752e-22
2.462124151e-22
-3.646102807e-23
-3.292423247e-22
-6.094360385e-22
-8.874695049e-22
-1.173091596e-21
-1.429188964e-21
-1.654424649e-21
-1.822614406e-21
-1.912950069e-21
-1.958706442e-21
8.271986893e-21
2.045444525e-20
2.305154918e-20
2.466788391e-20
2.562000287e-20
)


101
(
3.889663947e-38
5.233844694e-35
1.461644506e-33
1.398608285e-32
7.779730273e-32
3.123228999e-31
1.033606013e-30
3.003852532e-30
7.946453112e-30
1.96082697e-29
4.594440925e-29
1.03354607e-28
2.255422352e-28
4.808326064e-28
1.00511083e-27
2.064340199e-27
4.172907792e-27
8.29018516e-27
1.619984936e-26
3.107726668e-26
5.84389484e-26
1.077290038e-25
1.943569406e-25
3.427513675e-25
5.90655355e-25
9.942413607e-25
1.634149912e-24
2.62299469e-24
4.1119258e-24
6.297684643e-24
9.426657326e-24
1.378810947e-23
1.97724315e-23
2.777939159e-23
3.824155353e-23
5.167661892e-23
6.857847034e-23
8.952355409e-23
1.151994249e-22
1.461982696e-22
1.828606809e-22
2.259177267e-22
2.760035527e-22
3.331290121e-22
3.978173566e-22
4.701842745e-22
5.503760667e-22
6.384610159e-22
7.345042771e-22
8.384585103e-22
9.500651961e-22
1.069179565e-21
1.195039334e-21
1.32691002e-21
1.463967056e-21
1.606641357e-21
1.751818204e-21
1.898936734e-21
2.047167739e-21
2.193902195e-21
2.338599069e-21
2.479162153e-21
2.614364221e-21
2.74265474e-21
2.862485508e-21
2.97096329e-21
3.065436732e-21
3.143841718e-21
3.203291809e-21
3.244686383e-21
3.266747245e-21
3.268882654e-21
3.25061109e-21
3.208899629e-21
3.142472513e-21
3.044432972e-21
2.920197718e-21
2.769494853e-21
2.591589401e-21
2.391069893e-21
2.159982146e-21
1.90342288e-21
1.623532506e-21
1.306526582e-21
9.65340571e-22
6.075641854e-22
2.408236459e-22
-1.388076545e-22
-5.104141995e-22
-8.690605444e-22
-1.242303833e-21
-1.584355868e-21
-1.88432201e-21
-2.114688178e-21
-2.234458988e-21
-2.29184143e-21
9.983460328e-21
2.374686396e-20
2.487625203e-20
2.464585935e-20
2.475105733e-20
)


101
(
1.845731134e-38
4.868237185e-35
1.403234548e-33
1.368216692e-32
7.73158838e-32
3.148840326e-31
1.055153313e-30
3.100998354e-30
8.286478443e-30
2.062917466e-29
4.870240064e-29
1.102605988e-28
2.418195285e-28
5.174306991e-28
1.084559164e-27
2.232125285e-27
4.518953206e-27
8.990719878e-27
1.759405873e-26
3.380694887e-26
6.370217516e-26
1.177212839e-25
2.130243935e-25
3.770235989e-25
6.524063499e-25
1.103322226e-24
1.822884464e-24
2.942522463e-24
4.64092067e-24
7.153740463e-24
1.078042487e-23
1.588008301e-23
2.292960786e-23
3.243631586e-23
4.49606453e-23
6.116514765e-23
8.170469882e-23
1.073271635e-22
1.389005008e-22
1.772028532e-22
2.227601016e-22
2.765099487e-22
3.393016375e-22
4.113291865e-22
4.932860083e-22
5.85377738e-22
6.877790599e-22
8.005446166e-22
9.237128039e-22
1.057217733e-21
1.200849854e-21
1.354501845e-21
1.517233166e-21
1.688118621e-21
1.866164448e-21
2.051577958e-21
2.240768809e-21
2.433166486e-21
2.627579413e-21
2.820528296e-21
3.010931205e-21
3.196277196e-21
3.374934678e-21
3.545332712e-21
3.704851805e-21
3.850441167e-21
3.979703753e-21
4.088753392e-21
4.173449223e-21
4.233785116e-21
4.268526818e-21
4.277467396e-21
4.260406897e-21
4.215056402e-21
4.140365085e-21
4.027014886e-21
3.874991633e-21
3.686978153e-21
3.467746482e-21
3.219974685e-21
2.935060661e-21
2.620227771e-21
2.273614078e-21
1.883594769e-21
1.464518439e-21
1.017979279e-21
5.604053373e-22
9.207785231e-23
-3.731394075e-22
-8.177624474e-22
-1.275984518e-21
-1.706410722e-21
-2.078668663e-21
-2.366959023e-21
-2.527404321e-21
-2.629127377e-21
1.084759511e-20
2.492646888e-20
2.403570052e-20
2.127376916e-20
1.995166164e-20
)


101
(
3.494147937e-39
4.520280302e-35
1.345385765e-33
1.336623135e-32
7.671435082e-32
3.168678528e-31
1.074772175e-30
3.192976647e-30
8.614930923e-30
2.162799741e-29
5.142370348e-29
1.17112141e-28
2.580177379e-28
5.538668338e-28
1.163484403e-27
2.398094077e-27
4.8592399e-27
9.674745062e-27
1.894504659e-26
3.643227056e-26
6.872855046e-26
1.272027593e-25
2.306490529e-25
4.092818787e-25
7.104623607e-25
1.205949645e-24
2.000890645e-24
3.245081422e-24
5.144476501e-24
7.973939966e-24
1.208742467e-23
1.791748937e-23
2.603213411e-23
3.705510161e-23
5.16875831e-23
7.075303007e-23
9.509045784e-23
1.256448722e-22
1.634893243e-22
2.096148565e-22
2.647647864e-22
3.301014284e-22
4.067120436e-22
4.95025399e-22
5.959488369e-22
7.098317987e-22
8.36908602e-22
9.772104207e-22
1.130700327e-21
1.297227325e-21
1.476577875e-21
1.668696625e-21
1.872516798e-21
2.086881731e-21
2.310602928e-21
2.543515846e-21
2.781496664e-21
3.023834878e-21
3.269055626e-21
3.512875611e-21
3.753372933e-21
3.987138989e-21
4.212277789e-21
4.427302247e-21
4.628104208e-21
4.811794506e-21
4.975906385e-21
5.115107655e-21
5.223422238e-21
5.300147718e-21
5.344646974e-21
5.355018458e-21
5.331936694e-21
5.275195151e-21
5.183098449e-21
5.044220045e-21
4.858842017e-21
4.625917817e-21
4.350437495e-21
4.041394388e-21
3.69515032e-21
3.312879339e-21
2.889345835e-21
2.421198266e-21
1.92192412e-21
1.385554699e-21
8.313758187e-22
2.746488569e-22