/*--------------------------------*- C++ -*----------------------------------*\
| =========                 |                                                 |
| \\      /  F ield         | OpenFOAM: The Open Source CFD Toolbox           |
|  \\    /   O peration     | Version:  2.3.1                                 |
|   \\  /    A nd           | Web:      www.OpenFOAM.org                      |
|    \\/     M anipulation  |                                                 |
\*---------------------------------------------------------------------------*/
FoamFile
{
    version     2.0;
    format      ascii;
    class       dictionary;
    location    "constant";
    object      GRPSI57;
}
// * * * * * * * * * * * * * * * * * * * * * * * * * * * * * * * * * * * * * //

GRPSI57_table
101
(

101
(
-2.765323077e-28
-5.014152742e-17
-1.204250769e-15
-1.041963696e-14
-5.755898306e-14
-2.319602911e-13
-7.376556825e-13
-2.078624591e-12
-5.112516612e-12
-1.132295294e-11
-2.259527692e-11
-4.103025909e-11
-6.750301706e-11
-1.031041695e-10
-1.438596512e-10
-1.855079733e-10
-2.225157098e-10
-2.469747133e-10
-2.584023699e-10
-2.474271558e-10
-2.244954099e-10
-1.926165964e-10
-1.478503355e-10
-1.01867422e-10
-5.852390516e-11
-2.014114889e-11
1.16829686e-11
3.700529472e-11
5.653857078e-11
7.064900365e-11
8.042258952e-11
8.675339335e-11
9.005214164e-11
8.820349964e-11
8.377970826e-11
7.273823363e-11
-2.009324461e-11
-1.378204078e-10
-6.348772592e-11
-4.280754645e-11
-3.271264789e-11
-2.410297846e-11
-1.739662906e-11
-1.150856721e-11
-6.098408873e-12
-1.937807902e-12
1.703283631e-12
4.246147553e-12
6.350423415e-12
7.739442762e-12
8.798741689e-12
9.445340523e-12
9.839453992e-12
9.843391783e-12
9.547228138e-12
9.234973473e-12
8.6903004e-12
8.246203398e-12
7.639125238e-12
7.052085882e-12
6.396768265e-12
5.772066664e-12
5.190782504e-12
4.619890836e-12
4.011328159e-12
3.478995037e-12
2.98699349e-12
2.534251364e-12
2.120523943e-12
1.761112709e-12
1.445426412e-12
1.173191286e-12
9.367316431e-13
7.336883744e-13
4.665233594e-13
3.075755857e-13
2.58515461e-13
2.049082916e-13
1.572612336e-13
1.178675644e-13
8.611554225e-14
6.042890355e-14
4.15203678e-14
2.369742878e-14
1.405948728e-14
1.002005535e-14
6.734495617e-15
4.245878216e-15
2.559853545e-15
1.247099444e-15
7.431679537e-16
4.422145471e-16
2.346640278e-16
1.102469272e-16
5.228647655e-17
2.1499188e-17
3.588717226e-18
6.358573521e-18
1.181992669e-17
3.064514128e-17
7.925179636e-17
)


101
(
-2.765323071e-28
-4.502404816e-17
-1.130193049e-15
-9.892279011e-15
-5.484740162e-14
-2.207991453e-13
-6.994933381e-13
-1.962714583e-12
-4.8027003e-12
-1.056915221e-11
-2.092680763e-11
-3.763568101e-11
-6.1169278e-11
-9.199164326e-11
-1.258575618e-10
-1.580246001e-10
-1.827728032e-10
-1.92563966e-10
-1.867979436e-10
-1.578332506e-10
-1.15388217e-10
-6.404798401e-11
-2.103328891e-12
5.948757529e-11
1.157908169e-10
1.640686733e-10
2.025575469e-10
2.312496941e-10
2.511635692e-10
2.630207902e-10
2.683575082e-10
2.685987487e-10
2.644380711e-10
2.556644176e-10
2.428512218e-10
2.25817671e-10
1.553137776e-10
5.668473833e-11
8.887469888e-11
1.000345891e-10
1.007159762e-10
9.79295632e-11
9.386980632e-11
8.94938551e-11
8.50230579e-11
8.0230367e-11
7.554720096e-11
7.054772812e-11
6.565531749e-11
6.070151457e-11
5.591132512e-11
5.124667646e-11
4.683441344e-11
4.261345469e-11
3.850670999e-11
3.466027061e-11
3.095372002e-11
2.761746781e-11
2.448947126e-11
2.163454888e-11
1.900453587e-11
1.661635979e-11
1.446024688e-11
1.252155568e-11
1.075261381e-11
9.187613966e-12
7.793159188e-12
6.559231139e-12
5.478999201e-12
4.537593013e-12
3.727039293e-12
3.030385686e-12
2.443584885e-12
1.94683405e-12
1.475316776e-12
1.11799532e-12
8.754713793e-13
6.760341679e-13
5.145775844e-13
3.851542638e-13
2.833491618e-13
2.039421888e-13
1.44078548e-13
9.715231332e-14
6.467456499e-14
4.325531154e-14
2.870803488e-14
1.864229736e-14
1.166841847e-14
6.997389311e-15
4.160774296e-15
2.397884427e-15
1.392815295e-15
7.58470116e-16
4.121582213e-16
2.060553885e-16
5.920683229e-17
1.299475812e-16
2.729245911e-16
6.78875568e-16
1.450712443e-15
)


101
(
-2.765323071e-28
-3.531124579e-17
-9.886042956e-16
-8.885815249e-15
-4.969435307e-14
-1.996992477e-13
-6.278267027e-13
-1.746625343e-12
-4.230096115e-12
-9.188910321e-12
-1.790054853e-11
-3.153471889e-11
-4.988528051e-11
-7.234248273e-11
-9.421445749e-11
-1.099291965e-10
-1.133675078e-10
-9.753203047e-11
-6.146967576e-11
-3.192844332e-13
7.751982058e-11
1.650180427e-10
2.59905614e-10
3.521149225e-10
4.347956526e-10
5.043206009e-10
5.583697093e-10
5.965457405e-10
6.202939317e-10
6.308840571e-10
6.3050356e-10
6.217463684e-10
6.057409139e-10
5.854439991e-10
5.588908767e-10
5.240510959e-10
4.805705615e-10
4.090209165e-10
3.825878574e-10
3.722632424e-10
3.560276252e-10
3.347235788e-10
3.120915796e-10
2.894085165e-10
2.673439595e-10
2.464724229e-10
2.267375311e-10
2.080888078e-10
1.903720785e-10
1.737013239e-10
1.579501623e-10
1.432159571e-10
1.29554454e-10
1.169559265e-10
1.052481759e-10
9.444455176e-11
8.435125898e-11
7.509995529e-11
6.667273395e-11
5.896600071e-11
5.199931358e-11
4.569265245e-11
3.998584551e-11
3.486000316e-11
3.026232675e-11
2.613582119e-11
2.24591054e-11
1.917395983e-11
1.629720501e-11
1.37628611e-11
1.154313361e-11
9.602002056e-12
7.935492422e-12
6.503752774e-12
5.268444022e-12
4.22085596e-12
3.352710089e-12
2.638749994e-12
2.0570336e-12
1.586715856e-12
1.209527378e-12
9.074312959e-13
6.702256863e-13
4.856379247e-13
3.447634643e-13
2.397043752e-13
1.636978903e-13
1.11214457e-13
7.392081587e-14
4.749823496e-14
2.973191425e-14
1.825023959e-14
1.12448787e-14
6.663972164e-15
3.90365539e-15
2.123874618e-15
6.867940045e-16
1.856653896e-15
4.229645682e-15
1.101237417e-14
2.758488011e-14
)


101
(
-2.765323071e-28
-2.660388533e-17
-8.595192872e-16
-7.971159113e-15
-4.50521954e-14
-1.808966666e-13
-5.648443124e-13
-1.559620026e-12
-3.74372009e-12
-8.040465957e-12
-1.543592862e-11
-2.667118397e-11
-4.107444771e-11
-5.727883502e-11
-7.030517181e-11
-7.396625212e-11
-6.170640358e-11
-2.666925578e-11
3.275105974e-11
1.197582098e-10
2.2714268e-10
3.466947033e-10
4.731908785e-10
5.964381365e-10
7.081779473e-10
8.034600997e-10
8.790290537e-10
9.338157959e-10
9.691378038e-10
9.864456241e-10
9.87850092e-10
9.77320527e-10
9.560899229e-10
9.298305497e-10
8.9672588e-10
8.564291427e-10
8.048885293e-10
7.412762149e-10
6.923662864e-10
6.589511229e-10
6.277690831e-10
5.933691639e-10
5.568601954e-10
5.195935368e-10
4.828212483e-10
4.478095312e-10
4.145140746e-10
3.832014697e-10
3.533915805e-10
3.254080371e-10
2.988241893e-10
2.737475244e-10
2.502474076e-10
2.28401359e-10
2.080252734e-10
1.8898295e-10
1.713408307e-10
1.548580137e-10
1.396576132e-10
1.254554332e-10
1.124267685e-10
1.005166469e-10
8.957712711e-11
7.960257008e-11
7.050343302e-11
6.212987907e-11
5.45251926e-11
4.762698376e-11
4.142286151e-11
3.586799731e-11
3.083737087e-11
2.634749034e-11
2.236491493e-11
1.886544594e-11
1.578329292e-11
1.308387155e-11
1.073078963e-11
8.725776541e-12
7.026132809e-12
5.603190346e-12
4.426950963e-12
3.451729585e-12
2.656440312e-12
2.014088845e-12
1.500308739e-12
1.096312809e-12
7.843379336e-13
5.535548049e-13
3.877086245e-13
2.647740076e-13
1.752974266e-13
1.131496197e-13
7.180309579e-14
4.536271909e-14
2.82336917e-14
1.63809546e-14
6.474204361e-15
1.896075265e-14
4.292142449e-14
1.072379176e-13
2.115689301e-13
)


101
(
-2.765323329e-28
-1.882747955e-17
-7.418914933e-16
-7.139413916e-15
-4.086570423e-14
-1.641160244e-13
-5.093761616e-13
-1.397315941e-12
-3.329213982e-12
-7.081932819e-12
-1.342431968e-11
-2.279194554e-11
-3.420642844e-11
-4.577775737e-11
-5.235051847e-11
-4.726330836e-11
-2.347695027e-11
2.60639507e-11
1.039300411e-10
2.125573392e-10
3.459657051e-10
4.957050318e-10
6.546142857e-10
8.117433959e-10
9.576499761e-10
1.085732828e-09
1.191342306e-09
1.272433448e-09
1.329655719e-09
1.364248491e-09
1.378327561e-09
1.374837321e-09
1.356547272e-09
1.33133156e-09
1.297636752e-09
1.261540358e-09
1.200999073e-09
1.135964603e-09
1.076289453e-09
1.025424288e-09
9.804243879e-10
9.347967404e-10
8.872445706e-10
8.380575146e-10
7.879863449e-10
7.38904869e-10
6.914873586e-10
6.466597e-10
6.039103739e-10
5.632673325e-10
5.241877252e-10
4.86632193e-10
4.508124533e-10
4.171025393e-10
3.853992905e-10
3.55189061e-10
3.268664368e-10
3.000548469e-10
2.750952321e-10
2.512732281e-10
2.287789805e-10
2.080320168e-10
1.885490977e-10
1.705272997e-10
1.538896241e-10
1.383058679e-10
1.237966202e-10
1.103555597e-10
9.789290754e-11
8.665266299e-11
7.621379617e-11
6.665565777e-11
5.79196649e-11
5.005427025e-11
4.297087315e-11
3.66198144e-11
3.095168678e-11
2.59383966e-11
2.150729939e-11
1.767599734e-11
1.439790648e-11
1.162854279e-11
9.267594454e-12
7.300527132e-12
5.664314842e-12
4.327566986e-12
3.237532274e-12
2.382686192e-12
1.732112191e-12
1.245304043e-12
8.690270723e-13
5.934106277e-13
3.976283686e-13
2.607215771e-13
1.711317953e-13
1.05350468e-13
4.86184843e-14
1.31064933e-13
2.942701654e-13
8.375804772e-13
1.757366012e-12
)


101
(
-2.765323077e-28
-1.191351728e-17
-6.347737293e-16
-6.382616915e-15
-3.708609512e-14
-1.491182281e-13
-4.604251809e-13
-1.2560449e-12
-2.974740313e-12
-6.27929738e-12
-1.177889013e-11
-1.969703163e-11
-2.887013191e-11
-3.705685946e-11
-3.90117528e-11
-2.770728259e-11
4.440473215e-12
6.49327719e-11
1.575443486e-10
2.847607985e-10
4.419566225e-10
6.211200102e-10
8.141208481e-10
1.009102749e-09
1.19530771e-09
1.364617169e-09
1.510577461e-09
1.62947264e-09
1.720841616e-09
1.785317281e-09
1.82501773e-09
1.841116377e-09
1.836923568e-09
1.822115696e-09
1.79536051e-09
1.760833907e-09
1.708906453e-09
1.645021799e-09
1.579591399e-09
1.519130451e-09
1.463741048e-09
1.408753306e-09
1.352490924e-09
1.293938201e-09
1.232555475e-09
1.170178536e-09
1.10818277e-09
1.049025132e-09
9.923903971e-10
9.376634567e-10
8.845202392e-10
8.322470728e-10
7.812736028e-10
7.323089289e-10
6.85994277e-10
6.412002927e-10
5.980998798e-10
5.568111818e-10
5.176424262e-10
4.799217998e-10
4.437965035e-10
4.097523539e-10
3.772487008e-10
3.46377253e-10
3.17486365e-10
2.902260092e-10
2.64322024e-10
2.398206713e-10
2.166019933e-10
1.950269166e-10
1.749373576e-10
1.561965717e-10
1.386791517e-10
1.224419929e-10
1.074629528e-10
9.372885213e-11
8.127485163e-11
6.991286386e-11
5.957629607e-11
5.033450644e-11
4.21567265e-11
3.507821513e-11
2.885780798e-11
2.348841701e-11
1.890192161e-11
1.500266882e-11
1.170346548e-11
8.971988312e-12
6.788021501e-12
5.092555244e-12
3.729289872e-12
2.666947868e-12
1.887040984e-12
1.304226298e-12
8.992097449e-13
5.732157267e-13
2.932930153e-13
8.743847009e-13
1.968823008e-12
5.288299051e-12
1.005729375e-11
)


101
(
-2.765323071e-28
-5.79872064e-18
-5.373087606e-16
-5.69363949e-15
-3.367012345e-14
-1.356934512e-13
-4.171261315e-13
-1.132682311e-12
-2.670502112e-12
-5.604993828e-12
-1.043030049e-11
-1.723056343e-11
-2.47487556e-11
-3.05288857e-11
-2.930256429e-11
-1.377352883e-11
2.420945083e-11
9.279265737e-11
1.971504455e-10
3.404843818e-10
5.197560138e-10
7.279234164e-10
9.567475428e-10
1.193724879e-09
1.426628792e-09
1.645997195e-09
1.843594533e-09
2.013421513e-09
2.15321727e-09
2.262478028e-09
2.342611811e-09
2.394590349e-09
2.419638091e-09
2.428664995e-09
2.421858968e-09
2.402536282e-09
2.365903903e-09
2.312720858e-09
2.251367027e-09
2.189276908e-09
2.129503943e-09
2.068858917e-09
2.007568097e-09
1.94348579e-09
1.874688665e-09
1.802475429e-09
1.72766166e-09
1.654074117e-09
1.582838646e-09
1.513303971e-09
1.445216107e-09
1.376743748e-09
1.308850675e-09
1.242173866e-09
1.177740003e-09
1.114778793e-09
1.053498156e-09
9.933512752e-10
9.35084387e-10
8.780478447e-10
8.22699006e-10
7.695696864e-10
7.182602395e-10
6.687928827e-10
6.21417527e-10
5.762390977e-10
5.326124935e-10
4.909537253e-10
4.507719798e-10
4.123640074e-10
3.761861879e-10
3.417572807e-10
3.091042916e-10
2.781311074e-10
2.489929581e-10
2.216019199e-10
1.962898407e-10
1.727944542e-10
1.510247585e-10
1.309117753e-10
1.124790166e-10
9.596331402e-11
8.127043711e-11
6.808457932e-11
5.654794443e-11
4.644068541e-11
3.760184478e-11
2.995276646e-11
2.357967332e-11
1.836139848e-11
1.409382674e-11
1.053383767e-11
7.805801422e-12
5.689008303e-12
4.088861805e-12
2.78673718e-12
1.587896593e-12
4.715051379e-12
1.037079319e-11
2.654584767e-11
4.891599927e-11
)


101
(
-2.765323071e-28
-4.24649329e-19
-4.487199749e-16
-5.066090309e-15
-3.057947681e-14
-1.236583526e-13
-3.787304188e-13
-1.024540046e-12
-2.408282718e-12
-5.036197563e-12
-9.321702394e-12
-1.526529553e-11
-2.15857502e-11
-2.572152588e-11
-2.24384575e-11
-4.260736132e-12
3.75057011e-11
1.117943299e-10
2.253292746e-10
3.825688027e-10
5.823753067e-10
8.19113513e-10
1.08507537e-09
1.367862843e-09
1.653734106e-09
1.931951631e-09
2.192874992e-09
2.428059792e-09
2.632656848e-09
2.804260745e-09
2.94318521e-09
3.049990268e-09
3.123869844e-09
3.175130493e-09
3.205311696e-09
3.218069344e-09
3.210280521e-09
3.18130201e-09
3.138462095e-09
3.087501258e-09
3.033961522e-09
2.977019687e-09
2.917819334e-09
2.854315796e-09
2.784317501e-09
2.70883861e-09
2.627147448e-09
2.543108272e-09
2.460020098e-09
2.377415607e-09
2.29422345e-09
2.209926682e-09
2.125295372e-09
2.039188314e-09
1.954548254e-09
1.871498314e-09
1.78891428e-09
1.706100562e-09
1.624851579e-09
1.543818441e-09
1.463589484e-09
1.385268604e-09
1.307784088e-09
1.232688556e-09
1.159599325e-09
1.089213845e-09
1.020723218e-09
9.539396392e-10
8.885407726e-10
8.241460263e-10
7.625471127e-10
7.029314846e-10
6.463966062e-10
5.918924195e-10
5.392118002e-10
4.887121169e-10
4.409236652e-10
3.958371748e-10
3.533840996e-10
3.131918097e-10
2.755935717e-10
2.406090546e-10
2.090138434e-10
1.797800728e-10
1.535172639e-10
1.296993182e-10
1.086197888e-10
8.955459054e-11
7.308523022e-11
5.899223557e-11
4.702432663e-11
3.668504105e-11
2.842368721e-11
2.174562911e-11
1.635786946e-11
1.193569932e-11
7.452094926e-12
2.085906558e-11
4.41291658e-11
1.063449436e-10
2.006089185e-10
)


101
(
-2.765323586e-28
4.262770986e-18
-3.683032186e-16
-4.494236915e-15
-2.778023159e-14
-1.128555026e-13
-3.446167687e-13
-9.29417118e-13
-2.181330777e-12
-4.554354143e-12
-8.407573665e-12
-1.369992871e-11
-1.917941701e-11
-2.226463764e-11
-1.781101845e-11
1.755792439e-12
4.56176039e-11
1.235649413e-10
2.439690264e-10
4.129795258e-10
6.317326505e-10
8.964285433e-10
1.200285795e-09
1.532211776e-09
1.877212681e-09
2.223242762e-09
2.559442919e-09
2.875056067e-09
3.162174763e-09
3.415667462e-09
3.63407315e-09
3.817484928e-09
3.96372634e-09
4.080953084e-09
4.169773661e-09
4.235675602e-09
4.27723407e-09
4.293103467e-09
4.289983041e-09
4.27029154e-09
4.239978307e-09
4.20078949e-09
4.156321844e-09
4.104853432e-09
4.044767753e-09
3.977284198e-09
3.900019066e-09
3.816602519e-09
3.729564573e-09
3.639645913e-09
3.546600219e-09
3.452021736e-09
3.354562342e-09
3.25236284e-09
3.149035092e-09
3.044569239e-09
2.940257773e-09
2.831945696e-09
2.725248459e-09
2.617797072e-09
2.508500042e-09
2.400329383e-09
2.290784372e-09
2.182720272e-09
2.076007092e-09
1.971330902e-09
1.869106129e-09
1.767322518e-09
1.666578898e-09
1.566219977e-09
1.468101416e-09
1.371935028e-09
1.278329981e-09
1.187488545e-09
1.098737491e-09
1.012369025e-09
9.281835535e-10
8.473696169e-10
7.705733488e-10
6.96242807e-10
6.248902033e-10
5.575761923e-10
4.947256803e-10
4.361798357e-10
3.812859725e-10
3.303339254e-10
2.846401539e-10
2.420101912e-10
2.037778695e-10
1.699470187e-10
1.400180816e-10
1.137340039e-10
9.156462418e-11
7.304656463e-11
5.729017462e-11
4.387500261e-11
3.027817534e-11
7.779781602e-11
1.566203173e-10
3.475105901e-10
6.675219355e-10
)


101
(
-2.765323586e-28
8.313722183e-18
-2.95420462e-16
-3.972940128e-15
-2.524203488e-14
-1.031467864e-13
-3.142641853e-13
-8.45533843e-13
-1.984034236e-12
-4.144036739e-12
-7.650814084e-12
-1.245416475e-11
-1.737235438e-11
-1.987308764e-11
-1.495332629e-11
4.979502692e-12
4.951332168e-11
1.293078742e-10
2.544109136e-10
4.329788356e-10
6.688264118e-10
9.605555939e-10
1.302758618e-09
1.686411587e-09
2.096361942e-09
2.519247669e-09
2.942787438e-09
3.354095861e-09
3.742189231e-09
4.098803384e-09
4.419630204e-09
4.703390922e-09
4.947536845e-09
5.159284483e-09
5.334813082e-09
5.481630717e-09
5.601178655e-09
5.691233704e-09
5.755698146e-09
5.794866935e-09
5.813605348e-09
5.814101884e-09
5.806014273e-09
5.787356087e-09
5.757283274e-09
5.717810882e-09
5.663746654e-09
5.598027423e-09
5.52102449e-09
5.437066436e-09
5.347475815e-09
5.254693202e-09
5.155794782e-09
5.048936982e-09
4.931839897e-09
4.811098003e-09
4.690426769e-09
4.560931861e-09
4.430473757e-09
4.297558222e-09
4.158450802e-09
4.016980684e-09
3.873216051e-09
3.727062771e-09
3.579040027e-09
3.429767233e-09
3.284655143e-09
3.138501348e-09
2.993205295e-09
2.84620721e-09
2.698910068e-09
2.551849305e-09
2.406460204e-09
2.263511527e-09
2.122730298e-09
1.982706742e-09
1.84397179e-09
1.708855238e-09
1.577837572e-09
1.44970053e-09
1.323888991e-09
1.203472718e-09
1.087677459e-09
9.788059447e-10
8.740218187e-10
7.736908774e-10
6.818101151e-10
5.951420382e-10
5.14619321e-10
4.420839946e-10
3.748539709e-10
3.148690884e-10
2.622255819e-10
2.1676834e-10
1.768506863e-10
1.41043651e-10
1.043707348e-10
2.486396078e-10
4.765551414e-10
9.631975028e-10
1.628739158e-09
)


101
(
-2.76494099e-28
1.177489264e-17
-2.294922474e-16
-3.497593968e-15
-2.293789049e-14
-9.441030166e-14
-2.872215462e-13
-7.713926749e-13
-1.81173417e-12
-3.792427259e-12
-7.020949329e-12
-1.14624849e-11
-1.603732274e-11
-1.831764937e-11
-1.349047204e-11
5.975185657e-12
4.996282669e-11
1.299605686e-10
2.57674571e-10
4.434675024e-10
6.941751685e-10
1.01147912e-09
1.392133765e-09
1.82910485e-09
2.309029819e-09
2.817278762e-09
3.339686053e-09
3.861708823e-09
4.369804855e-09
4.852506325e-09
5.301739663e-09
5.713237451e-09
6.083814695e-09
6.423069733e-09
6.720995223e-09
6.98439475e-09
7.217193213e-09
7.417145479e-09
7.584633655e-09
7.71919557e-09
7.824766326e-09
7.901539908e-09
7.963508403e-09
8.010922982e-09
8.043225554e-09
8.063053181e-09
8.061316435e-09
8.039563881e-09
7.998762583e-09
7.946051678e-09
7.882204031e-09
7.810829807e-09
7.73099324e-09
7.637668436e-09
7.524262743e-09
7.408527028e-09
7.28250891e-09
7.145232082e-09
6.998215844e-09
6.848331117e-09
6.687588615e-09
6.516949287e-09
6.339879896e-09
6.154297027e-09
5.963922992e-09
5.766764051e-09
5.568533115e-09
5.370872558e-09
5.172125095e-09
4.968124275e-09
4.760324273e-09
4.548164576e-09
4.335398546e-09
4.122313023e-09
3.909504012e-09
3.694595029e-09
3.479917414e-09
3.268031591e-09
3.055579021e-09
2.847045792e-09
2.64053489e-09
2.437341987e-09
2.239243044e-09
2.049136694e-09
1.863260315e-09
1.680422553e-09
1.508492804e-09
1.346447442e-09
1.191826779e-09
1.04761174e-09
9.110878069e-10
7.870734547e-10
6.74246597e-10
5.740813495e-10
4.845333341e-10
4.017762841e-10
3.168733089e-10
6.862919588e-10
1.25132591e-09
2.353592347e-09
3.830497463e-09
)


101
(
-2.763599638e-28
1.468981423e-17
-1.699924909e-16
-3.064067669e-15
-2.084388121e-14
-8.653941299e-14
-2.63099724e-13
-7.05717799e-13
-1.660605264e-12
-3.489301112e-12
-6.493689993e-12
-1.067175072e-11
-1.507028127e-11
-1.741024669e-11
-1.311301077e-11
5.21253977e-12
4.762484873e-11
1.263359789e-10
2.54666344e-10
4.452782807e-10
7.081559994e-10
1.048697218e-09
1.466639051e-09
1.956911575e-09
2.509274303e-09
3.108989616e-09
3.740595962e-09
4.388191463e-09
5.036199538e-09
5.66975624e-09
6.276689834e-09
6.849015042e-09
7.381545245e-09
7.88639312e-09
8.3486477e-09
8.772296703e-09
9.16129131e-09
9.513693292e-09
9.828957861e-09
1.01084664e-08
1.035178339e-08
1.055597665e-08
1.073575655e-08
1.089563365e-08
1.10349391e-08
1.11578221e-08
1.125393279e-08
1.132210939e-08
1.136151386e-08
1.138169812e-08
1.138142392e-08
1.136661798e-08
1.133970822e-08
1.129337918e-08
1.122269184e-08
1.11395843e-08
1.103695691e-08
1.091334942e-08
1.077261376e-08
1.062394959e-08
1.046097253e-08
1.027888658e-08
1.00818438e-08
9.866858916e-09
9.638454685e-09
9.402449035e-09
9.151716461e-09
8.897454783e-09
8.640078674e-09
8.371364838e-09
8.09581081e-09
7.80996112e-09
7.513004353e-09
7.210373558e-09
6.903945108e-09
6.593802628e-09
6.278557135e-09
5.960460383e-09
5.639228161e-09
5.316441425e-09
4.992309066e-09
4.66856557e-09
4.348772656e-09
4.033708835e-09
3.7250952e-09
3.41642012e-09
3.114241993e-09
2.828280624e-09
2.551872288e-09
2.28614313e-09
2.031158381e-09
1.795701771e-09
1.575673334e-09
1.373617323e-09
1.191361617e-09
1.020801405e-09
8.483462193e-10
1.691519247e-09
2.939955396e-09
5.177696363e-09
8.053529386e-09
)


101
(
-2.762639865e-28
1.70991658e-17
-1.164427394e-16
-2.668647043e-15
-1.893857031e-14
-7.94392229e-14
-2.41562804e-13
-6.474424941e-13
-1.52739177e-12
-3.226071305e-12
-6.049514259e-12
-1.003912683e-11
-1.438721366e-11
-1.70014531e-11
-1.357695676e-11
3.063538288e-12
4.305283531e-11
1.191817878e-10
2.462517355e-10
4.392193452e-10
7.110267746e-10
1.07126355e-09
1.523436063e-09
2.065321266e-09
2.690200594e-09
3.384745962e-09
4.133984847e-09
4.921194462e-09
5.729261075e-09
6.539619013e-09
7.335804635e-09
8.106418089e-09
8.843623507e-09
9.558852928e-09
1.023316116e-08
1.086767245e-08
1.146464436e-08
1.202244659e-08
1.254175484e-08
1.302868006e-08
1.347548016e-08
1.387397928e-08
1.423719693e-08
1.457230115e-08
1.487890789e-08
1.516487843e-08
1.542285065e-08
1.564855769e-08
1.583608189e-08
1.599677686e-08
1.61197502e-08
1.621737105e-08
1.63016126e-08
1.635948988e-08
1.638609158e-08
1.637914368e-08
1.635702175e-08
1.629358734e-08
1.620835298e-08
1.609856332e-08
1.597295683e-08
1.581330041e-08
1.562637719e-08
1.541144516e-08
1.517277063e-08
1.49140336e-08
1.462763951e-08
1.43267782e-08
1.400925376e-08
1.368019997e-08
1.333589167e-08
1.297598223e-08
1.25875003e-08
1.218086613e-08
1.175996016e-08
1.132818009e-08
1.08863288e-08
1.043613054e-08
9.970425425e-09
9.496066487e-09
9.009101316e-09
8.518988042e-09
8.023885375e-09
7.52644102e-09
7.037925768e-09
6.546140511e-09
6.046529188e-09
5.565598554e-09
5.097503525e-09
4.642914544e-09
4.195861517e-09
3.777119499e-09
3.377908436e-09
3.005279014e-09
2.661191548e-09
2.340748222e-09
2.023945409e-09
3.762374843e-09
6.266310798e-09
1.043064139e-08
1.580389544e-08
)


101
(
-2.7626409e-28
1.904112379e-17
-6.840608937e-17
-2.307997966e-15
-1.720280817e-14
-7.302490804e-14
-2.223131585e-13
-5.956598212e-13
-1.409440522e-12
-2.995621808e-12
-5.672433952e-12
-9.529840811e-12
-1.391941505e-11
-1.696842955e-11
-1.46801379e-11
-1.637775649e-13
3.670164274e-11
1.091381028e-10
2.331859241e-10
4.261016954e-10
7.032923588e-10
1.078797887e-09
1.560578297e-09
2.150842935e-09
2.847133653e-09
3.638331887e-09
4.511168218e-09
5.449000247e-09
6.43424559e-09
7.445885142e-09
8.463657009e-09
9.471824667e-09
1.045878903e-08
1.14343503e-08
1.237476969e-08
1.327873458e-08
1.414634677e-08
1.497635262e-08
1.577177292e-08
1.654049364e-08
1.727165472e-08
1.795102595e-08
1.858713825e-08
1.918388363e-08
1.974155556e-08
2.027413143e-08
2.077857329e-08
2.124954484e-08
2.167894019e-08
2.207280616e-08
2.241046431e-08
2.27097566e-08
2.299491193e-08
2.32439338e-08
2.345362943e-08
2.36166669e-08
2.375716948e-08
2.384408373e-08
2.388504577e-08
2.388709078e-08
2.386865153e-08
2.380028519e-08
2.367758144e-08
2.352012853e-08
2.333114292e-08
2.308826207e-08
2.281093144e-08
2.248859458e-08
2.21427285e-08
2.177254573e-08
2.137021993e-08
2.094534583e-08
2.047586204e-08
1.996758489e-08
1.942168607e-08
1.884206677e-08
1.82507385e-08
1.763604521e-08
1.69903123e-08
1.632501805e-08
1.562155947e-08
1.490259283e-08
1.416961016e-08
1.341990009e-08
1.266292378e-08
1.190575089e-08
1.113082449e-08
1.035388231e-08
9.596623487e-09
8.859411144e-09
8.112837925e-09
7.410953813e-09
6.719082289e-09
6.074916329e-09
5.469062292e-09
4.909955048e-09
4.360180355e-09
7.626328225e-09
1.223856114e-08
1.956172164e-08
3.016290685e-08
)


101
(
-2.762641923e-28
2.0551581e-17
-2.548331463e-17
-1.979126285e-15
-1.561947797e-14
-6.722099035e-14
-2.050838434e-13
-5.495814926e-13
-1.304639463e-12
-2.792304576e-12
-5.348635572e-12
-9.116161937e-12
-1.361065329e-11
-1.72044413e-11
-1.623880056e-11
-4.184135939e-12
2.895121001e-11
9.666490885e-11
2.159258333e-10
4.060800319e-10
6.849177426e-10
1.070949759e-09
1.57721302e-09
2.211071604e-09
2.975720717e-09
3.863610939e-09
4.863528358e-09
5.959436758e-09
7.134574164e-09
8.36834036e-09
9.639392932e-09
1.092619098e-08
1.220899148e-08
1.349805184e-08
1.476445504e-08
1.600500663e-08
1.721711855e-08
1.839910825e-08
1.955690732e-08
2.069670911e-08
2.181142458e-08
2.287695344e-08
2.389747957e-08
2.487160223e-08
2.579860523e-08
2.669405348e-08
2.755762909e-08
2.83933032e-08
2.918599194e-08
2.993458026e-08
3.062449089e-08
3.126317497e-08
3.187399596e-08
3.244555253e-08
3.29741843e-08
3.344739183e-08
3.387887573e-08
3.425163334e-08
3.454384123e-08
3.477857753e-08
3.496673474e-08
3.510666548e-08
3.516135391e-08
3.517246539e-08
3.512601896e-08
3.499193828e-08
3.479960975e-08
3.453351237e-08
3.423307823e-08
3.386782622e-08
3.344783532e-08
3.299132407e-08
3.246770516e-08
3.188969236e-08
3.123885591e-08
3.050295332e-08
2.973154677e-08
2.89117471e-08
2.806547357e-08
2.715844515e-08
2.618442815e-08
2.516757034e-08
2.410562416e-08
2.301773125e-08
2.189657035e-08
2.074825975e-08
1.957912859e-08
1.837936923e-08
1.718404476e-08
1.602422888e-08
1.482493373e-08
1.369013213e-08
1.2555125e-08
1.148308837e-08
1.047450065e-08
9.541903598e-09
8.630118672e-09
1.440152742e-08
2.244029449e-08
3.487835001e-08
5.004047457e-08
)


101
(
-2.762639865e-28
2.166435326e-17
1.269042609e-17
-1.6793424e-15
-1.417325895e-14
-6.196003477e-14
-1.896381888e-13
-5.085274212e-13
-1.211239525e-12
-2.611549273e-12
-5.066504548e-12
-8.776184655e-12
-1.341672193e-11
-1.762202108e-11
-1.809755104e-11
-8.743077531e-12
2.01423531e-11
8.213880545e-11
1.948215561e-10
3.790312797e-10
6.55578319e-10
1.04710351e-09
1.572513617e-09
2.243862218e-09
3.07151391e-09
4.053687751e-09
5.181191479e-09
6.439460043e-09
7.814195891e-09
9.287278538e-09
1.083849092e-08
1.244237614e-08
1.406925943e-08
1.572804668e-08
1.738564855e-08
1.903827145e-08
2.067968702e-08
2.230523537e-08
2.392391143e-08
2.554273996e-08
2.715345926e-08
2.872802521e-08
3.027076179e-08
3.176842647e-08
3.321465861e-08
3.462640242e-08
3.600763993e-08
3.737405381e-08
3.86904265e-08
3.996475005e-08
4.1194446e-08
4.236596399e-08
4.348309132e-08
4.457026063e-08
4.560492663e-08
4.656555229e-08
4.749029074e-08
4.834921235e-08
4.909782462e-08
4.975108368e-08
5.033264937e-08
5.085857816e-08
5.129134319e-08
5.165825641e-08
5.189985798e-08
5.206705753e-08
5.21090845e-08
5.203984489e-08
5.189291555e-08
5.163864116e-08
5.131186353e-08
5.090094828e-08
5.039823533e-08
4.981386764e-08
4.911772017e-08
4.827243013e-08
4.729219128e-08
4.626737791e-08
4.517016093e-08
4.397983564e-08
4.270247394e-08
4.131248274e-08
3.979533068e-08
3.825012513e-08
3.663492937e-08
3.494868364e-08
3.319805485e-08
3.140612035e-08
2.955490222e-08
2.77563515e-08
2.589868771e-08
2.408985249e-08
2.23044949e-08
2.056979979e-08
1.894264114e-08
1.74490671e-08
1.601968324e-08
2.580692944e-08
3.935349653e-08
6.033473891e-08
8.596165137e-08
)


101
(
-2.762639865e-28
2.241174389e-17
4.641137614e-17
-1.406234722e-15
-1.285051433e-14
-5.718169278e-14
-1.757657826e-13
-4.719045631e-13
-1.127862015e-12
-2.449846743e-12
-4.816928039e-12
-8.491490625e-12
-1.330224721e-11
-1.815321345e-11
-2.013729892e-11
-1.363773588e-11
1.058989841e-11
6.600250967e-11
1.705105351e-10
3.45600777e-10
6.15917231e-10
1.007567007e-09
1.545795029e-09
2.247048235e-09
3.129354069e-09
4.199316792e-09
5.451244248e-09
6.873248966e-09
8.455087585e-09
1.018191949e-08
1.203386677e-08
1.398548221e-08
1.600315489e-08
1.808927972e-08
2.020742336e-08
2.235528721e-08
2.452212292e-08
2.669554017e-08
2.888355495e-08
3.109874799e-08
3.33331634e-08
3.55636459e-08
3.778853686e-08
3.998372042e-08
4.213441597e-08
4.425964767e-08
4.636622771e-08
4.84732078e-08
5.053887426e-08
5.257630713e-08
5.458442863e-08
5.654579795e-08
5.843847455e-08
6.030519284e-08
6.212133256e-08
6.384079081e-08
6.553947707e-08
6.716161341e-08
6.867340318e-08
7.004676016e-08
7.13232101e-08
7.251168036e-08
7.362612074e-08
7.463301276e-08
7.545459482e-08
7.620567064e-08
7.673915835e-08
7.711215577e-08
7.73371875e-08
7.744339774e-08
7.741000508e-08
7.720458239e-08
7.687801949e-08
7.640860678e-08
7.576694812e-08
7.493396015e-08
7.387533179e-08
7.263763651e-08
7.125817128e-08
6.976951075e-08
6.816376552e-08
6.630094095e-08
6.424060191e-08
6.206352768e-08
5.976524904e-08
5.734457778e-08
5.474477501e-08
5.210044587e-08
4.929746153e-08
4.653920284e-08
4.373771479e-08
4.089026654e-08
3.811277998e-08
3.538636241e-08
3.278868702e-08
3.045718065e-08
2.827420301e-08
4.455364532e-08
6.710203058e-08
1.029074777e-07
1.510052499e-07
)


101
(
-2.762641923e-28
2.282440328e-17
7.602487016e-17
-1.157639071e-15
-1.163908336e-14
-5.283222086e-14
-1.632788438e-13
-4.391815037e-13
-1.053437377e-12
-2.304887035e-12
-4.592715345e-12
-8.246177816e-12
-1.323702933e-11
-1.874602634e-11
-2.227960709e-11
-1.875595366e-11
4.79110623e-13
4.857365388e-11
1.43600582e-10
3.072517155e-10
5.676258854e-10
9.539133598e-10
1.496974556e-09
2.219127192e-09
3.14509458e-09
4.292085647e-09
5.661103726e-09
7.244177258e-09
9.036319503e-09
1.102635182e-08
1.31941718e-08
1.551733156e-08
1.796656094e-08
2.053564415e-08
2.318335122e-08
2.591002477e-08
2.870234942e-08
3.153772163e-08
3.441836424e-08
3.736314869e-08
4.03696374e-08
4.341762809e-08
4.650452049e-08
4.960323467e-08
5.268777665e-08
5.577097122e-08
5.885322609e-08
6.196192553e-08
6.508304544e-08
6.82003058e-08
7.130398122e-08
7.438627666e-08
7.741350454e-08
8.041739516e-08
8.339775682e-08
8.630941257e-08
8.919178064e-08
9.197696975e-08
9.469950327e-08
9.727715417e-08
9.965502274e-08
1.019669046e-07
1.041935138e-07
1.062725064e-07
1.081577747e-07
1.098988046e-07
1.113757739e-07
1.1262599e-07
1.136483651e-07
1.145148099e-07
1.150845769e-07
1.154515352e-07
1.156222451e-07
1.155360447e-07
1.151962324e-07
1.146159597e-07
1.136647655e-07
1.123258957e-07
1.107707306e-07
1.090109452e-07
1.070257386e-07
1.046536305e-07
1.01973844e-07
9.900211577e-08
9.571487578e-08
9.235008608e-08
8.857825374e-08
8.467141055e-08
8.04938086e-08
7.631545964e-08
7.208527638e-08