/*--------------------------------*- C++ -*----------------------------------*\
| =========                 |                                                 |
| \\      /  F ield         | OpenFOAM: The Open Source CFD Toolbox           |
|  \\    /   O peration     | Version:  2.3.1                                 |
|   \\  /    A nd           | Web:      www.OpenFOAM.org                      |
|    \\/     M anipulation  |                                                 |
\*---------------------------------------------------------------------------*/
FoamFile
{
    version     2.0;
    format      ascii;
    class       dictionary;
    location    "constant";
    object      GRPSI7;
}
// * * * * * * * * * * * * * * * * * * * * * * * * * * * * * * * * * * * * * //

GRPSI7_table
101
(

101
(
0.07167306726
0.07466110275
0.07822885112
0.07796444572
0.07552958421
0.072052837
0.06799207358
0.06367592754
0.05941582842
0.05525550716
0.05124001153
0.04742096565
0.04372079949
0.04014422297
0.03678532226
0.03355436275
0.03039035803
0.02747448221
0.02461880226
0.0218612939
0.01943406121
0.01701003632
0.01466628383
0.01255532124
0.01058857249
0.00873610801
0.007003781502
0.005363025621
0.003812663767
0.002361848131
0.001006319169
-0.0001967418711
-0.001469398935
-0.002714126035
-0.003765193646
-0.004779220184
-0.005707669529
-0.006604684699
-0.007530465924
-0.008425962104
-0.009193010478
-0.009919536331
-0.01065608212
-0.01131177951
-0.01194570245
-0.01256130591
-0.0131485411
-0.01371625242
-0.01425663462
-0.01477223094
-0.01525509154
-0.01572349917
-0.01616768544
-0.01658678799
-0.01698419782
-0.01738823384
-0.01775938003
-0.01810690323
-0.0184515914
-0.01877354443
-0.01908560807
-0.01937597882
-0.0196565559
-0.01992541206
-0.02018153
-0.02042483912
-0.0206538643
-0.02087649655
-0.02108705169
-0.02128428679
-0.02147408622
-0.02165793762
-0.02182833629
-0.02198001724
-0.02212103215
-0.022263631
-0.0224027637
-0.02252484152
-0.02263545807
-0.02273794363
-0.02283821106
-0.02293022182
-0.02301123165
-0.02308768812
-0.02315640874
-0.02321733898
-0.02327180411
-0.02332053427
-0.02336320781
-0.02340111581
-0.02343363592
-0.02345972636
-0.023481572
-0.02349872583
-0.02351241232
-0.02351499655
-0.01175548508
1.687645213e-10
-5.574273646e-20
-3.58974703e-21
1.114854729e-19
)


101
(
0.0709581216
0.07391994962
0.07746389585
0.07722167502
0.07483433517
0.07141653689
0.06742403461
0.0631785676
0.05898779439
0.05489779174
0.05095224967
0.04719999989
0.04357200305
0.04006649282
0.03676985804
0.0336060346
0.03051510847
0.02764590195
0.02485906952
0.02216011609
0.01974981323
0.01739023281
0.01509968159
0.01300510706
0.01106194008
0.009236239075
0.007525119108
0.005908491828
0.004378958832
0.002942040649
0.001596360438
0.0003776704962
-0.0008350665408
-0.002042807901
-0.003128771911
-0.004138321636
-0.005076842693
-0.005966009991
-0.006850917975
-0.007723905023
-0.00852546217
-0.009260802042
-0.009974806139
-0.01064975234
-0.01128487626
-0.01189591093
-0.0124828077
-0.01304765801
-0.01358955967
-0.01410796351
-0.01460021701
-0.01506978325
-0.01552000412
-0.01594887252
-0.01635603433
-0.01674970183
-0.01713262007
-0.01749391131
-0.01783870765
-0.01817089035
-0.0184880821
-0.0187914926
-0.01907979765
-0.01935630722
-0.01962146953
-0.01987517844
-0.02011684894
-0.02034697395
-0.02056840449
-0.02077926662
-0.0209788873
-0.02116949175
-0.0213517887
-0.02152329238
-0.02168355054
-0.02183607698
-0.02198359419
-0.02212442545
-0.02225423084
-0.02237426215
-0.02248698928
-0.02259422897
-0.02269431605
-0.02278806563
-0.02287662242
-0.0229578853
-0.02303149707
-0.02309871602
-0.0231591726
-0.02321648086
-0.02326917075
-0.02331331401
-0.02335263604
-0.02338630639
-0.02337339048
-0.02328709429
-0.01113217438
0.0009641905134
0.0009610286883
0.0009582097273
0.0009582096415
)


101
(
0.07024310084
0.07317861268
0.07669842829
0.07647787582
0.07413746751
0.07077802156
0.06685284065
0.06267726592
0.05855507683
0.05453436624
0.05065769512
0.0469713918
0.04341358012
0.03997799898
0.03674345776
0.0336446892
0.03062431779
0.02780548319
0.02508173008
0.02244228685
0.0200570672
0.01775035388
0.01551340582
0.01344416401
0.01152340103
0.009722808271
0.008033852523
0.006440130406
0.004931955542
0.003510916947
0.002176432287
0.0009515161343
-0.000228807443
-0.001396954701
-0.002488800591
-0.003501880694
-0.004446191238
-0.00533443504
-0.006195670447
-0.007043669053
-0.00785292801
-0.008600700875
-0.009307584986
-0.009986204032
-0.01062629101
-0.01123673606
-0.01182274517
-0.01238592132
-0.01292772603
-0.01344766533
-0.0139452225
-0.01441855992
-0.01487283702
-0.0153084416
-0.01572404804
-0.01611824389
-0.01650464116
-0.01687527938
-0.01722610933
-0.0175650311
-0.01788878867
-0.01820099006
-0.01849817476
-0.01878263134
-0.01905602048
-0.01931891039
-0.0195711996
-0.01981098456
-0.0200421238
-0.02026439861
-0.02047547464
-0.02067596278
-0.02086826578
-0.02105290655
-0.02122870233
-0.02139543364
-0.02155505524
-0.02171052727
-0.02185752418
-0.02199484851
-0.0221234676
-0.02224603925
-0.02236274153
-0.02247379013
-0.02258013856
-0.02268140478
-0.02277607197
-0.02286319043
-0.0229416849
-0.02301799838
-0.02308932748
-0.02315218913
-0.02321087198
-0.02325985735
-0.02321874935
-0.02303976507
-0.01049741174
0.001928377285
0.001922064369
0.001916434163
0.001916432762
)


101
(
0.06952800578
0.07243709341
0.0759324518
0.07573305462
0.07343899138
0.0701373065
0.06627852877
0.06217205344
0.05811771814
0.05416530315
0.05035644231
0.04673522318
0.04324576895
0.03987886675
0.03670613726
0.03367063627
0.03071840036
0.02795246971
0.02528793546
0.02270755518
0.0203540099
0.01809304158
0.01590758297
0.01387007319
0.01197290083
0.01019626646
0.008529701927
0.00695822392
0.005471476821
0.004067857087
0.002746117268
0.001521412971
0.0003592017426
-0.0007757302486
-0.001856863367
-0.002869819648
-0.00381739252
-0.004707108265
-0.005556064733
-0.00638371389
-0.007187207028
-0.007941165454
-0.008648008977
-0.009326735657
-0.009969890386
-0.01058179908
-0.01116780586
-0.01173011042
-0.01227141216
-0.01279198863
-0.01329251092
-0.01376948157
-0.01422731185
-0.01466769014
-0.01508981955
-0.01548826711
-0.01587778171
-0.01625425512
-0.01661159689
-0.01695692083
-0.01728719948
-0.01760673923
-0.01791201934
-0.01820437617
-0.01848560424
-0.0187568468
-0.01901843804
-0.01926786373
-0.01950857022
-0.01974097815
-0.01996294335
-0.02017430512
-0.02037706569
-0.02057290967
-0.02076142482
-0.02094168456
-0.02111434195
-0.02128351286
-0.02144620862
-0.02160037173
-0.02174576694
-0.02188435288
-0.02201716108
-0.02214511864
-0.02226847077
-0.02238787236
-0.02250308853
-0.0226118913
-0.02270957313
-0.02280490627
-0.02289453976
-0.02297470456
-0.02305293179
-0.02311774251
-0.02304577906
-0.02277054095
-0.009850867411
0.00289253254
0.00288311933
0.002874721024
0.002874719053
)


101
(
0.06881283722
0.07169539328
0.07516596977
0.07498721784
0.07273891688
0.06949440716
0.06570113542
0.06166296216
0.05767575975
0.05379067311
0.05004858445
0.04649157858
0.04306879056
0.03976924229
0.03665792778
0.03368414409
0.03079775864
0.02808632812
0.02547844558
0.02295597222
0.02063916352
0.0184199169
0.01628290553
0.01428115897
0.0124098233
0.01065683636
0.009012591997
0.007462908637
0.005997441319
0.004612320107
0.003304890759
0.002085096087
0.0009341161392
-0.0001756099523
-0.001238695931
-0.002245404171
-0.003192792035
-0.004083491477
-0.004926622771
-0.005740068029
-0.006533144234
-0.00728657486
-0.007994239286
-0.008672647339
-0.009317090312
-0.009930570601
-0.01051731979
-0.01107951461
-0.01162041347
-0.01214111726
-0.01264320811
-0.01312299794
-0.01358396338
-0.01402802607
-0.01445505027
-0.01485836567
-0.01525161385
-0.01563250814
-0.01599541368
-0.01634666441
-0.01668318368
-0.01700938139
-0.01732201395
-0.01762187357
-0.01791056498
-0.01818951717
-0.01845942653
-0.01871786571
-0.01896785187
-0.01920973351
-0.01944177493
-0.01966375282
-0.01987701981
-0.02008351154
-0.02028350607
-0.0204762922
-0.02066155352
-0.02084363117
-0.02102062809
-0.02119069025
-0.02135308262
-0.02150819837
-0.02165714306
-0.02180167889
-0.02194167255
-0.02207848201
-0.02221233682
-0.02234236348
-0.02246095688
-0.02257604614
-0.02268366623
-0.02278006466
-0.02287735919
-0.02295826769
-0.02285282331
-0.02247771483
-0.009191903196
0.003856790384
0.003844182492
0.00383292852
0.003832921675
)


101
(
0.06809759587
0.07095351366
0.07439898546
0.07424037181
0.07203725393
0.06884933871
0.0651206963
0.06115002489
0.05722924233
0.0534105449
0.04973421302
0.04624054539
0.04288285221
0.03964928795
0.03659887952
0.03368544888
0.0308627793
0.0282067064
0.02565375556
0.02318774654
0.02091137338
0.01873188562
0.01664025928
0.01467640742
0.01283334079
0.01110445918
0.009482507012
0.007954270146
0.006509817939
0.005143873108
0.00385216975
0.002640882944
0.00149845511
0.0004071220716
-0.0006367201198
-0.001632037405
-0.002574780307
-0.003464453504
-0.004304558559
-0.005108855858
-0.005891446809
-0.006640173974
-0.007346951044
-0.008024494534
-0.008669038736
-0.009283433861
-0.00987104155
-0.01043362218
-0.01097442118
-0.01149505903
-0.01199783738
-0.01247953697
-0.01294308352
-0.01339016648
-0.01382098876
-0.01422875676
-0.01462588478
-0.01501066945
-0.01537822854
-0.01573462225
-0.01607682305
-0.01640910741
-0.01672847866
-0.01703540622
-0.01733121894
-0.01761735763
-0.0178947539
-0.01816136989
-0.01842008897
-0.01867094969
-0.01891241317
-0.01914440954
-0.01936778078
-0.01958442619
-0.0197951642
-0.01999981582
-0.02019719153
-0.02039142251
-0.0205814487
-0.02076595768
-0.02094477158
-0.02111675111
-0.0212820885
-0.02144309623
-0.02159931578
-0.02175299892
-0.02190463005
-0.02205412799
-0.02219354709
-0.02232988409
-0.02245567698
-0.02256788049
-0.02268277756
-0.02277922608
-0.02263869002
-0.0221602623
-0.00851998012
0.004821198881
0.004805264752
0.004791059507
0.004791066466
)


101
(
0.06738228297
0.07021145649
0.07363150275
0.07349252338
0.07133401292
0.06820211665
0.06453724693
0.06063327573
0.05677820638
0.0530249859
0.04941341822
0.04598221252
0.042688148
0.03951917629
0.0365290593
0.0336747616
0.03091382901
0.0283133972
0.02581418145
0.0234031486
0.02116978303
0.01902936905
0.01698049535
0.01505532233
0.01324264504
0.0115388516
0.009939399393
0.008432373272
0.007008609588
0.005662166389
0.004387350284
0.003187471495
0.002053255627
0.0009755624222
-5.069697625e-05
-0.001032041933
-0.001966199523
-0.002851832131
-0.003689082888
-0.004487323517
-0.005261036797
-0.00600335525
-0.006707349703
-0.007383019383
-0.00802663212
-0.008641045294
-0.009229150113
-0.009792258802
-0.01033322661
-0.01085378165
-0.01135668721
-0.0118394718
-0.01230490381
-0.0127544101
-0.01318827034
-0.01359993361
-0.01400074668
-0.01438908073
-0.01476063391
-0.01512134798
-0.01546846379
-0.01580612269
-0.01613157505
-0.01644508641
-0.01674771162
-0.0170406755
-0.01732490426
-0.01759883372
-0.01786548731
-0.01812472323
-0.01837505724
-0.01861650164
-0.01884942661
-0.01907561863
-0.01929637153
-0.01951221803
-0.01972126585
-0.0199271734
-0.02012934578
-0.02032689417
-0.02052074213
-0.02070913549
-0.02089109776
-0.02106871467
-0.02124103986
-0.02141111954
-0.02157971981
-0.02174730104
-0.02190651396
-0.02206449512
-0.0222092069
-0.02233714758
-0.02246829227
-0.02257960421
-0.0224023767
-0.02181719943
-0.007834638136
0.005785394832
0.005766324421
0.005749317642
0.005749321512
)


101
(
0.06666689884
0.06946922276
0.07286352455
0.0727436785
0.07062920327
0.06755275552
0.06395082148
0.06011274885
0.05632269147
0.0526340612
0.04908628815
0.04571666976
0.04248486039
0.03937908767
0.03644855106
0.03365227337
0.03095125281
0.02840631366
0.02595993443
0.02360245518
0.0214137827
0.01931249294
0.01730433714
0.01541777305
0.01363706731
0.01195958102
0.01038312148
0.008897259951
0.007493873624
0.006166979735
0.004909853975
0.003723658886
0.002598622799
0.001531916953
0.000520703376
-0.0004462947746
-0.001369256919
-0.002247786788
-0.003080789664
-0.003874123087
-0.004640539502
-0.005376255712
-0.006076249451
-0.006748992983
-0.007390694035
-0.0080041266
-0.008592016236
-0.009155432859
-0.0096967094
-0.0102173117
-0.01072005445
-0.01120318802
-0.01166970643
-0.01212096213
-0.01255717154
-0.01297211823
-0.01337635056
-0.01376802474
-0.01414308804
-0.01450741938
-0.01485862227
-0.01520079569
-0.01553150599
-0.0158509594
-0.01616002934
-0.01645958599
-0.01675023993
-0.01703073758
-0.01730441645
-0.01757123217
-0.0178297915
-0.01808010899
-0.0183220636
-0.0185572135
-0.01878722172
-0.0190134676
-0.01923362954
-0.01945081358
-0.01966451377
-0.01987406674
-0.02008151972
-0.02028513813
-0.0204833183
-0.02067756149
-0.02086599481
-0.02105243443
-0.02123749108
-0.02142210614
-0.0215994098
-0.02177861795
-0.02194297246
-0.02208661781
-0.02223310664
-0.02235822455
-0.02214303274
-0.02144767179
-0.007134972798
0.006749452474
0.006727250426
0.006707405746
0.00670737102
)


101
(
0.0659514449
0.06872681462
0.07209505495
0.07199384423
0.06992283541
0.06690127067
0.06336145436
0.05958847994
0.05586273758
0.05223783484
0.04875290955
0.04544400819
0.04227316243
0.03922920773
0.03635745575
0.03361816092
0.03097537421
0.02848545705
0.02609116896
0.02378593295
0.02164294487
0.01958120186
0.01761233904
0.01576384813
0.01401612479
0.01236616738
0.01081342629
0.009348901599
0.007965675397
0.00665820876
0.005419241302
0.004248437588
0.003134070572
0.002077401856
0.001079065067
0.0001254789531
-0.0007852236304
-0.00165433698
-0.002481066129
-0.003269098311
-0.004028987788
-0.004758405704
-0.005453868446
-0.006122944596
-0.006761945828
-0.007373470969
-0.007960242177
-0.008523358597
-0.009064738164
-0.009585496798
-0.01008811621
-0.01057116951
-0.0110379633
-0.01149014369
-0.01192796368
-0.01234551543
-0.01275270596
-0.01314748377
-0.01352580836
-0.01389329476
-0.01424786474
-0.01459366543
-0.01492866984
-0.01525317965
-0.01556809536
-0.01587397555
-0.01617087374
-0.01645748289
-0.01673733154
-0.01701072685
-0.01727668828
-0.01753527274
-0.0177857584
-0.01802934095
-0.01826790955
-0.01850367441
-0.01873417867
-0.01896212636
-0.01918683901
-0.01940756309
-0.01962744883
-0.01984503349
-0.02005856145
-0.02026905646
-0.02047335852
-0.02067613047
-0.02087732573
-0.02107825562
-0.02127224641
-0.02147154407
-0.02165572444
-0.02181510833
-0.02197644071
-0.02211416984
-0.0218589326
-0.02105136472
-0.006421437017
0.007713627562
0.007688255407
0.007665586406
0.007665554635
)


101
(
0.06523592122
0.06798423284
0.07132609667
0.07124302625
0.06921491843
0.06624767608
0.06276917824
0.05906050432
0.05539838373
0.05183636859
0.0484133668
0.04516431868
0.04205321706
0.03906972297
0.03625588932
0.03357259152
0.03098649507
0.02855090159
0.02620800955
0.02395382382
0.02185700518
0.01983535258
0.01790487796
0.01609375612
0.01437953134
0.01275815594
0.01122999002
0.009787193354
0.008424062633
0.007135832503
0.005915188536
0.004760951694
0.003658847536
0.002612431127
0.001625666857
0.0006841677822
-0.0002144120363
-0.001072836228
-0.00189144146
-0.002672969621
-0.003426143763
-0.004149391957
-0.004840120682
-0.005505054461
-0.006140796257
-0.006749702843
-0.007334492887
-0.00789651706
-0.00843747401
-0.008958181004
-0.009460703067
-0.009943634271
-0.01041023934
-0.0108624998
-0.01130105019
-0.01172039026
-0.0121298798
-0.01252738516
-0.01290876291
-0.01327913907
-0.01363660624
-0.01398532341
-0.01432365842
-0.01465213411
-0.0149719516
-0.01528362428
-0.01558659808
-0.0158791656
-0.01616468376
-0.01644371475
-0.01671600288
-0.01698197898
-0.01724041268
-0.01749199086
-0.01773856948
-0.01798300948
-0.01822288799
-0.01846090675
-0.01869619399
-0.01892740836
-0.01915859669
-0.01938892472
-0.01961685023
-0.01984295291
-0.02006252818
-0.02028128437
-0.02049859841
-0.02071524373
-0.02092480826
-0.02114285647
-0.02134639034
-0.0215216397
-0.02169740108
-0.02184653698
-0.02154939039
-0.02062763121
-0.005693585564
0.00867787058
0.008649291061
0.008623738407
0.008623684711
)


101
(
0.06452032979
0.06724148014
0.07055665446
0.07049123225
0.06850546323
0.06559198725
0.06217402671
0.05852885927
0.05492967022
0.05142972377
0.0480677431
0.04487769295
0.04182518059
0.03890082089
0.03614398063
0.03351572617
0.03098489699
0.02860277428
0.02631058069
0.02410634796
0.02205579898
0.02007476326
0.01818219089
0.01640774584
0.01472715883
0.01313515979
0.01163243836
0.01021194222
0.008869038787
0.007599888499
0.006397532967
0.005260551025
0.004172088523
0.003136804998
0.002161256034
0.001230810074
0.0003436008805
-0.000503921392
-0.001313220912
-0.002086836211
-0.002832385787
-0.003549091472
-0.004234847788
-0.004895340428
-0.00552748775
-0.006133295527
-0.006715349649
-0.007275406028
-0.00781523629
-0.00833546332
-0.008837702283
-0.009320451501
-0.009786736421
-0.0102385856
-0.01067700701
-0.01109719418
-0.01150813783
-0.0119077592
-0.01229185057
-0.01266491328
-0.01302500582
-0.01337616686
-0.01371708005
-0.01404846322
-0.01437197334
-0.0146884751
-0.01499710254
-0.01529555759
-0.01558657426
-0.0158706169
-0.01614817297
-0.01642044231
-0.0166860021
-0.01694503199
-0.01719913467
-0.0174515985
-0.01769994324
-0.01794701784
-0.01819222943
-0.01843353903
-0.01867509953
-0.0189168139
-0.01915801681
-0.01939913762
-0.0196333154
-0.01986715669
-0.02010051342
-0.02033263071
-0.02055671739
-0.02079190415
-0.02101418356
-0.0212054376
-0.02139509416
-0.02155452537
-0.0212137491
-0.02017579766
-0.004951111948
0.009642062045
0.009610257941
0.009581944956
0.009582009583
)


101
(
0.063804671
0.06649855765
0.06978673141
0.06973846828
0.06779447908
0.06493421809
0.06157603137
0.05799358131
0.05445663643
0.05101795946
0.04771611917
0.0445842215
0.04158920185
0.038722688
0.03602186915
0.03344772199
0.03097084459
0.02864123715
0.02639901539
0.02424371714
0.02223925121
0.02029925008
0.01844438595
0.01670604558
0.0150590065
0.0134969024
0.01202040017
0.01062288042
0.009300534415
0.008050428117
0.006866225549
0.005746813693
0.004673014581
0.003649964682
0.002686017318
0.001766178885
0.0008895367915
5.247398785e-05
-0.0007471224669
-0.001511791063
-0.002248586218
-0.00295783579
-0.003638042316
-0.004293733602
-0.004921987286
-0.005524444822
-0.006103349412
-0.006660647479
-0.007198448596
-0.007717520409
-0.008219110072
-0.00870154418
-0.009167410034
-0.009618628579
-0.01005637455
-0.0104765319
-0.01088793226
-0.01128880062
-0.01167505324
-0.01205049418
-0.01241301039
-0.0127663544
-0.01310936197
-0.01344283724
-0.01376886538
-0.01408887458
-0.01440219993
-0.01470621655
-0.015002729
-0.01529160028
-0.0155736892
-0.01585106583
-0.0161226031
-0.01638829297
-0.01664941019
-0.01690941399
-0.01716553371
-0.01742061923
-0.0176747107
-0.01792562493
-0.01817700427
-0.01842877351
-0.01868180691
-0.01893716937
-0.0191856079
-0.01943352572
-0.01968217657
-0.01992992617
-0.02016767171
-0.02041844364
-0.02065853917
-0.02086541413
-0.02106857202
-0.02123726511
-0.02085132653
-0.0196953991
-0.004193903401
0.01060617441
0.01057108165
0.01053980409
0.01053983593
)


101
(
0.06308894579
0.06575546705
0.06901633125
0.06898474099
0.06708197577
0.06427438282
0.06097522364
0.05745470777
0.05397932226
0.05060113382
0.04735857412
0.04428399445
0.04134542301
0.03853550848
0.03588970476
0.03336873609
0.03094458369
0.02866648234
0.02647346207
0.02436612862
0.02240736039
0.02050865553
0.01869148027
0.01698883
0.01537513332
0.01384320806
0.01239354548
0.01101969435
0.009718398807
0.00848747855
0.007321308545
0.00621949492
0.005160995078
0.004151212365
0.003199676226
0.002290648417
0.001424153268
0.0005968808373
-0.000193337791
-0.0009486335379
-0.001675665143
-0.002376284957
-0.003049991362
-0.003700313908
-0.004324327143
-0.004923176995
-0.005498654147
-0.006052740104
-0.006587751443
-0.007104789446
-0.007605052655
-0.008086814769
-0.008552161784
-0.009002640794
-0.009439410416
-0.009858923406
-0.01026985964
-0.01067095663
-0.01105851636
-0.01143582673
-0.01180049398
-0.0121558184
-0.012500664
-0.01283572151
-0.01316334988
-0.01348554747
-0.01380219284
-0.01411087709
-0.01441266378
-0.01470640189
-0.01499273638
-0.01527432573
-0.01555057544
-0.01582178999
-0.01608918201
-0.01635620416
-0.01661956682
-0.01688190605
-0.01714376608
-0.01740335367
-0.01766411892
-0.0179250525
-0.01818819765
-0.01845644938
-0.01871900233
-0.01898043065
-0.01924300427
-0.0195061339
-0.01975730561
-0.02002215508
-0.0202788237
-0.02050090625
-0.02071700594
-0.02089395523
-0.02046132973
-0.01918599975
-0.00342199609
0.01157018461
0.01153166917
0.01149736203
0.01149742295
)


101
(
0.06237315511
0.06501221008
0.06824545773
0.06823005707
0.06636796305
0.0636124955
0.06037163427
0.05691227631
0.0534977679
0.05017930387
0.04699518514
0.04397710125
0.04109398036
0.03833946245
0.03574764567
0.03327892705
0.03090634675
0.02867871547
0.02653409035
0.02447378552
0.02256016623
0.02070285191
0.0189234382
0.01725621661
0.01567562806
0.01417399053
0.01275161681
0.01140206491
0.01012240434
0.008910989353
0.007762851873
0.006678558665
0.005635629752
0.004639856243
0.003701660088
0.00280413485
0.001947901492
0.001129944556
0.0003484898493
-0.0003976258063
-0.00111444207
-0.001805385116
-0.002471311519
-0.003115286096
-0.003734512629
-0.004329480589
-0.004901384552
-0.005451950011
-0.005983562011
-0.006497796472
-0.006995960129
-0.007476413292
-0.007940885323
-0.008390530014
-0.00882618347
-0.009244651188
-0.009654450884
-0.01005480347
-0.0104426304
-0.01082103341
-0.01118735892
-0.01154436691
-0.01189086477
-0.01222729469
-0.01255598134
-0.01287928212
-0.01319777332
-0.01350975083
-0.0138160574
-0.01411453943
-0.01440513421
-0.0146905191
-0.01497043716
-0.01524581762
-0.01551830346
-0.01579161371
-0.01606178434
-0.01633084467
-0.01659951491
-0.01686660855
-0.01713609026
-0.01740568266
-0.01767751697
-0.0179567601
-0.01823274865
-0.01850767114
-0.01878299404
-0.01906029571
-0.01932497412
-0.01960304063
-0.01987448252
-0.02011102303
-0.02033945382
-0.02052385147
-0.02004331432
-0.01864710305
-0.002635205334
0.01253388425
0.0124918501
0.01245430528
0.0124542762
)


101
(
0.06165729942
0.06426878792
0.06747411411
0.06747442271
0.06565245014
0.06294856954
0.05976529288
0.05636632435
0.05301201342
0.04975252543
0.04662602763
0.04366362982
0.04083500437
0.03813472686
0.03559585661
0.03317845506
0.03085635485
0.02867815179
0.02658108209
0.02456689528
0.02269776544
0.02088176018
0.01914018769
0.01750826404
0.01596058619
0.01448923345
0.01309442273
0.01176968081
0.01051226385
0.00932083214
0.008190889197
0.007124024227
0.006096722929
0.005115396766
0.004191314495
0.003306194102
0.002460841537
0.001652236796
0.0008789822867
0.0001413834419
-0.0005653308039
-0.001245943558
-0.001902843462
-0.002539185906
-0.003152780677
-0.003743394299
-0.00431146301
-0.004858401276
-0.005386288153
-0.005896976518
-0.006392222434
-0.00687068183
-0.007333721303
-0.007782230502
-0.008216666598
-0.008633867737
-0.009042020982
-0.009440827995
-0.009827917444
-0.0102064328
-0.01057369809
-0.01093191287
-0.01127975831
-0.01161738712
-0.01194689823
-0.01227068057
-0.01258979309
-0.01290348741
-0.01321299184
-0.01351561927
-0.01381043519
-0.01409957331
-0.01438261344
-0.01466094566
-0.01493702199
-0.0152153926
-0.01549172136
-0.01576717951
-0.01604204356
-0.01631542287
-0.01659248594
-0.01687030823
-0.01715005117
-0.01743833893
-0.01772623487
-0.01801463903
-0.01830217176
-0.0185920369
-0.01886980129
-0.01916057237
-0.01944516582
-0.01969519637
-0.01993512508
-0.02012613843
-0.01959671723
-0.01807825777
-0.001833363399
0.0134971366
0.01345138864
0.01341038906
0.01341024893
)


101
(
0.06094138024
0.06352520294
0.06670230484
0.06671784528
0.06493544734
0.06228261916
0.05915622936
0.0558168903
0.05252209992
0.04932085417
0.04625117575
0.04334366753
0.04056862111
0.03792147465
0.03543450706
0.03306748418
0.03079481813
0.02866501084
0.02661463288
0.02464566856
0.0228202886
0.02104534785
0.01934164993
0.01774498267
0.01623008599
0.01478896408
0.01342185121
0.01212228278
0.01088766208
0.009716786485
0.00860539957
0.007555990839
0.006544238957
0.005577506423
0.004668054884
0.00379620319
0.00296264343
0.002163928293
0.001398728374
0.0006689845822
-2.8278826e-05
-0.0006985652877
-0.001345529041
-0.001972802481
-0.002579470506
-0.003165044442
-0.003728976902
-0.004272067428
-0.004796051571
-0.005302806083
-0.005794333438
-0.006269934985
-0.006730902953
-0.007177792199
-0.007610802128
-0.008026647034
-0.008432833345
-0.00882946074
-0.009214858799
-0.009592404645
-0.009959725575
-0.01031853002
-0.01066725642
-0.01100576771
-0.01133592003
-0.01165990313
-0.01197888367
-0.01229294425
-0.01260403554
-0.01290959771
-0.01320818043
-0.01350106851
-0.01378713709
-0.01406774115
-0.01434597646
-0.01462768716
-0.0149089673
-0.01519043259
-0.01547123822
-0.01574997501
-0.01603317705
-0.01631834154
-0.01660562514
-0.01690160314
-0.01719928603
-0.017500509
-0.01780023924
-0.01810120015
-0.01839098453
-0.01869408098
-0.0189904364
-0.01925295921
-0.01950353087
-0.01970007298
-0.01912101711
-0.01747918981
-0.001016367924
0.01445978005
0.01441005088
0.01436588338
0.014366142
)


101
(
0.06022539967
0.06278145805
0.06593003502
0.06596033279
0.06421696547
0.06161465897
0.05854447341
0.05526401299
0.05202806921
0.04888434546
0.04587070253
0.0430173006
0.04029495211
0.03769987423
0.0352637701
0.03294618197
0.03072194093
0.02863950848
0.02663494577
0.02471032794
0.02292790326
0.02119363737
0.01952775535
0.01796633751
0.01648417389
0.01507323625
0.01373386381
0.01245968173
0.01124828777
0.01009855076
0.009006234359
0.007974505059
0.006978273444
0.006026078973
0.005131459169
0.004273521621
0.003452738182
0.002664846488
0.001908082844
0.00118579476
0.0004971593831
-0.0001633355976
-0.0008000686763
-0.001417125809
-0.002015379895
-0.00259473943
-0.003153938112
-0.00369297101
-0.004212917376
-0.004715464846
-0.00520274723
-0.005674669279
-0.006132716941
-0.00657738176
-0.007008562011
-0.007422916813
-0.007827070837
-0.008221085344
-0.008603959108
-0.008979472668
-0.009345797547
-0.009704367677
-0.0100533762
-0.01039230921
-0.01072280919
-0.01104681568
-0.01136526897
-0.01167873912
-0.01198995268
-0.01229690485
-0.01259818764
-0.01289446002
-0.0131835977
-0.01346637059
-0.01374588831
-0.01402917388
-0.01431355782
-0.01460000784
-0.01488661989
-0.01517041797
-0.01545842444
-0.01574942951
-0.01604368547
-0.01634661078
-0.01665203735
-0.0169646202
-0.01727658631
-0.01758768659
-0.0178879142
-0.01820294628
-0.01850982586
-0.01878369385
-0.01904428648
-0.01924504144
-0.01861526736
-0.01684949704
-0.0001844941253
0.01542146711
0.01536748191
0.01531931157
0.01531937109
)


101
(
0.05950935661
0.06203755299
0.06515730635
0.06520188984
0.06349701218
0.06094470041
0.05793005131
0.05470772877
0.05152996115
0.04844305224
0.04548467805
0.04268461242
0.04001411312
0.03747008752
0.03508382181
0.03281471966
0.03063792062
0.02860186265
0.02664222911
0.0247610963
0.02302081096
0.02132670453
0.01969846182
0.0181722705
0.01672284476
0.01534209374
0.01403047457
0.01278177518
0.01159388718
0.01046579329
0.00939314466
0.008379516725
0.007398936736
0.0064611786
0.005581339541
0.00473766341
0.003930440629
0.003154415134
0.002406986374
0.001692332313
0.001011702418
0.0003601049969
-0.0002668161108
-0.0008730546815
-0.001461440157
-0.002033066783
-0.002586590243
-0.003121131604
-0.003636881195
-0.004135119438
-0.004617764968
-0.005085287407
-0.00553957447
-0.005981231405
-0.0064100622
-0.00682263844
-0.007224641697
-0.007615919778
-0.007995746387
-0.008368240457
-0.008732384356
-0.009089714447
-0.009438246252
-0.009777010733
-0.01010743221
-0.01043117973
-0.01074887969
-0.0110612101
-0.0113713989
-0.01167820111
-0.0119807044
-0.01227940244
-0.01257132522
-0.01285640391
-0.01313709437
-0.0134207907
-0.01370614501
-0.0139957207
-0.01428748376
-0.01457638124
-0.01486851707
-0.01516366772
-0.01546370593
-0.01577313647
-0.0160847521
-0.01640656406
-0.01673040131
-0.01705129302
-0.0173602726
-0.01768653868
-0.01800289988
-0.018286712
-0.01855679064
-0.01876057893
-0.01807907345
-0.01618893217
0.0006623788704
0.01638196818
0.01632335613
0.01627088913
0.01627073663
)


101
(
0.05879325319
0.06129349068
0.06438412406
0.06444252468
0.06277559834
0.06027275776
0.05731299147
0.05414807629
0.05102781789
0.04799702896
0.04509317309
0.04234568675
0.03972621695
0.03723227113
0.03489483768
0.03267327346
0.03054295254
0.02855228628
0.02663670006
0.0247982053
0.02309922583
0.02144467283
0.01985377103
0.01836271949
0.01694605526
0.01559555203
0.01431172823
0.01308854198
0.01192428404
0.01081818859
0.009765794683
0.008770848829
0.007806275792
0.006882958399
0.006017699415
0.005188293991
0.004395129371
0.003631967251
0.002895014672
0.002188710072
0.001515953613
0.0008724236854
0.0002544523025
-0.0003411173546
-0.0009187166726
-0.001480984383
-0.002027348987
-0.002556663867
-0.00306796097
-0.003561763838
-0.004039638514
-0.004502253106
-0.00495190012
-0.005389655517
-0.005815402221
-0.006225793799
-0.006625560309
-0.007014040114
-0.007390510511
-0.007759250738
-0.00812012042
-0.008475041246
-0.008822150763
-0.009160051469
-0.009489800344
-0.00981284684
-0.0101295234
-0.01044037409
-0.01074878403
-0.01105413947
-0.01135629708
-0.011655997
-0.01194981053
-0.0122370512
-0.01251922543
-0.0128030668
-0.01308778736
-0.013378147
-0.01367340552
-0.01396706292
-0.01426332743
-0.01456143464
-0.01486543466
-0.01518060603
-0.01549760463
-0.01582643152
-0.01616087977
-0.01649155974
-0.01680791346
-0.01714419164
-0.01746923614
-0.01776148211
-0.01804028513
-0.01824617925
-0.01751179433
-0.01549704441
0.001524123676
0.01734087766
0.01727725904
0.01722066677
0.01722081178
)


101
(
0.05807709156
0.06054927419
0.06361049345
0.06368224554
0.0620527349
0.05959884529
0.05669332162
0.05358509397
0.05052168185
0.04754632967
0.04469625748
0.04200060615
0.03943137236
0.03698657634
0.03469699278
0.03252202329
0.03043723259
0.02849098906
0.0266185725
0.02482188781
0.02316338198
0.02154771081
0.019993734
0.01853764291
0.01715374147
0.01583358027
0.01457764617
0.01338000955
0.01223940699
0.01115549013
0.01012381668
0.009148195229
0.008200186543
0.007291533605
0.006440704905
0.005625377167
0.004846406493
0.004096759416
0.003371423262
0.002674623314
0.002010231972
0.001374367394
0.0007643601882
0.0001786374477