/*--------------------------------*- C++ -*----------------------------------*\
| =========                 |                                                 |
| \\      /  F ield         | OpenFOAM: The Open Source CFD Toolbox           |
|  \\    /   O peration     | Version:  2.3.1                                 |
|   \\  /    A nd           | Web:      www.OpenFOAM.org                      |
|    \\/     M anipulation  |                                                 |
\*---------------------------------------------------------------------------*/
FoamFile
{
    version     2.0;
    format      ascii;
    class       dictionary;
    location    "constant";
    object      GRPSI43;
}
// * * * * * * * * * * * * * * * * * * * * * * * * * * * * * * * * * * * * * //

GRPSI43_table
101
(

101
(
-3.02914575e-12
-9.971383446e-07
-7.902194925e-06
-3.126905948e-05
-8.187085548e-05
-0.0001651116657
-0.0002825279367
-0.0004438992898
-0.0006425723311
-0.0008817659139
-0.001159611478
-0.001477003195
-0.001827131879
-0.002224259227
-0.002650636213
-0.003109272462
-0.003606067032
-0.004146165273
-0.004687364251
-0.005312926067
-0.005930024803
-0.006573614208
-0.007292585547
-0.008026586163
-0.008781178795
-0.009566885048
-0.01038174238
-0.01122002821
-0.01209512636
-0.01298879707
-0.01390709393
-0.01483587917
-0.01573418483
-0.01680596929
-0.01779985619
-0.01881188583
-0.01982862461
-0.02082884687
-0.02187567795
-0.02298535643
-0.02409964521
-0.02513791176
-0.02624216269
-0.0273467333
-0.02841219911
-0.02952323913
-0.03060890986
-0.03172987722
-0.03283138139
-0.03395674803
-0.03505828453
-0.03616541951
-0.03727044808
-0.03836706943
-0.03945048205
-0.04052482179
-0.04164260335
-0.04268755478
-0.04377015823
-0.04481807995
-0.04587421232
-0.04690983587
-0.04793005359
-0.04894467561
-0.04994374455
-0.05093268061
-0.05190139059
-0.05285278723
-0.05379886243
-0.05471677137
-0.05562067651
-0.05650734255
-0.05738848491
-0.05823628256
-0.05905406905
-0.05983973619
-0.06062286744
-0.06137822471
-0.06209885546
-0.06278946949
-0.06344983647
-0.064094806
-0.06470059148
-0.06527869933
-0.0658221999
-0.06633031023
-0.06680127329
-0.06723948933
-0.06764193291
-0.06801457469
-0.06834500411
-0.06864419233
-0.06890975498
-0.06914411327
-0.06934855398
-0.06962018067
-0.07000370915
-0.07109765111
-0.07219264411
-0.07329646528
-0.07440028623
)


101
(
-3.029145743e-12
-9.747728763e-07
-7.780111575e-06
-3.087664572e-05
-8.094234841e-05
-0.0001633546748
-0.0002796447043
-0.0004393187919
-0.0006361412662
-0.0008729945832
-0.00114817869
-0.001462443105
-0.001809405099
-0.002201997387
-0.002624563463
-0.003078807477
-0.003570206757
-0.004103841446
-0.004642317752
-0.005256229312
-0.005870577712
-0.006508138632
-0.007213832284
-0.007940984421
-0.008688729607
-0.009465760733
-0.01027160976
-0.01110148717
-0.01196581567
-0.01285107681
-0.01376005369
-0.01468150534
-0.01558056325
-0.01661493359
-0.01761168661
-0.01861757339
-0.01962884131
-0.02062824926
-0.02166145882
-0.02274946284
-0.02385241455
-0.02490150778
-0.02599013794
-0.02708658298
-0.02815617287
-0.02925433517
-0.03033923016
-0.03144789475
-0.03254711664
-0.0336622252
-0.03476332475
-0.03586588512
-0.03696709237
-0.03806206361
-0.0391461085
-0.04022088639
-0.04132395167
-0.04238143943
-0.04345575986
-0.04450798527
-0.04556106483
-0.0465991118
-0.04762271798
-0.04863830078
-0.04964054422
-0.05063184619
-0.05160575877
-0.05256277685
-0.05351101011
-0.05443654725
-0.05534620163
-0.05623824833
-0.05712057086
-0.05797683407
-0.05880621227
-0.05960621844
-0.06039455508
-0.06115869694
-0.06189099311
-0.06259362362
-0.06326620589
-0.06391806341
-0.06453598192
-0.06512476677
-0.06568037813
-0.06620229407
-0.06668592015
-0.06713509245
-0.06754802837
-0.06793112383
-0.06827251825
-0.06858432571
-0.06885965512
-0.06910360152
-0.06931955334
-0.06960287892
-0.07000357271
-0.07109751391
-0.07219250522
-0.07329633299
-0.07440015891
)


101
(
-3.029145743e-12
-9.304063381e-07
-7.537423504e-06
-3.00957235e-05
-7.909386683e-05
-0.0001598560374
-0.0002739030751
-0.0004302066142
-0.0006233305676
-0.0008555325044
-0.001125414064
-0.001433462852
-0.001774090437
-0.002157776663
-0.002572619185
-0.003018158335
-0.003498937447
-0.004019840967
-0.004552160444
-0.005144562184
-0.005751637894
-0.006377721451
-0.007058754965
-0.007770765386
-0.008504574416
-0.009264740256
-0.01005273401
-0.01086559292
-0.01170907271
-0.01257685712
-0.01346745763
-0.01437371313
-0.01527121149
-0.01624457756
-0.01723444032
-0.01822822363
-0.01922831838
-0.02022418325
-0.02123535983
-0.02228524437
-0.02336245949
-0.02442204553
-0.02548822781
-0.02656750278
-0.02763906983
-0.02871776833
-0.02979723004
-0.0308858873
-0.03197713721
-0.03307479903
-0.03417101035
-0.03526506685
-0.03635831487
-0.03744857348
-0.0385320422
-0.03960710293
-0.04068911627
-0.04175972028
-0.04282462092
-0.04388124302
-0.0449308387
-0.04597167014
-0.04700057218
-0.04801884122
-0.04902645047
-0.05002262275
-0.0510053622
-0.05197267983
-0.05292692809
-0.05386521069
-0.05478664532
-0.05569028627
-0.05657853709
-0.05744900313
-0.05829787791
-0.05912246988
-0.05992513586
-0.0607070449
-0.06146172688
-0.06218780206
-0.06288418402
-0.06355316926
-0.06419389787
-0.06480446268
-0.06538348112
-0.06593149703
-0.06644193708
-0.0669151782
-0.06735009549
-0.06775500004
-0.06811871419
-0.06845486302
-0.06875330523
-0.06901808162
-0.0692579263
-0.06956780353
-0.07000340303
-0.07109731894
-0.07219229331
-0.07329616475
-0.07440003365
)


101
(
-3.029145743e-12
-8.867714526e-07
-7.297710275e-06
-2.932264625e-05
-7.726245951e-05
-0.0001563880915
-0.0002682111466
-0.0004211917367
-0.0006106238909
-0.0008382309126
-0.001102851607
-0.001404761405
-0.001739056796
-0.00211414602
-0.00252109725
-0.00295806462
-0.003428549302
-0.003937111401
-0.00446202024
-0.005035997432
-0.00563298214
-0.006248284015
-0.006908073638
-0.007602887318
-0.008322070874
-0.009066098302
-0.009836627465
-0.0106322005
-0.01145594352
-0.01230530162
-0.01317775877
-0.01406797033
-0.01495883224
-0.01589272816
-0.01685941743
-0.01783893506
-0.01882642511
-0.01981523766
-0.02081175527
-0.02183314033
-0.02288210121
-0.02393472627
-0.02498827609
-0.02605074051
-0.02711499734
-0.02818167712
-0.02925125705
-0.03032587809
-0.03140526333
-0.03248929216
-0.03357558092
-0.03466120409
-0.03574603331
-0.03682942833
-0.03790909025
-0.0389826617
-0.04005502376
-0.04112417881
-0.04218683379
-0.04324306586
-0.04429201023
-0.04533333286
-0.04636512547
-0.04738654939
-0.04839812793
-0.04939899537
-0.05038829192
-0.0513641437
-0.05232631681
-0.0532742118
-0.05420696488
-0.05512277941
-0.05602168874
-0.05690400243
-0.05776775533
-0.05861080716
-0.05943130228
-0.06023125091
-0.06100673618
-0.0617555918
-0.06247523729
-0.06316564229
-0.06382810469
-0.06446105033
-0.06506302251
-0.0656351942
-0.06617253777
-0.06667366023
-0.06713355577
-0.06756202148
-0.06794946814
-0.06830990455
-0.06863552121
-0.06892468249
-0.06919006337
-0.06953153285
-0.07000336226
-0.07109731733
-0.07219232923
-0.07329619387
-0.07440005162
)


101
(
-3.029146025e-12
-8.438765785e-07
-7.061008693e-06
-2.855748808e-05
-7.544818471e-05
-0.0001529508853
-0.0002625689961
-0.0004122735391
-0.0005980235292
-0.0008210887866
-0.001080491996
-0.001376336739
-0.001704310969
-0.002071077066
-0.002470034094
-0.002898520592
-0.003359004804
-0.003855609552
-0.004372160947
-0.004929939637
-0.005515217394
-0.006119743881
-0.006760967593
-0.007437882615
-0.008141580365
-0.008869755034
-0.0096232567
-0.01040151176
-0.01120622346
-0.01203676439
-0.01289092934
-0.01376450063
-0.01464533287
-0.01555170558
-0.01649153431
-0.01745200534
-0.01842451622
-0.01940318303
-0.02038767629
-0.0213878091
-0.02241094199
-0.02344766729
-0.02448838402
-0.02553578611
-0.02658852663
-0.02764402497
-0.02870291775
-0.02976536357
-0.03083251939
-0.0319039057
-0.03297896258
-0.03405511189
-0.03513118958
-0.03620665912
-0.03728030375
-0.03835011468
-0.03941648438
-0.04048113638
-0.0415409344
-0.04259568949
-0.04364397997
-0.04468544599
-0.045718826
-0.0467427999
-0.04775760914
-0.04876250022
-0.04975715949
-0.05074013336
-0.0517102461
-0.05266691754
-0.05360978231
-0.05453704747
-0.05544782539
-0.05634258109
-0.05722024426
-0.05807918304
-0.0589165423
-0.0597341723
-0.06052923781
-0.06130018436
-0.0620433853
-0.06275674548
-0.06344179266
-0.06409756734
-0.06472304141
-0.06531936842
-0.06588216233
-0.06641164258
-0.06690037883
-0.06735479696
-0.06776777994
-0.06815425339
-0.06850735296
-0.06882515665
-0.0691180221
-0.0694938034
-0.07000332589
-0.07109743569
-0.07219257304
-0.07329633153
-0.07440010221
)


101
(
-3.02914575e-12
-8.017307188e-07
-6.827352642e-06
-2.780031745e-05
-7.365110983e-05
-0.0001495444431
-0.0002569765931
-0.0004034512719
-0.0005855314079
-0.0008041052311
-0.001058335515
-0.001348186603
-0.001669858064
-0.002028544565
-0.002419455418
-0.002839525009
-0.003290269607
-0.003775289463
-0.004282786993
-0.004825960156
-0.005398697117
-0.005992151714
-0.006616796182
-0.007275923048
-0.007963447992
-0.008675745444
-0.009412572558
-0.01017363684
-0.01095982192
-0.01177145565
-0.01260706634
-0.01346345263
-0.0143319258
-0.01521723429
-0.01613148582
-0.01706961799
-0.01802443379
-0.01898989099
-0.01996232713
-0.02094555085
-0.02194660637
-0.0229642799
-0.0239898204
-0.02502235305
-0.02606177534
-0.0271052441
-0.02815286913
-0.02920368708
-0.03025884157
-0.03131794083
-0.03238136092
-0.03344725018
-0.03451414466
-0.03558120817
-0.0366476368
-0.03771193233
-0.03877276433
-0.03983228404
-0.04088811704
-0.04194032741
-0.04298731935
-0.0440285372
-0.04506288558
-0.04608888282
-0.04710642819
-0.04811472035
-0.04911383406
-0.05010281249
-0.05108029956
-0.05204537487
-0.05299767011
-0.05393558798
-0.0548580102
-0.0557653187
-0.05665675675
-0.05753092961
-0.05838453362
-0.05921924047
-0.06003282215
-0.06082449949
-0.0615909218
-0.06232833157
-0.06303709314
-0.06371649821
-0.06436596484
-0.06498701198
-0.06557549888
-0.06613226536
-0.06665143644
-0.06713484057
-0.06757548886
-0.06798964503
-0.06837097929
-0.06872032891
-0.06904296169
-0.06945437971
-0.0700033386
-0.07109740262
-0.07219249767
-0.0732962496
-0.07440001893
)


101
(
-3.029145743e-12
-7.603410085e-07
-6.596780865e-06
-2.705122173e-05
-7.187135123e-05
-0.00014616888
-0.0002514340557
-0.0003947244336
-0.0005731496463
-0.0007872800952
-0.001036382894
-0.001320309853
-0.00163570273
-0.001986527067
-0.002369380237
-0.002781080061
-0.003222314023
-0.00369610394
-0.004194059303
-0.004723757251
-0.005283608954
-0.005865620954
-0.00647509165
-0.00711697857
-0.007787941559
-0.008484188583
-0.009204554306
-0.00994862742
-0.01071671479
-0.01150954152
-0.01232636674
-0.01316500977
-0.0140193831
-0.01488692912
-0.01577839442
-0.01669348278
-0.01762811787
-0.01857740204
-0.01953630066
-0.02050447782
-0.02148663657
-0.02248515329
-0.02349387896
-0.02451085149
-0.02553585696
-0.02656623873
-0.0276018559
-0.02864099843
-0.02968430935
-0.03073128313
-0.03178280615
-0.03283780638
-0.03389500778
-0.03495332578
-0.03601196582
-0.03706976128
-0.03812472915
-0.03917870546
-0.04022977313
-0.04127839441
-0.04232313811
-0.0433634141
-0.04439816696
-0.04542577769
-0.04644578953
-0.04745711239
-0.04845998993
-0.04945397908
-0.05043801072
-0.05141102466
-0.05237234909
-0.05332041347
-0.05425401902
-0.05517354036
-0.05607842888
-0.05696753956
-0.05783728867
-0.05868890725
-0.05952039721
-0.06033167765
-0.06112011178
-0.06188177311
-0.06261536677
-0.0633196009
-0.06399399703
-0.06464039617
-0.06525488964
-0.06583918547
-0.06638807973
-0.06690310779
-0.06737350416
-0.06781721861
-0.06822853395
-0.06861052162
-0.06896534069
-0.0694127522
-0.0700036116
-0.07109744235
-0.0721923302
-0.07329599935
-0.07439962359
)


101
(
-3.029145743e-12
-7.197160006e-07
-6.369331908e-06
-2.631028203e-05
-7.010900804e-05
-0.0001428242697
-0.0002459414123
-0.0003860923934
-0.0005608800232
-0.0007706131379
-0.001014634447
-0.001292704885
-0.001601848745
-0.001945005817
-0.002319822537
-0.002723191298
-0.003155113017
-0.003618007817
-0.004106098183
-0.004623128955
-0.005170041004
-0.00574026889
-0.0063355305
-0.006960910097
-0.007615222453
-0.008295228129
-0.008999218061
-0.009726493686
-0.01047687434
-0.01125112941
-0.01204906955
-0.01286946111
-0.01370830029
-0.01455947769
-0.01543082083
-0.01632373549
-0.01723699867
-0.01816768533
-0.01911092238
-0.02006408943
-0.02102930176
-0.02200966219
-0.02300107323
-0.02400183449
-0.02501157259
-0.02602784461
-0.02705056861
-0.02807764199
-0.02910914457
-0.03014418755
-0.03118367061
-0.03222717584
-0.03327400522
-0.03432310483
-0.03537353599
-0.03642425376
-0.03747304686
-0.03852124891
-0.03956708273
-0.04061129025
-0.04165278123
-0.04269118927
-0.04372555456
-0.04475426272
-0.0457765125
-0.04679076761
-0.04779705153
-0.04879526665
-0.0497848896
-0.05076513661
-0.0517351122
-0.05269300384
-0.05363744743
-0.05456876203
-0.05548661048
-0.05639017782
-0.0572759089
-0.05814448278
-0.0589938011
-0.05982419721
-0.0606337229
-0.06141886196
-0.06217763635
-0.06290761087
-0.06360804586
-0.06428089589
-0.06492189244
-0.0655342189
-0.06611246152
-0.06666021346
-0.06716223283
-0.06763733248
-0.06808052458
-0.06849592235
-0.06888551689
-0.06937067339
-0.07000370311
-0.07109745655
-0.07219224687
-0.07329562912
-0.07439897139
)


101
(
-3.029146307e-12
-6.798652887e-07
-6.14504525e-06
-2.557759091e-05
-6.836420413e-05
-0.0001395107294
-0.0002404987418
-0.0003775545996
-0.0005487243184
-0.0007541044883
-0.0009930908197
-0.001265370614
-0.001568299726
-0.00190396445
-0.002270790953
-0.002665865837
-0.003088646138
-0.003540958238
-0.004018991092
-0.004523936038
-0.005058023126
-0.005616206508
-0.006197897827
-0.006807529038
-0.007445355102
-0.00810900358
-0.008796626944
-0.009507254919
-0.01024027063
-0.01099627095
-0.01177537334
-0.01257713722
-0.013399274
-0.0142343239
-0.01508743998
-0.01595975948
-0.01685169059
-0.01776227322
-0.01868778797
-0.01962489622
-0.02057380894
-0.02153700018
-0.02251129207
-0.02349557725
-0.02448953153
-0.02549088128
-0.02649978707
-0.02751411298
-0.02853356162
-0.02955681322
-0.03058442202
-0.03161613687
-0.03265182797
-0.03369095347
-0.03473260823
-0.03577569393
-0.03681795982
-0.03786032934
-0.0389007845
-0.03994012325
-0.04097758734
-0.04201314025
-0.04304609456
-0.04407507417
-0.04509915365
-0.04611633171
-0.04712604586
-0.04812813919
-0.04912252107
-0.05010905526
-0.05108706158
-0.05205445851
-0.05300955208
-0.05395241043
-0.05488278069
-0.05580021439
-0.05670155143
-0.05758712482
-0.05845436618
-0.05930367498
-0.06013387648
-0.06094187252
-0.0617255145
-0.06248147588
-0.06320864343
-0.06390907809
-0.06457775319
-0.06521857975
-0.0658268328
-0.06640702024
-0.06694272303
-0.06745060259
-0.06792744856
-0.06837717605
-0.06880362697
-0.06932855406
-0.07000347487
-0.07109717202
-0.07219185877
-0.07329476413
-0.07439756574
)


101
(
-3.029146307e-12
-6.407961703e-07
-5.923960055e-06
-2.485323534e-05
-6.663704215e-05
-0.0001362283136
-0.0002351059967
-0.0003691102788
-0.0005366838857
-0.0007377541189
-0.0009717521156
-0.001238305402
-0.001535057939
-0.00186338816
-0.002222289037
-0.002609109099
-0.003022895125
-0.003464911814
-0.00393279938
-0.004426083927
-0.00494754859
-0.005493520817
-0.006062056019
-0.006656643563
-0.007278329471
-0.007925624904
-0.008596863029
-0.009290935901
-0.01000687307
-0.01074497459
-0.01150542596
-0.01228835429
-0.01309285499
-0.01391140608
-0.01474729618
-0.01560059242
-0.01647207596
-0.01736210018
-0.01826837681
-0.01918796874
-0.02012021447
-0.02106669652
-0.02202422262
-0.02299207929
-0.02397004084
-0.02495594794
-0.02595024744
-0.02695107505
-0.02795796928
-0.02896927378
-0.02998516934
-0.03100520175
-0.03202940533
-0.03305774863
-0.03408981239
-0.03512457987
-0.03615980474
-0.03719612481
-0.03823116252
-0.0392655183
-0.04029854337
-0.04133048178
-0.04236099867
-0.04338915053
-0.04441424065
-0.04543408981
-0.04644740295
-0.0474534753
-0.04845223708
-0.04944416946
-0.05042927454
-0.05140562538
-0.05237115478
-0.0533254784
-0.05426817206
-0.05519905487
-0.05611542592
-0.05701777944
-0.05790315025
-0.05877138386
-0.05962182621
-0.06045235132
-0.06126062047
-0.06204268264
-0.06279670806
-0.0635254873
-0.06422326728
-0.06489299756
-0.06553207988
-0.06614476623
-0.06671579732
-0.06725766778
-0.0677694623
-0.06825495463
-0.06871965155
-0.06928486688
-0.07000321999
-0.07109657004
-0.07219085982
-0.07329284388
-0.07439501038
)


101
(
-3.029118026e-12
-6.025174337e-07
-5.706117487e-06
-2.413730939e-05
-6.492764525e-05
-0.0001329771098
-0.0002297631735
-0.0003607587232
-0.0005247600173
-0.000721562309
-0.0009506185976
-0.001211508092
-0.00150212526
-0.001823265341
-0.002174318979
-0.002552926843
-0.002957846159
-0.003389830301
-0.003847559189
-0.004329514517
-0.004838598345
-0.005372274484
-0.005927922653
-0.006508073701
-0.007114070089
-0.007745152117
-0.008400011049
-0.009077574843
-0.009776650402
-0.01049720926
-0.01123931033
-0.01200339485
-0.01278960909
-0.01359100456
-0.01440993536
-0.01524534715
-0.01609758242
-0.01696743003
-0.01785372683
-0.01875451696
-0.01966915244
-0.02059870949
-0.02153967607
-0.02249124348
-0.02345322404
-0.02442348741
-0.02540261607
-0.0263891621
-0.02738289101
-0.02838189524
-0.02938602839
-0.03039450209
-0.03140726062
-0.03242443986
-0.03344610523
-0.03447170039
-0.03549911162
-0.0365289313
-0.03755840199
-0.03858776211
-0.03961624009
-0.04064416559
-0.04167148618
-0.0426977004
-0.04372260971
-0.04474431088
-0.04576113729
-0.04677149249
-0.0477748075
-0.04877173527
-0.04976301017
-0.05074740846
-0.05172289136
-0.05268860385
-0.05364366419
-0.0545878479
-0.05551872664
-0.05643726502
-0.05734076788
-0.05822827183
-0.05909869481
-0.05995123968
-0.06078406942
-0.06159253537
-0.0623736224
-0.06313069116
-0.0638587634
-0.06455842109
-0.06522839182
-0.06587438857
-0.06648133362
-0.06705872789
-0.06760666413
-0.06812945098
-0.06863354484
-0.06924001128
-0.07000262216
-0.07109526879
-0.0721887526
-0.07328912551
-0.07438967072
)


101
(
-3.029022545e-12
-5.650392708e-07
-5.491565283e-06
-2.342993332e-05
-6.323620557e-05
-0.0001297573449
-0.0002244704961
-0.0003524995814
-0.0005129543692
-0.0007055301186
-0.0009296915185
-0.001184978962
-0.001469504607
-0.001783586986
-0.002126882549
-0.00249732689
-0.002893492164
-0.003315680601
-0.003763296899
-0.004234188716
-0.004731150052
-0.005252527109
-0.005795461659
-0.006361672063
-0.00695246461
-0.007567590232
-0.008206143552
-0.008867231586
-0.009549594287
-0.01025292931
-0.01097705299
-0.01172246197
-0.01249002235
-0.01327360097
-0.01407533509
-0.01489342532
-0.01572748111
-0.01657804294
-0.01744442157
-0.01832559458
-0.01922156644
-0.02013349445
-0.02105773112
-0.02199305159
-0.02293911599
-0.02389374348
-0.02485748019
-0.02582915758
-0.02680894819
-0.02779508839
-0.02878720927
-0.02978415615
-0.03078557864
-0.03179156128
-0.03280241098
-0.03381803179
-0.03483673638
-0.03585930556
-0.03688281477
-0.03790708811
-0.03893101706
-0.03995482669
-0.04097856026
-0.04200201345
-0.04302553764
-0.04404780969
-0.04506741331
-0.04608211258
-0.04709042359
-0.04809249537
-0.04908943844
-0.05008091126
-0.05106553862
-0.05204230914
-0.05300980021
-0.0539673331
-0.05491257824
-0.05584675294
-0.05676782651
-0.05767474957
-0.05856543192
-0.05943941565
-0.06029639195
-0.06113162519
-0.06194059047
-0.06272557789
-0.06348426352
-0.06421541937
-0.06491658349
-0.06559629373
-0.06623951767
-0.06685392652
-0.06743914562
-0.06800062695
-0.06854526106
-0.06919432689
-0.07000130244
-0.07109277592
-0.07218495258
-0.07328286373
-0.07438087317
)


101
(
-3.028954229e-12
-5.283696114e-07
-5.28034687e-06
-2.273120369e-05
-6.156285097e-05
-0.0001265691066
-0.0002192279254
-0.0003443320747
-0.0005012678848
-0.0006896578677
-0.0009089711049
-0.001158716866
-0.001437197276
-0.001744343147
-0.002079976609
-0.002442313875
-0.002829825698
-0.003242429655
-0.00368002144
-0.004140077472
-0.004625174499
-0.005134307215
-0.005664652369
-0.006217317542
-0.006793381232
-0.00739288533
-0.008015292379
-0.008659962214
-0.009325711728
-0.01001207626
-0.01071860498
-0.01144565906
-0.01219448117
-0.01295972903
-0.01374376823
-0.01454457326
-0.01536113954
-0.01619340785
-0.0170404846
-0.017901885
-0.01877842674
-0.01967180934
-0.0205786875
-0.02149759004
-0.02242773799
-0.02336677538
-0.0243151143
-0.02527164047
-0.02623688341
-0.02720947441
-0.02818903925
-0.02917424599
-0.03016440547
-0.03115929067
-0.03215921562
-0.0331643987
-0.03417362157
-0.03518799697
-0.03620485432
-0.03722370575
-0.03824299676
-0.03926273639
-0.04028283432
-0.04130314397
-0.04232435615
-0.0433458798
-0.04436695084
-0.04538537368
-0.04639884686
-0.04740652456
-0.04840923478
-0.04940717002
-0.05039991725
-0.0513869681
-0.05236669073
-0.05333779006
-0.05429757377
-0.05524720706
-0.05618521814
-0.05711122213
-0.05802256077
-0.05891785115
-0.05979813897
-0.06065998498
-0.06149774271
-0.06231108488
-0.06309984073
-0.06386356635
-0.06459742461
-0.06531047199
-0.06599057538
-0.0666431683
-0.06726685666
-0.06786829144
-0.06845445424
-0.0691470869
-0.06999881339
-0.07108837299
-0.07217850398
-0.07327315472
-0.07436783506
)


101
(
-3.028955365e-12
-4.92518014e-07
-5.072509393e-06
-2.204123751e-05
-5.99077653e-05
-0.0001234125951
-0.000214035604
-0.0003362556967
-0.0004897017526
-0.0006739464627
-0.0008884583902
-0.001132721929
-0.001405205228
-0.001705526856
-0.002033599113
-0.002387893484
-0.002766843419
-0.003170053304
-0.003597731083
-0.004047159544
-0.004520648266
-0.005017638617
-0.005535498203
-0.00607492714
-0.006636705316
-0.007220976123
-0.007827478691
-0.00845583288
-0.009105040433
-0.009774615046
-0.01046389214
-0.0111729858
-0.01190322156
-0.01264987395
-0.01341570653
-0.01419889814
-0.01499817861
-0.01581290291
-0.01664160245
-0.01748368042
-0.01834049245
-0.01921452628
-0.02010315999
-0.02100514308
-0.02191923269
-0.0228426667
-0.02377565725
-0.02471698115
-0.02566730775
-0.02662574692
-0.0275921674
-0.02856515232
-0.02954383804
-0.03052770774
-0.03151672942
-0.03251128095
-0.03351049721
-0.03451589599
-0.03552522912
-0.03653801719
-0.03755238846
-0.03856799574
-0.03958454117
-0.04060170578
-0.04162020533
-0.04263998403
-0.04366109029
-0.04468197399
-0.04570010827
-0.04671368506
-0.04772258517
-0.04872693824
-0.04972699958
-0.05072322958
-0.05171447923
-0.05269916019
-0.05367382495
-0.05463911397
-0.05559374359
-0.05653824138
-0.05747032522
-0.05838741265
-0.05929043208
-0.06017796854
-0.06104486362
-0.06188780654
-0.06270620667
-0.06350250128
-0.06427066085
-0.06501727254
-0.06573441462
-0.06642623878
-0.06708950005
-0.0677321426
-0.06836075658
-0.06909745793
-0.06999470031
-0.07108158838
-0.07216891402
-0.07325941433
-0.074348782
)


101
(
-3.028956486e-12
-4.574943584e-07
-4.868097128e-06
-2.136013969e-05
-5.827109703e-05
-0.0001202879345
-0.0002088935298
-0.000328269704
-0.0004782566261
-0.000658396346
-0.0008681538592
-0.00110699356
-0.001373529277
-0.001667131115
-0.0019877466
-0.002334068304
-0.002704542908
-0.003098526711
-0.003516417931
-0.003955406766
-0.004417539183
-0.00490253244
-0.005408007963
-0.005934440973
-0.006482328728
-0.007051778446
-0.007642687121
-0.008254890003
-0.008887628934
-0.009540530461
-0.01021283261
-0.01090437858
-0.0116163406
-0.01234438534
-0.01309165696
-0.01385676286
-0.01463855964
-0.01543608094
-0.01624724761
-0.0170708077
-0.01790819106
-0.01876245205
-0.01963197342
-0.02051618287
-0.02141381192
-0.02232155655
-0.02323918654
-0.02416536175
-0.02510065144
-0.02604446901
-0.02699712796
-0.02795739722
-0.02892421609
-0.02989690085
-0.03087511149
-0.0318589425
-0.03284782255
-0.03384365884
-0.03484463544
-0.03585059207
-0.03685955637
-0.03787074918
-0.03888367403
-0.03989779353
-0.04091365461
-0.04193126686
-0.04295131392
-0.04397316971
-0.04499478732
-0.0460139547
-0.04702941111
-0.04804056407
-0.0490477269
-0.05005213951
-0.05105369982
-0.0520513175
-0.05304109721
-0.05402254501
-0.05499382162
-0.05595623977
-0.05690869309
-0.05784814787
-0.05877412635
-0.05968635056
-0.06058178762
-0.06145555949
-0.06230407727
-0.06313245603
-0.06393576778
-0.06471713896
-0.06547142304
-0.06620324723
-0.06690669623
-0.06759158306
-0.06826368764
-0.0690448283
-0.0699880889
-0.07107161892
-0.07215543444
-0.07324095317
-0.07432743998
)


101
(
-3.028954229e-12
-4.233071454e-07
-4.667152272e-06
-2.068800371e-05
-5.665296672e-05
-0.0001171951863
-0.0002038015714
-0.0003203731386
-0.0004669326905
-0.0006430075417
-0.0008480574399
-0.001081530526
-0.001342169306
-0.001629148788
-0.001942413119
-0.002280838271
-0.002642921202
-0.003027827669
-0.003436063578
-0.00386479004
-0.004315810517
-0.004788982009
-0.005282189786
-0.005795816419
-0.006330149107
-0.006885186337
-0.007460865139
-0.008057161114
-0.008673542504
-0.009309845105
-0.009965354794
-0.01063971952
-0.01133383558
-0.0120434816
-0.01277205796
-0.01351865751
-0.0142825416
-0.01506279076
-0.015856907
-0.0166628504
-0.01748153657
-0.01831612891
-0.01916595321
-0.02003143008
-0.02091183134
-0.02180358518
-0.02270579502
-0.02361683236
-0.02453712297
-0.02546611127
-0.02640447477
-0.02735141885
-0.02830593614
-0.02926713287
-0.03023445492
-0.0312076398
-0.0321859905
-0.03317174692
-0.03416365129
-0.03516196558
-0.0361648396
-0.03717118992
-0.03818024407
-0.0391912815
-0.04020464793
-0.04122013505
-0.04223862152
-0.04326028021
-0.04428395147
-0.04530769074
-0.04632958926
-0.04734799265
-0.04836262883
-0.04937484144
-0.05038546456
-0.05139470413
-0.05239912356
-0.05339717205
-0.05438566503
-0.05536573309
-0.05633770342
-0.05729950537
-0.05824920543
-0.05918580734
-0.06010873599
-0.06101381509
-0.06189366457
-0.06275381232
-0.063592512
-0.06441003945
-0.06520143054
-0.06597419021
-0.06671826319
-0.06744598803
-0.06816264556
-0.06898912922
-0.06997816516
-0.07105752943
-0.07213698779
-0.07321667537
-0.0742975498
)


101
(
-3.028954229e-12
-3.899661746e-07
-4.469789314e-06
-2.002498655e-05
-5.50536722e-05
-0.0001141347777
-0.0001987602091
-0.0003125660235
-0.0004557313926
-0.0006277819356
-0.00082817165
-0.001056335219
-0.001311128976
-0.001591578335
-0.001897597613
-0.002228210803
-0.00258198368
-0.002957948728
-0.003356660696
-0.003775292977
-0.004215438189
-0.004676995605
-0.00515807017
-0.00565905281
-0.006180100986
-0.006721102534
-0.007281946741
-0.007862656523
-0.008462862798
-0.00908264178
-0.009721460697
-0.01037890624
-0.0110556048
-0.01174725011
-0.01245724422
-0.01318511133
-0.01393063093
-0.01469321923
-0.01547032563
-0.01625932614
-0.01706021616
-0.01787581862
-0.01870586065
-0.01955181553
-0.02041396213
-0.02128906913
-0.02217569181
-0.02307157
-0.02397688045
-0.02489099412
-0.02581475626
-0.02674781766
-0.02768949099
-0.02863881661
-0.02959502791
-0.03055755709
-0.0315254093
-0.03250081508
-0.03348300005
-0.03447279022
-0.03546872334
-0.03646966425
-0.03747445466
-0.03848220821
-0.03949305699
-0.04050655742
-0.04152345247
-0.04254428287
-0.0435688017
-0.04459577142
-0.04562332265
-0.04664906905
-0.04767176626
-0.04869217103
-0.04971127431
-0.05073059445
-0.05174823417
-0.05276268509
-0.05376914276
-0.05476726887
-0.05575805003
-0.05674141211
-0.05771529312
-0.05867673472
-0.05962627322
-0.0605622631
-0.06147481584
-0.06236695895
-0.0632407658
-0.06409559724
-0.06492419925
-0.06573854232
-0.0665242314
-0.06729501867
-0.06805715417
-0.06892958918
-0.06996426773
-0.07103870504
-0.07211296718
-0.07318577145
-0.07425715129
)


101
(
-3.028956486e-12
-3.574807062e-07
-4.275999357e-06
-1.937121031e-05
-5.347341624e-05
-0.000111106938
-0.000193769552
-0.0003048477958
-0.0004446531402
-0.0006127200458
-0.0008084974309
-0.001031408149
-0.001280409712
-0.001554415952
-0.001853294605
-0.002176186312
-0.002521731783
-0.002888878177
-0.003278197112
-0.003686897198
-0.004116391554
-0.004566559176
-0.005035660863
-0.00552415181
-0.006032133925
-0.006559421035
-0.007105827482
-0.00767133304
-0.008255635205
-0.008859009404
-0.00948119316
-0.01012188028
-0.01078151442
-0.01145562938
-0.01214738268
-0.01285652947
-0.0135833409
-0.01432774839
-0.0150875282
-0.01585981855
-0.01664373887
-0.0174412938
-0.01825203885
-0.0190781401
-0.01992108274
-0.02077855512
-0.02164908472
-0.02252971945
-0.02342005361
-0.0243193112
-0.02522831402
-0.02614705684
-0.02707531799
-0.0280122978
-0.0289571117
-0.02990888339
-0.03086628271
-0.03183126349
-0.03280329941
-0.03378379447
-0.03477186588
-0.0357665912
-0.03676656907
-0.0377706347
-0.03877871299
-0.03979023405
-0.04080565309
-0.04182547646
-0.04285005654
-0.04387902453
-0.04491103089
-0.04594354823
-0.04697460178
-0.04800398444
-0.04903194932
-0.05006042284
-0.05108946341
-0.05211900649
-0.05314353022
-0.05416065616
-0.05517042527
-0.05617426329
-0.05717196653
-0.05815901801
-0.0591348742
-0.06010068628
-0.06104678563
-0.06197187496
-0.06288027052
-0.06377304809
-0.06463953089
-0.06549536221
-0.0663241329
-0.06713828643
-0.06794652163
-0.06886514756
-0.06994567074
-0.07101436956
-0.07208258688
-0.07314731567
-0.07421269841
)


101
(
-3.028954236e-12
-3.258595668e-07
-4.085765397e-06
-1.872675651e-05
-5.191229632e-05
-0.0001081116731
-0.0001888293893
-0.0002972172315
-0.0004336972658
-0.0005978209776
-0.0007890338451
-0.001006747683
-0.001250010125
-0.001517654992
-0.001809494879
-0.00212475792
-0.002462162192
-0.002820602647
-0.003200651145
-0.003599575218
-0.004018630839
-0.004457637918
-0.004914957083
-0.005391110301
-0.005886213455
-0.006400051673
-0.006932381151
-0.007483089996
-0.008051841199
-0.008639013022
-0.009244624027
-0.009868620192
-0.0105114268
-0.01116843294
-0.01184243092
-0.01253311732
-0.01324111718
-0.01396690904
-0.01470882126
-0.01546417324
-0.01623156371
-0.01701199093
-0.01780438224
-0.01861092011
-0.0194340385
-0.0202727831
-0.02112631316
-0.02199136256
-0.0228666965
-0.02375113318
-0.02464534473
-0.02554946905
-0.02646374764
-0.02738781681
-0.02832082218
-0.02926170488
-0.03020869367
-0.03116331455
-0.03212499688
-0.03309554849
-0.03407486658
-0.03506242541
-0.0360568925
-0.03705674022
-0.03806162284
-0.03907093458
-0.04008485243
-0.04110368642
-0.04212795783
-0.04315799135
-0.0441931695
-0.04523137285
-0.04627040604
-0.04730928571
-0.04834708466
-0.04938496648
-0.05042410653
-0.05146669348
-0.05250828396