/*--------------------------------*- C++ -*----------------------------------*\
| =========                 |                                                 |
| \\      /  F ield         | OpenFOAM: The Open Source CFD Toolbox           |
|  \\    /   O peration     | Version:  2.3.1                                 |
|   \\  /    A nd           | Web:      www.OpenFOAM.org                      |
|    \\/     M anipulation  |                                                 |
\*---------------------------------------------------------------------------*/
FoamFile
{
    version     2.0;
    format      ascii;
    class       dictionary;
    location    "constant";
    object      GRPSI39;
}
// * * * * * * * * * * * * * * * * * * * * * * * * * * * * * * * * * * * * * //

GRPSI39_table
101
(

101
(
-2.342215224e-08
-9.896146569e-07
-2.266122396e-06
-3.251721604e-06
-3.859461065e-06
-4.104011345e-06
-4.019121002e-06
-3.539673538e-06
-2.80339943e-06
-1.84128973e-06
-7.853186656e-07
2.736003297e-07
1.19050051e-06
1.923791606e-06
2.37706737e-06
2.587105302e-06
2.619513645e-06
2.565777039e-06
2.544875217e-06
2.614414975e-06
2.803008931e-06
3.075985246e-06
3.406322445e-06
3.685642075e-06
3.85533524e-06
3.880904217e-06
3.752460566e-06
3.492512586e-06
3.120126333e-06
2.682541071e-06
2.211667443e-06
1.752463013e-06
1.355633751e-06
9.137495212e-07
6.247591222e-07
4.52937671e-07
8.662069529e-07
1.150279366e-06
-5.440431272e-07
-1.059069788e-06
-1.187382881e-06
-1.177548486e-06
-1.109866891e-06
-1.007949426e-06
-8.867257981e-07
-7.221289069e-07
-5.256971709e-07
-2.751039082e-07
7.543722254e-09
3.404165659e-07
6.986918147e-07
1.096074783e-06
1.528261149e-06
1.994121454e-06
2.487309773e-06
3.003340649e-06
3.584937486e-06
4.134613239e-06
4.748959403e-06
5.359411295e-06
6.006749065e-06
6.674183138e-06
7.347511479e-06
8.046851788e-06
8.762369425e-06
9.494402549e-06
1.02263939e-05
1.096395528e-05
1.173653454e-05
1.250552702e-05
1.3294104e-05
1.411516117e-05
1.500492304e-05
1.595677458e-05
1.739720657e-05
1.80336605e-05
1.811029641e-05
1.855368864e-05
1.918881598e-05
1.988131943e-05
2.059164218e-05
2.136859165e-05
2.223090744e-05
2.348366712e-05
2.352243606e-05
2.361354772e-05
2.40769043e-05
2.463870943e-05
2.531269493e-05
2.654906085e-05
2.62969024e-05
2.656708779e-05
2.743606336e-05
2.773238626e-05
2.845301249e-05
2.882548197e-05
3.00858252e-05
3.084425574e-05
3.160780391e-05
3.24137198e-05
3.322302609e-05
)


101
(
-2.342215219e-08
-9.895473502e-07
-2.266923594e-06
-3.257475328e-06
-3.873118184e-06
-4.128178263e-06
-4.056299671e-06
-3.59494011e-06
-2.875575686e-06
-1.93156592e-06
-8.897934978e-07
1.58632547e-07
1.07300016e-06
1.806509137e-06
2.266971615e-06
2.481966912e-06
2.513590367e-06
2.450255804e-06
2.407724303e-06
2.448023974e-06
2.604242201e-06
2.849046054e-06
3.155424554e-06
3.426846447e-06
3.600475925e-06
3.638131333e-06
3.526204367e-06
3.281670159e-06
2.922745461e-06
2.491602643e-06
2.020773403e-06
1.552080287e-06
1.134210528e-06
6.888207661e-07
3.665311896e-07
1.620541934e-07
4.291191594e-07
6.868683425e-07
-5.955399509e-07
-1.262466283e-06
-1.528558356e-06
-1.592701403e-06
-1.562226429e-06
-1.482578604e-06
-1.37738091e-06
-1.235594331e-06
-1.063138882e-06
-8.426883471e-07
-5.871756962e-07
-2.854111872e-07
4.615225051e-08
4.14255153e-07
8.15931924e-07
1.248349073e-06
1.708822436e-06
2.194782061e-06
2.736052751e-06
3.268151794e-06
3.846121941e-06
4.432257264e-06
5.047448337e-06
5.684700916e-06
6.332820942e-06
7.000816556e-06
7.683445024e-06
8.384051685e-06
9.090691478e-06
9.803190547e-06
1.053974345e-05
1.128190807e-05
1.203765207e-05
1.281812521e-05
1.36471776e-05
1.453594255e-05
1.578816853e-05
1.658885447e-05
1.690549564e-05
1.731934531e-05
1.786604556e-05
1.850894527e-05
1.919562193e-05
1.99256191e-05
2.072056155e-05
2.182474374e-05
2.221566776e-05
2.239664575e-05
2.274918791e-05
2.326213284e-05
2.386026197e-05
2.483030457e-05
2.503561542e-05
2.523056928e-05
2.585917164e-05
2.630420257e-05
2.678767637e-05
2.741557961e-05
2.878378941e-05
2.930435692e-05
2.982301707e-05
3.032646555e-05
3.082971587e-05
)


101
(
-2.342215219e-08
-9.894001196e-07
-2.268488479e-06
-3.268880314e-06
-3.900245685e-06
-4.176190481e-06
-4.130131707e-06
-3.704553559e-06
-3.018903333e-06
-2.110734986e-06
-1.097324772e-06
-6.970359983e-08
8.395105414e-07
1.574195464e-06
2.049470295e-06
2.276340494e-06
2.309153643e-06
2.230094435e-06
2.148542463e-06
2.133835767e-06
2.22769109e-06
2.41674927e-06
2.675674688e-06
2.928592107e-06
3.108078035e-06
3.16882761e-06
3.089943622e-06
2.87816972e-06
2.548725059e-06
2.134947809e-06
1.669270017e-06
1.187862712e-06
7.349731964e-07
2.779626415e-07
-1.024150358e-07
-3.577004903e-07
-3.283996383e-07
-1.507195771e-07
-8.029331408e-07
-1.580335986e-06
-2.071501987e-06
-2.300129668e-06
-2.364523433e-06
-2.338320945e-06
-2.267247924e-06
-2.165511166e-06
-2.035788227e-06
-1.869564967e-06
-1.665343282e-06
-1.420760462e-06
-1.140256559e-06
-8.259837373e-07
-4.791263771e-07
-1.032987986e-07
3.005369321e-07
7.309182451e-07
1.201698155e-06
1.692956973e-06
2.2093862e-06
2.747503659e-06
3.306483029e-06
3.888069831e-06
4.486713723e-06
5.100813749e-06
5.729653394e-06
6.377003775e-06
7.03673431e-06
7.705581369e-06
8.384909403e-06
9.076990099e-06
9.778083187e-06
1.049111953e-05
1.122447181e-05
1.199826094e-05
1.29503542e-05
1.389283988e-05
1.457018058e-05
1.5053775e-05
1.550845887e-05
1.604697436e-05
1.667316697e-05
1.733640792e-05
1.802422082e-05
1.886678974e-05
1.964040846e-05
2.009523136e-05
2.037660791e-05
2.077894632e-05
2.129285219e-05
2.193118328e-05
2.256219675e-05
2.288230705e-05
2.317537002e-05
2.369809326e-05
2.404197656e-05
2.488773103e-05
2.642397266e-05
2.660120937e-05
2.677634846e-05
2.693465197e-05
2.708438787e-05
)


101
(
-2.342215218e-08
-9.892271805e-07
-2.269977992e-06
-3.280080345e-06
-3.927000886e-06
-4.22356426e-06
-4.202925034e-06
-3.812357644e-06
-3.160213814e-06
-2.287223845e-06
-1.302144212e-06
-2.950592424e-07
6.087038059e-07
1.345798813e-06
1.836618301e-06
2.078833595e-06
2.11805532e-06
2.029875536e-06
1.917241003e-06
1.854309063e-06
1.890515509e-06
2.025043948e-06
2.236853337e-06
2.466059995e-06
2.646379351e-06
2.727112408e-06
2.680404449e-06
2.503803962e-06
2.207743516e-06
1.818593562e-06
1.367100397e-06
8.845727344e-07
4.107293938e-07
-6.208100922e-08
-4.884354306e-07
-8.12629249e-07
-9.096579901e-07
-8.365481976e-07
-1.170494535e-06
-1.814487077e-06
-2.407825941e-06
-2.795393595e-06
-2.984512822e-06
-3.035576365e-06
-3.008821362e-06
-2.940837287e-06
-2.844756198e-06
-2.719942444e-06
-2.559962123e-06
-2.363098772e-06
-2.128956316e-06
-1.860756405e-06
-1.559678445e-06
-1.228314547e-06
-8.687413333e-07
-4.825479932e-07
-6.594676625e-08
3.794592859e-07
8.489933644e-07
1.342838307e-06
1.857712553e-06
2.393262525e-06
2.947352851e-06
3.518595633e-06
4.106660986e-06
4.713057731e-06
5.3330178e-06
5.963958325e-06
6.604759564e-06
7.256030693e-06
7.919737309e-06
8.590176838e-06
9.270310747e-06
9.964027603e-06
1.073964132e-05
1.159561261e-05
1.240411048e-05
1.305767915e-05
1.356474775e-05
1.404105064e-05
1.459209283e-05
1.521352773e-05
1.584984463e-05
1.653234027e-05
1.727914843e-05
1.795808333e-05
1.840348338e-05
1.874366268e-05
1.920121646e-05
1.974626373e-05
2.031211574e-05
2.085546505e-05
2.116561893e-05
2.157120671e-05
2.202450783e-05
2.27897612e-05
2.423484419e-05
2.431561316e-05
2.440947235e-05
2.46057349e-05
2.480795257e-05
)


101
(
-2.342215437e-08
-9.890279607e-07
-2.271391599e-06
-3.291075671e-06
-3.953386363e-06
-4.270309276e-06
-4.274703128e-06
-3.918417661e-06
-3.299585038e-06
-2.461228981e-06
-1.504541511e-06
-5.179734246e-07
3.798048256e-07
1.119968302e-06
1.626682562e-06
1.886838438e-06
1.93689568e-06
1.845441996e-06
1.708813941e-06
1.604013426e-06
1.587065039e-06
1.668353619e-06
1.832718662e-06
2.03347475e-06
2.208625338e-06
2.304596367e-06
2.287433036e-06
2.146214073e-06
1.885630704e-06
1.525766776e-06
1.094007464e-06
6.203103765e-07
1.381830814e-07
-3.464456602e-07
-8.046997538e-07
-1.198786976e-06
-1.385727686e-06
-1.409841103e-06
-1.601815503e-06
-2.075296499e-06
-2.653721607e-06
-3.141152147e-06
-3.455200234e-06
-3.605806119e-06
-3.641406963e-06
-3.610901285e-06
-3.543947767e-06
-3.451076108e-06
-3.328746756e-06
-3.172549419e-06
-2.979953477e-06
-2.752484552e-06
-2.491935892e-06
-2.200826949e-06
-1.880691475e-06
-1.531926173e-06
-1.157317164e-06
-7.538126723e-07
-3.257165135e-07
1.278910707e-07
6.047285288e-07
1.101591799e-06
1.618123009e-06
2.151916633e-06
2.70247715e-06
3.271093015e-06
3.85550055e-06
4.451710552e-06
5.060399436e-06
5.67767649e-06
6.30851452e-06
6.948571696e-06
7.597509982e-06
8.249950979e-06
8.931402785e-06
9.673571311e-06
1.045428641e-05
1.119269051e-05
1.180968557e-05
1.231235988e-05
1.280941442e-05
1.337562768e-05
1.398837841e-05
1.461135693e-05
1.526679927e-05
1.59532438e-05
1.656405694e-05
1.69835354e-05
1.738172645e-05
1.787720254e-05
1.840040548e-05
1.893947874e-05
1.940139262e-05
1.97759092e-05
2.023146218e-05
2.093831001e-05
2.217191261e-05
2.236001357e-05
2.25376331e-05
2.264168867e-05
2.274206203e-05
)


101
(
-2.342215224e-08
-9.888015461e-07
-2.272727816e-06
-3.301865187e-06
-3.979402764e-06
-4.316432646e-06
-4.345485533e-06
-4.022788723e-06
-3.437079222e-06
-2.632907297e-06
-1.704739321e-06
-7.388849746e-07
1.522045176e-07
8.955973994e-07
1.418209351e-06
1.698206784e-06
1.762764673e-06
1.673220675e-06
1.519153539e-06
1.378530625e-06
1.312830313e-06
1.342449741e-06
1.45899709e-06
1.62711221e-06
1.791160683e-06
1.896691724e-06
1.904969878e-06
1.797838669e-06
1.573690228e-06
1.246443647e-06
8.389110489e-07
3.802902878e-07
-1.006068823e-07
-5.905463998e-07
-1.066701326e-06
-1.495141712e-06
-1.776724451e-06
-1.892380399e-06
-2.035898474e-06
-2.375785506e-06
-2.877906143e-06
-3.395069878e-06
-3.804193496e-06
-4.058856022e-06
-4.173955899e-06
-4.193051073e-06
-4.157482401e-06
-4.092168004e-06
-4.001481796e-06
-3.880665877e-06
-3.72571192e-06
-3.535556597e-06
-3.311836073e-06
-3.057063442e-06
-2.77370145e-06
-2.461420834e-06
-2.121907266e-06
-1.754966804e-06
-1.362998405e-06
-9.464884779e-07
-5.061576741e-07
-4.445757709e-08
4.377418839e-07
9.389377449e-07
1.456832283e-06
1.990940647e-06
2.542082324e-06
3.107807864e-06
3.687106123e-06
4.276482075e-06
4.875548771e-06
5.485654006e-06
6.106883815e-06
6.734621119e-06
7.371922456e-06
8.037267099e-06
8.743209228e-06
9.474011762e-06
1.016107682e-05
1.073843782e-05
1.123571138e-05
1.17487525e-05
1.232738861e-05
1.293087528e-05
1.354000299e-05
1.417107327e-05
1.481156181e-05
1.535225849e-05
1.576750721e-05
1.622701418e-05
1.67371211e-05
1.725109629e-05
1.774999259e-05
1.815497464e-05
1.859711286e-05
1.931191128e-05
2.044524033e-05
2.061620567e-05
2.077076535e-05
2.079655262e-05
2.082176898e-05
)


101
(
-2.342215219e-08
-9.885472067e-07
-2.27398636e-06
-3.312449545e-06
-4.005054882e-06
-4.361952918e-06
-4.415316761e-06
-4.125554432e-06
-3.572755844e-06
-2.802371339e-06
-1.902888073e-06
-9.580525378e-07
-7.449097815e-08
6.719830859e-07
1.210242116e-06
1.511449756e-06
1.593696049e-06
1.510789059e-06
1.345407703e-06
1.174916943e-06
1.06502318e-06
1.045019033e-06
1.113753988e-06
1.245841038e-06
1.393261653e-06
1.502532909e-06
1.531359517e-06
1.455614552e-06
1.267532311e-06
9.749609169e-07
5.961172054e-07
1.565791059e-07
-3.162578575e-07
-8.058762429e-07
-1.293018657e-06
-1.748281207e-06
-2.098813745e-06
-2.300083272e-06
-2.45072356e-06
-2.704898819e-06
-3.114482009e-06
-3.606636435e-06
-4.066766324e-06
-4.411319513e-06
-4.614606574e-06
-4.698353695e-06
-4.703051543e-06
-4.664733081e-06
-4.59992013e-06
-4.509085742e-06
-4.387854706e-06
-4.232415948e-06
-4.043411898e-06
-3.822728107e-06
-3.572896022e-06
-3.294804963e-06
-2.989552755e-06
-2.656379847e-06
-2.297083983e-06
-1.913544484e-06
-1.507006065e-06
-1.077711717e-06
-6.278985061e-07
-1.579028666e-07
3.303521527e-07
8.344469491e-07
1.355293482e-06
1.891254812e-06
2.441689205e-06
3.006018488e-06
3.578451101e-06
4.16100534e-06
4.754576142e-06
5.358722586e-06
5.970191813e-06
6.593875455e-06
7.240293824e-06
7.920879568e-06
8.610960511e-06
9.248347564e-06
9.791572715e-06
1.028812049e-05
1.082283266e-05
1.140659227e-05
1.199836991e-05
1.259527307e-05
1.320915612e-05
1.379812479e-05
1.427712998e-05
1.472215558e-05
1.521629897e-05
1.573174878e-05
1.623890082e-05
1.667328251e-05
1.712406751e-05
1.782058857e-05
1.884026843e-05
1.890099914e-05
1.896560196e-05
1.905640895e-05
1.916357878e-05
)


101
(
-2.342215218e-08
-9.882640378e-07
-2.275166037e-06
-3.322827983e-06
-4.030346228e-06
-4.406891346e-06
-4.484258306e-06
-4.226836513e-06
-3.706695421e-06
-2.969748963e-06
-2.09915557e-06
-1.17577038e-06
-3.007157163e-07
4.483892653e-07
1.001802405e-06
1.32508848e-06
1.427748771e-06
1.355804603e-06
1.184873889e-06
9.904064483e-07
8.410489772e-07
7.739157262e-07
7.954317966e-07
8.888899776e-07
1.01460792e-06
1.121837213e-06
1.165912903e-06
1.117758383e-06
9.640110026e-07
7.067164754e-07
3.591227658e-07
-5.714411167e-08
-5.165864272e-07
-1.00073554e-06
-1.492255617e-06
-1.96647396e-06
-2.367844189e-06
-2.644052339e-06
-2.831935532e-06
-3.045548037e-06
-3.373431368e-06
-3.810111585e-06
-4.277706331e-06
-4.684232718e-06
-4.971445844e-06
-5.130502774e-06
-5.187934705e-06
-5.182356154e-06
-5.142070703e-06
-5.076802206e-06
-4.98434315e-06
-4.860764677e-06
-4.704549579e-06
-4.515726078e-06
-4.296972125e-06
-4.050769333e-06
-3.777814701e-06
-3.476881893e-06
-3.149719651e-06
-2.797449031e-06
-2.421603722e-06
-2.022631231e-06
-1.602141088e-06
-1.161956751e-06
-7.025132319e-07
-2.26648483e-07
2.653330324e-07
7.730365477e-07
1.295982173e-06
1.834905129e-06
2.384450399e-06
2.943981031e-06
3.512108111e-06
4.091421808e-06
4.68074115e-06
5.278950514e-06
5.888819566e-06
6.520822517e-06
7.177593602e-06
7.831187868e-06
8.424098269e-06
8.942218857e-06
9.447232363e-06
1.000126933e-05
1.058088264e-05
1.116324688e-05
1.175013051e-05
1.234156036e-05
1.287441184e-05
1.333341871e-05
1.381561578e-05
1.4330417e-05
1.484455634e-05
1.530649272e-05
1.577131155e-05
1.64208223e-05
1.737648438e-05
1.741741768e-05
1.745548695e-05
1.746929182e-05
1.747076478e-05
)


101
(
-2.342215655e-08
-9.87951443e-07
-2.276266207e-06
-3.333001513e-06
-4.055279872e-06
-4.451258697e-06
-4.552343454e-06
-4.326715977e-06
-3.838955856e-06
-3.135130854e-06
-2.293641121e-06
-1.392242641e-06
-5.267668554e-07
2.242457335e-07
7.92117984e-07
1.137910639e-06
1.263198747e-06
1.206120619e-06
1.035062621e-06
8.22426875e-07
6.384970088e-07
5.270809204e-07
5.024127431e-07
5.551820433e-07
6.542945144e-07
7.533922952e-07
8.070068503e-07
7.820936821e-07
6.602296273e-07
4.380052398e-07
1.235915222e-07
-2.657517523e-07
-7.071609938e-07
-1.181089489e-06
-1.670577768e-06
-2.155537359e-06
-2.593518272e-06
-2.932974366e-06
-3.172532655e-06
-3.382124579e-06
-3.652451529e-06
-4.024075372e-06
-4.465415539e-06
-4.900468909e-06
-5.255376962e-06
-5.491763277e-06
-5.613090407e-06
-5.650497017e-06
-5.638030191e-06
-5.596114849e-06
-5.529082263e-06
-5.434913691e-06
-5.309615902e-06
-5.151578565e-06
-4.962820422e-06
-4.745833114e-06
-4.502596496e-06
-4.231779426e-06
-3.935443006e-06
-3.614071784e-06
-3.268428699e-06
-2.89925624e-06
-2.507356048e-06
-2.0949914e-06
-1.66305934e-06
-1.213724676e-06
-7.487460295e-07
-2.672949682e-07
2.296023725e-07
7.431273274e-07
1.270025142e-06
1.80769766e-06
2.354246947e-06
2.91050514e-06
3.477677928e-06
4.054408429e-06
4.640960004e-06
5.239907821e-06
5.85830228e-06
6.494614111e-06
7.112198706e-06
7.665845991e-06
8.170108431e-06
8.693074757e-06
9.256189591e-06
9.831365385e-06
1.0401332e-05
1.098146319e-05
1.153921833e-05
1.202868087e-05
1.251110002e-05
1.302313694e-05
1.353588987e-05
1.402329582e-05
1.449476168e-05
1.513182339e-05
1.602842066e-05
1.604564491e-05
1.60555179e-05
1.600992755e-05
1.593103078e-05
)


101
(
-2.342215655e-08
-9.876078915e-07
-2.27728502e-06
-3.342970616e-06
-4.079860412e-06
-4.495062724e-06
-4.619579054e-06
-4.425212297e-06
-3.969591693e-06
-3.29862837e-06
-2.486434147e-06
-1.607570242e-06
-7.52773936e-07
-7.597225805e-10
5.806957604e-07
9.490532851e-07
1.098711257e-06
1.05996021e-06
8.938486538e-07
6.687790862e-07
4.553689008e-07
3.027874771e-07
2.329672569e-07
2.435814481e-07
3.115223058e-07
3.962210004e-07
4.533097688e-07
4.469146601e-07
3.540037763e-07
1.659325642e-07
-1.140370867e-07
-4.730617678e-07
-8.917363923e-07
-1.35100743e-06
-1.832962446e-06
-2.321249857e-06
-2.784015657e-06
-3.17474621e-06
-3.469953256e-06
-3.701594555e-06
-3.942809145e-06
-4.255721919e-06
-4.651272238e-06
-5.08373012e-06
-5.482362727e-06
-5.788745819e-06
-5.980079549e-06
-6.070775881e-06
-6.092618862e-06
-6.074992841e-06
-6.031533544e-06
-5.963995245e-06
-5.867964803e-06
-5.740565117e-06
-5.580821322e-06
-5.391870415e-06
-5.17713329e-06
-4.93517922e-06
-4.668056076e-06
-4.37625792e-06
-4.059903664e-06
-3.719630655e-06
-3.356753395e-06
-2.971866732e-06
-2.566122426e-06
-2.141275759e-06
-1.700915243e-06
-1.244561037e-06
-7.733201537e-07
-2.859017807e-07
2.172986933e-07
7.333947753e-07
1.260346522e-06
1.796357162e-06
2.341979372e-06
2.898599686e-06
3.465903769e-06
4.04212734e-06
4.630726703e-06
5.237665116e-06
5.85229456e-06
6.432371908e-06
6.956680512e-06
7.462645191e-06
8.00459132e-06
8.571692923e-06
9.135685929e-06
9.702830218e-06
1.026768492e-05
1.078320933e-05
1.127051732e-05
1.177963992e-05
1.229678633e-05
1.280298356e-05
1.328328579e-05
1.391090975e-05
1.471855967e-05
1.470004975e-05
1.467906994e-05
1.46268044e-05
1.459616439e-05
)


101
(
-2.342214889e-08
-9.872322031e-07
-2.278220871e-06
-3.352735084e-06
-4.104091619e-06
-4.538311703e-06
-4.685972874e-06
-4.522338408e-06
-4.098652417e-06
-3.460366615e-06
-2.677628451e-06
-1.821841646e-06
-9.788272709e-07
-2.268546548e-07
3.671389932e-07
7.577828485e-07
9.331228697e-07
9.157415804e-07
7.592668332e-07
5.273503699e-07
2.897602923e-07
9.953329088e-08
-1.437517428e-08
-4.674134375e-08
-1.389716508e-08
5.045113414e-08
1.048800818e-07
1.118426048e-07
4.421047981e-08
-1.116259596e-07
-3.571261243e-07
-6.836499025e-07
-1.075555095e-06
-1.516049307e-06
-1.986164122e-06
-2.471353343e-06
-2.947925561e-06
-3.376818444e-06
-3.724258927e-06
-3.993855346e-06
-4.233252895e-06
-4.505532664e-06
-4.85025393e-06
-5.256395843e-06
-5.671622227e-06
-6.031702141e-06
-6.2917004e-06
-6.443628965e-06
-6.50909886e-06
-6.520369967e-06
-6.499755777e-06
-6.455700691e-06
-6.386504166e-06
-6.28808748e-06
-6.157391438e-06
-5.997507452e-06
-5.810134236e-06
-5.596380874e-06
-5.356930955e-06
-5.093420381e-06
-4.805789849e-06
-4.493748732e-06
-4.159049983e-06
-3.801567168e-06
-3.422460436e-06
-3.022655744e-06
-2.605520728e-06
-2.173234795e-06
-1.726455214e-06
-1.263842413e-06
-7.847786016e-07
-2.90592364e-07
2.157536563e-07
7.323449429e-07
1.258324647e-06
1.795491733e-06
2.34349979e-06
2.900768471e-06
3.469124552e-06
4.049706105e-06
4.644444462e-06
5.232813911e-06
5.779516892e-06
6.287051674e-06
6.809085081e-06
7.365242039e-06
7.927887882e-06
8.484967513e-06
9.046793991e-06
9.582242906e-06
1.007935823e-05
1.058843699e-05
1.111137573e-05
1.162935269e-05
1.211933348e-05
1.273118422e-05
1.348614748e-05
1.343209541e-05
1.337491944e-05
1.328773616e-05
1.322697625e-05
)


101
(
-2.342215242e-08
-9.868241392e-07
-2.279074185e-06
-3.362296557e-06
-4.127975932e-06
-4.581009912e-06
-4.751530408e-06
-4.618114807e-06
-4.226171794e-06
-3.620409523e-06
-2.867256121e-06
-2.035114101e-06
-1.205004869e-06
-4.542441796e-07
1.510753703e-07
5.634126684e-07
7.65271789e-07
7.718511313e-07
6.292596804e-07
3.958227378e-07
1.396093492e-07
-8.401908803e-08
-2.400373093e-07
-3.153763321e-07
-3.201174878e-07
-2.810558872e-07
-2.355110414e-07
-2.211867722e-07
-2.683902746e-07
-3.951283329e-07
-6.075114668e-07
-9.011616545e-07
-1.264110188e-06
-1.682339268e-06
-2.136812798e-06
-2.613480075e-06
-3.09413569e-06
-3.547870282e-06
-3.939403064e-06
-4.254088666e-06
-4.513427516e-06
-4.767859614e-06
-5.068901634e-06
-5.43541947e-06
-5.841964218e-06
-6.233093868e-06
-6.552214052e-06
-6.769085112e-06
-6.887788397e-06
-6.93549989e-06
-6.939980363e-06
-6.917782673e-06
-6.8725888e-06
-6.801161648e-06
-6.699793216e-06
-6.568615209e-06
-6.408692129e-06
-6.221964849e-06
-6.009481426e-06
-5.773013402e-06
-5.513184313e-06
-5.229221488e-06
-4.922202638e-06
-4.59224394e-06
-4.240213016e-06
-3.867108105e-06
-3.473689958e-06
-3.064221745e-06
-2.640293636e-06
-2.201313199e-06
-1.746629722e-06
-1.27578066e-06
-7.900053527e-07
-2.922954443e-07
2.151691211e-07
7.325155947e-07
1.261081958e-06
1.800540663e-06
2.350791944e-06
2.911128975e-06
3.484020649e-06
4.064675793e-06
4.624833156e-06
5.14477339e-06
5.654618796e-06
6.194444722e-06
6.754910483e-06
7.308186343e-06
7.862839515e-06
8.412193679e-06
8.922507571e-06
9.431332184e-06
9.95839942e-06
1.04869306e-05
1.098955037e-05
1.158020044e-05
1.227705898e-05
1.21946258e-05
1.210448938e-05
1.196125504e-05
1.182011143e-05
)


101
(
-2.342215499e-08
-9.863819981e-07
-2.2798428e-06
-3.37165282e-06
-4.151511164e-06
-4.623155394e-06
-4.816240476e-06
-4.712537961e-06
-4.352207255e-06
-3.778844759e-06
-3.055310706e-06
-2.247403235e-06
-1.4313349e-06
-6.8301765e-07
-6.770732429e-08
3.654469479e-07
5.940845781e-07
6.265756191e-07
5.016277321e-07
2.717661834e-07
2.836329722e-09
-2.49017549e-07
-4.43896203e-07
-5.615083395e-07
-6.053267827e-07
-5.955564281e-07
-5.649783416e-07
-5.499000289e-07
-5.82519714e-07
-6.843960694e-07
-8.660816028e-07
-1.127694427e-06
-1.461004236e-06
-1.854519603e-06
-2.29006487e-06
-2.753742764e-06
-3.230650856e-06
-3.697249373e-06
-4.121928407e-06
-4.481000978e-06
-4.774306292e-06
-5.033001042e-06
-5.30611609e-06
-5.631194187e-06
-6.010475373e-06
-6.408373021e-06
-6.769603802e-06
-7.047869807e-06
-7.226455648e-06
-7.319771626e-06
-7.354800435e-06
-7.355260812e-06
-7.332263489e-06
-7.285753467e-06
-7.212155171e-06
-7.108600821e-06
-6.976890452e-06
-6.817204824e-06
-6.631948922e-06
-6.421815285e-06
-6.188893916e-06
-5.932207913e-06
-5.652552081e-06
-5.3502392e-06
-5.025731369e-06
-4.67964094e-06
-4.311852528e-06
-3.925620829e-06
-3.523533256e-06
-3.107248232e-06
-2.676078649e-06
-2.229149941e-06
-1.765398043e-06
-1.287398591e-06
-7.980613243e-07
-2.991563981e-07
2.103389799e-07
7.312177049e-07
1.263673053e-06
1.806526112e-06
2.360567581e-06
2.925347958e-06
3.487557425e-06
4.021224188e-06
4.528438166e-06
5.05105642e-06
5.604818607e-06
6.158743164e-06
6.709182821e-06
7.260756433e-06
7.786682574e-06
8.297212977e-06
8.826387437e-06
9.362445915e-06
9.879027141e-06
1.045509822e-05
1.109853544e-05
1.096000788e-05
1.08195176e-05
1.064453617e-05
1.048177419e-05
)


101
(
-2.342216376e-08
-9.859049163e-07
-2.280525882e-06
-3.380803615e-06
-4.174697237e-06
-4.664750688e-06
-4.880101273e-06
-4.805606604e-06
-4.476794417e-06
-3.935761107e-06
-3.24179374e-06
-2.458708218e-06
-1.65782864e-06
-9.132282203e-07
-2.893637367e-07
1.634917385e-07
4.18679364e-07
4.783755344e-07
3.743142261e-07
1.527199915e-07
-1.229823738e-07
-3.97302667e-07
-6.268598276e-07
-7.853861006e-07
-8.695222656e-07
-8.926699044e-07
-8.825425136e-07
-8.729381095e-07
-8.967905134e-07
-9.785309285e-07
-1.132749292e-06
-1.363814726e-06
-1.667279568e-06
-2.034489882e-06
-2.448632087e-06
-2.896037134e-06
-3.363563144e-06
-3.833384521e-06
-4.279741659e-06
-4.676513124e-06
-5.009470873e-06
-5.290043273e-06
-5.55494568e-06
-5.847230498e-06
-6.190820182e-06
-6.5747752e-06
-6.956579107e-06
-7.284382343e-06
-7.52348929e-06
-7.670110432e-06
-7.743459425e-06
-7.770306318e-06
-7.769322909e-06
-7.745737334e-06
-7.697859655e-06
-7.621828526e-06
-7.518041851e-06
-7.386148928e-06
-7.227866558e-06
-7.044249699e-06
-6.837800042e-06
-6.607899125e-06
-6.354825684e-06
-6.079826875e-06
-5.783322909e-06
-5.464173506e-06
-5.123255413e-06
-4.761442811e-06
-4.38212325e-06
-3.98807632e-06
-3.57932925e-06
-3.15576228e-06
-2.715530148e-06
-2.25913915e-06
-1.788710966e-06
-1.306896777e-06
-8.15717377e-07
-3.135688735e-07
2.010914935e-07
7.267230848e-07
1.264119857e-06
1.812126564e-06
2.366425675e-06
2.907365366e-06
3.42075003e-06
3.931457145e-06
4.47211867e-06
5.025534109e-06
5.575372434e-06
6.123353788e-06
6.661388656e-06
7.175363212e-06
7.711360905e-06
8.251325697e-06
8.780866696e-06
9.34320489e-06
9.942966351e-06
9.760912674e-06
9.576808389e-06
9.3655159e-06
9.095068638e-06
)


101
(
-2.342217244e-08
-9.853912842e-07
-2.281120652e-06
-3.389746058e-06
-4.19752952e-06
-4.70579175e-06
-4.943117474e-06
-4.897326341e-06
-4.599923238e-06
-4.091191322e-06
-3.426790859e-06
-2.668992911e-06
-1.884485164e-06
-1.145002837e-06
-5.141662556e-07
-4.294131708e-08
2.383610415e-07
3.262254962e-07
2.45937453e-07
3.728625098e-08
-2.396269188e-07
-5.308337172e-07
-7.908048052e-07
-9.881005202e-07
-1.112995345e-06
-1.17213246e-06
-1.18737663e-06
-1.189002221e-06
-1.209662018e-06
-1.276180049e-06
-1.406864817e-06
-1.609705128e-06
-1.883571495e-06
-2.223427923e-06
-2.614382202e-06
-3.043300521e-06
-3.497754987e-06
-3.963620486e-06
-4.421032259e-06
-4.845645059e-06
-5.216705416e-06
-5.529670813e-06
-5.804841311e-06
-6.079840224e-06
-6.390049586e-06
-6.746999313e-06
-7.128236728e-06
-7.487891395e-06
-7.78058492e-06
-7.983888403e-06
-8.103793521e-06
-8.163442987e-06
-8.186221875e-06
-8.184587394e-06
-8.160757386e-06
-8.111444942e-06
-8.034930286e-06
-7.930908364e-06
-7.79967231e-06
-7.642779043e-06
-7.462188645e-06
-7.258907444e-06
-7.032421513e-06
-6.784452951e-06
-6.515129214e-06
-6.223317195e-06
-5.909763417e-06
-5.574047567e-06
-5.219461157e-06
-4.847703057e-06
-4.460886492e-06
-4.0597759e-06
-3.643052053e-06
-3.21016588e-06
-2.760973554e-06
-2.297012815e-06
-1.822483028e-06
-1.33737623e-06
-8.418505594e-07
-3.334635626e-07
1.877901193e-07
7.201007654e-07
1.261986726e-06
1.801653314e-06
2.321597035e-06
2.827999063e-06
3.354529865e-06
3.903039292e-06
4.454090989e-06
4.999689186e-06
5.545158119e-06
6.063675545e-06
6.60531885e-06
7.15171353e-06
7.69080637e-06
8.243505852e-06
8.81357285e-06
8.590645064e-06
8.367593922e-06
8.128139792e-06
7.912948456e-06
)


101
(
-2.342215499e-08
-9.848384727e-07
-2.281622516e-06
-3.398474275e-06
-4.22000081e-06
-4.746271389e-06
-5.005289637e-06
-4.987696724e-06
-4.721576274e-06
-4.245149942e-06
-3.610417464e-06
-2.878193003e-06
-2.111247348e-06
-1.378446291e-06
-7.423764831e-07
-2.543415779e-07
5.249958829e-08
1.693654373e-07
1.154558845e-07
-7.54027247e-08
-3.484189361e-07
-6.512589317e-07
-9.375346988e-07
-1.170873847e-06
-1.336028643e-06
-1.433393407e-06
-1.478274664e-06
-1.496641939e-06
-1.519913563e-06
-1.576436714e-06
-1.687673224e-06
-1.865039905e-06
-2.110480772e-06
-2.422605857e-06
-2.789131013e-06
-3.198025095e-06
-3.637066339e-06
-4.093991342e-06
-4.553606233e-06
-4.995567126e-06
-5.397866877e-06
-5.746121018e-06
-6.045136068e-06
-6.320289066e-06
-6.607638205e-06
-6.934019e-06
-7.298652588e-06
-7.670611939e-06
-8.003481326e-06
-8.26115534e-06
-8.433372309e-06
-8.533235673e-06
-8.583962721e-06
-8.604942921e-06
-8.603558221e-06
-8.578897883e-06
-8.52903011e-06
-8.452463908e-06
-8.348666647e-06
-8.218568889e-06
-8.064053814e-06
-7.887030729e-06
-7.687511213e-06
-7.466423101e-06
-7.223360703e-06
-6.959333311e-06
-6.673151278e-06
-6.364776866e-06
-6.035611454e-06
-5.687354295e-06
-5.323247288e-06
-4.944088031e-06
-4.550259879e-06
-4.141190198e-06
-3.715326045e-06
-3.271863381e-06
-2.813269805e-06
-2.344969024e-06
-1.866794075e-06
-1.376298385e-06
-8.729727237e-07
-3.561336284e-07
1.73127097e-07
7.054173481e-07
1.22781089e-06
1.733975772e-06
2.250146948e-06
2.789698662e-06
3.341703051e-06
3.887891271e-06
4.435851463e-06
4.963654715e-06
5.504434162e-06
6.059690073e-06
6.607480397e-06
7.152100058e-06
7.687676217e-06
7.429614042e-06
7.173967248e-06
6.913922168e-06
6.707407298e-06
)


101
(
-2.342215498e-08
-9.842467612e-07
-2.282039545e-06
-3.406992026e-06
-4.242116697e-06
-4.78620068e-06
-5.066634536e-06
-5.076732404e-06
-4.841705347e-06
-4.397610092e-06
-3.792749219e-06
-3.086301825e-06
-2.338045232e-06
-1.613564815e-06
-9.740895005e-07
-4.709939724e-07
-1.394885364e-07
6.864709646e-09
-1.860003228e-08
-1.872110924e-07
-4.515598091e-07
-7.608264788e-07
-1.068799883e-06
-1.334820313e-06
-1.538664121e-06
-1.675267434e-06
-1.753324137e-06
-1.793816622e-06
-1.82589124e-06
-1.878186129e-06
-1.974241416e-06
-2.128953935e-06
-2.347830366e-06
-2.632570981e-06
-2.973963616e-06
-3.361751385e-06
-3.78393894e-06
-4.228781463e-06
-4.683971594e-06
-5.133598245e-06
-5.557723599e-06
-5.93810699e-06
-6.267768449e-06
-6.557933452e-06
-6.837156916e-06
-7.138231375e-06
-7.478033993e-06
-7.844757178e-06
-8.200872813e-06
-8.504433695e-06
-8.729854654e-06
-8.876304479e-06
-8.961269086e-06
-9.007375121e-06
-9.028054257e-06
-9.026417768e-06
-9.001888342e-06
-8.951910384e-06
-8.875528774e-06
-8.772539207e-06
-8.644751445e-06
-8.493788689e-06
-8.321144913e-06
-8.126596158e-06
-7.909895797e-06
-7.673191252e-06
-7.414277026e-06
-7.133385487e-06
-6.830563317e-06
-6.507838965e-06
-6.167496225e-06
-5.810376888e-06
-5.438939232e-06
-5.052721783e-06
-4.650455987e-06
-4.230399989e-06
-3.791682738e-06
-3.339575074e-06
-2.876727412e-06
-2.404216521e-06
-1.919862426e-06
-1.418628347e-06
-9.037498475e-07
-3.814392374e-07
1.395058823e-07
6.465362848e-07
1.156356274e-06
1.686073628e-06
2.236409971e-06
2.78447109e-06
3.330811388e-06
3.870683444e-06
4.410875744e-06
4.972211501e-06
5.531781602e-06
6.066146099e-06
6.564240128e-06
6.283505162e-06
6.004510474e-06
5.718639309e-06
5.395636142e-06
)


101
(
-2.342217244e-08
-9.836145409e-07
-2.282363369e-06
-3.415296806e-06
-4.263874702e-06
-4.825581453e-06
-5.127160137e-06
-5.164444273e-06
-4.960189918e-06
-4.548390052e-06
-3.973823777e-06
-3.293385178e-06
-2.564863484e-06
-1.850258142e-06
-1.20909781e-06
-6.92648135e-07
-3.376328367e-07
-1.618398791e-07
-1.575757775e-07
-3.010294445e-07
-5.52202336e-07
-8.626154867e-07
-1.186650773e-06
-1.481298398e-06
-1.721317062e-06
-1.896934714e-06
-2.010796888e-06
-2.078313457e-06
-2.1252932e-06
-2.179385563e-06
-2.265127565e-06
-2.400568658e-06
-2.595181609e-06
-2.853505979e-06
-3.169458352e-06
-3.535110591e-06
-3.93922449e-06
-4.370044655e-06
-4.816544699e-06
-5.266264397e-06
-5.702853764e-06
-6.108202212e-06
-6.468680318e-06
-6.783468352e-06
-7.06944762e-06
-7.356494542e-06
-7.671417918e-06
-8.020804971e-06
-8.383210123e-06