/*--------------------------------*- C++ -*----------------------------------*\
| =========                 |                                                 |
| \\      /  F ield         | OpenFOAM: The Open Source CFD Toolbox           |
|  \\    /   O peration     | Version:  2.3.1                                 |
|   \\  /    A nd           | Web:      www.OpenFOAM.org                      |
|    \\/     M anipulation  |                                                 |
\*---------------------------------------------------------------------------*/
FoamFile
{
    version     2.0;
    format      ascii;
    class       dictionary;
    location    "constant";
    object      H;
}
// * * * * * * * * * * * * * * * * * * * * * * * * * * * * * * * * * * * * * //

H_table
101
(

101
(
1.43813446e-10
1.518456505e-08
5.578570989e-08
1.073029141e-07
1.58795257e-07
2.050111589e-07
2.435141377e-07
2.731312407e-07
2.937128101e-07
3.059941604e-07
3.102959181e-07
3.075107601e-07
2.985947739e-07
2.842684507e-07
2.65680225e-07
2.439511026e-07
2.201618245e-07
1.954946278e-07
1.709736461e-07
1.476014719e-07
1.25886963e-07
1.061497387e-07
8.885943758e-08
7.388957347e-08
6.108271493e-08
5.02689777e-08
4.123360076e-08
3.373498871e-08
2.758086402e-08
2.25370009e-08
1.842283807e-08
1.505694821e-08
1.225931453e-08
1.008533863e-08
8.287228458e-09
6.818824436e-09
5.97178653e-09
5.57057409e-09
4.603079617e-09
3.822244054e-09
3.185044288e-09
2.646007234e-09
2.204952385e-09
1.83874968e-09
1.530046592e-09
1.275296485e-09
1.061009192e-09
8.839228896e-10
7.35070639e-10
6.115797557e-10
5.07826177e-10
4.211705958e-10
3.486490143e-10
2.880094653e-10
2.373907172e-10
1.94923275e-10
1.603050526e-10
1.309121472e-10
1.06871919e-10
8.676638241e-11
7.033013485e-11
5.666175983e-11
4.532186283e-11
3.604684759e-11
2.864021924e-11
2.254710371e-11
1.762312396e-11
1.368123844e-11
1.055510511e-11
8.057354373e-12
6.103823992e-12
4.571085683e-12
3.395507598e-12
2.492733674e-12
2.022751454e-12
1.591333633e-12
1.112948683e-12
7.700702939e-13
5.234146192e-13
3.464580425e-13
2.237465004e-13
1.435225217e-13
8.905947053e-14
6.463646561e-14
4.373153698e-14
2.505934629e-14
1.394100937e-14
7.508146376e-15
3.91285887e-15
2.67045722e-15
1.29804707e-15
5.509282631e-16
2.344664029e-16
9.91750479e-17
3.638479085e-17
7.652508677e-18
-4.047011761e-24
-1.041151015e-41
2.356400812e-34
-2.393451636e-34
0
)


101
(
1.432593387e-10
1.49211752e-08
5.488400504e-08
1.05727945e-07
1.566926199e-07
2.025556006e-07
2.408950271e-07
2.705476577e-07
2.913651542e-07
3.04022899e-07
3.088815535e-07
3.067633568e-07
2.985993923e-07
2.851263134e-07
2.67399014e-07
2.464881637e-07
2.234356188e-07
1.993661684e-07
1.752455714e-07
1.520847124e-07
1.304097134e-07
1.10579375e-07
9.303014606e-08
7.773967853e-08
6.458138871e-08
5.339816245e-08
4.39951773e-08
3.614991274e-08
2.966808555e-08
2.433489381e-08
1.996617744e-08
1.638552489e-08
1.341492831e-08
1.10356426e-08
9.085598823e-09
7.478627109e-09
6.340623904e-09
5.638046597e-09
4.839377308e-09
4.054710697e-09
3.384592847e-09
2.820762887e-09
2.35475219e-09
1.969286352e-09
1.646915992e-09
1.378750268e-09
1.154107728e-09
9.664248592e-10
8.089821597e-10
6.771759447e-10
5.665488003e-10
4.736978556e-10
3.956803623e-10
3.297627378e-10
2.742464142e-10
2.276104295e-10
1.888298509e-10
1.562884144e-10
1.291126195e-10
1.063709645e-10
8.740523242e-11
7.157778276e-11
5.833644781e-11
4.728867187e-11
3.815795891e-11
3.066806873e-11
2.450222504e-11
1.945337706e-11
1.533359108e-11
1.19952234e-11
9.311693127e-12
7.167440492e-12
5.46791324e-12
4.11353446e-12
3.108283571e-12
2.359731604e-12
1.752190135e-12
1.272981509e-12
9.081919697e-13
6.352855713e-13
4.357105877e-13
2.929436419e-13
1.927403877e-13
1.260882926e-13
8.227366218e-14
5.254221575e-14
3.26032458e-14
1.942554847e-14
1.121138218e-14
6.41809132e-15
3.575691743e-15
1.934067247e-15
9.861291086e-16
4.699407465e-16
2.200228598e-16
8.6360623e-17
1.409838362e-17
1.989549962e-17
3.063814779e-17
6.943955732e-17
1.433605644e-16
)


101
(
1.427052313e-10
1.465955287e-08
5.399029584e-08
1.041737099e-07
1.5463499e-07
2.001877616e-07
2.384281084e-07
2.682043324e-07
2.89370302e-07
3.025435957e-07
3.081142252e-07
3.06835992e-07
2.996037666e-07
2.87159208e-07
2.704676031e-07
2.505381116e-07
2.283659646e-07
2.050177231e-07
1.813946866e-07
1.585161461e-07
1.369106786e-07
1.169803584e-07
9.915761819e-08
8.348806907e-08
6.989450125e-08
5.824547254e-08
4.836783196e-08
4.006042414e-08
3.3137168e-08
2.739717096e-08
2.266124588e-08
1.875775865e-08
1.551044234e-08
1.286354258e-08
1.067284352e-08
8.85396232e-09
7.465857175e-09
6.468511586e-09
5.599041332e-09
4.778704854e-09
4.043902399e-09
3.408493617e-09
2.87582388e-09
2.431283625e-09
2.057732511e-09
1.744610104e-09
1.480689688e-09
1.257520603e-09
1.06830825e-09
9.077234478e-10
7.712714621e-10
6.553456582e-10
5.569210347e-10
4.729614649e-10
4.010286078e-10
3.394402711e-10
2.869070119e-10
2.421926093e-10
2.041781881e-10
1.717926111e-10
1.442975172e-10
1.20891565e-10
1.009151824e-10
8.393954395e-11
6.954770419e-11
5.739042551e-11
4.711337914e-11
3.84748911e-11
3.125986e-11
2.520376201e-11
2.017332821e-11
1.600649408e-11
1.262935251e-11
9.861481831e-12
7.622587115e-12
5.846947561e-12
4.443443833e-12
3.343551072e-12
2.489121765e-12
1.826411018e-12
1.320253977e-12
9.374503598e-13
6.550267035e-13
4.483561597e-13
3.010966355e-13
1.986245069e-13
1.30723459e-13
8.489512837e-14
5.326575157e-14
3.27153212e-14
1.957824445e-14
1.136186628e-14
6.705539726e-15
3.733061583e-15
2.077154962e-15
1.067964125e-15
3.215099557e-16
5.958384144e-16
1.083889909e-15
2.643273003e-15
4.870854925e-15
)


101
(
1.42151124e-10
1.439968107e-08
5.31043731e-08
1.0263934e-07
1.526199724e-07
1.979023775e-07
2.361035607e-07
2.660847393e-07
2.877028842e-07
3.015194947e-07
3.079450881e-07
3.076661954e-07
3.01532383e-07
2.902804612e-07
2.747896175e-07
2.559997496e-07
2.348527893e-07
2.123548311e-07
1.893370638e-07
1.668258244e-07
1.453407394e-07
1.253256881e-07
1.072295433e-07
9.114620052e-08
7.705297856e-08
6.485745434e-08
5.441218552e-08
4.553893172e-08
3.80677944e-08
3.181091266e-08
2.659810079e-08
2.226599107e-08
1.863985999e-08
1.565037292e-08
1.314344868e-08
1.101166111e-08
9.353457558e-09
8.051589303e-09
6.979706359e-09
6.041296909e-09
5.198965778e-09
4.453808465e-09
3.815173607e-09
3.27251884e-09
2.811182319e-09
2.420822017e-09
2.088401129e-09
1.804354457e-09
1.559837705e-09
1.349230608e-09
1.166989313e-09
1.00963489e-09
8.740153148e-10
7.567555629e-10
6.548021833e-10
5.661426308e-10
4.886102241e-10
4.211576615e-10
3.626531233e-10
3.116968852e-10
2.676253517e-10
2.29415363e-10
1.961660127e-10
1.673108167e-10
1.422217601e-10
1.203700707e-10
1.014425232e-10
8.504856624e-11
7.109182434e-11
5.91021995e-11
4.878692437e-11
3.994579278e-11
3.252330349e-11
2.62821874e-11
2.103934561e-11
1.667559338e-11
1.307159769e-11
1.014318903e-11
7.80176193e-12
5.946852266e-12
4.483940807e-12
3.323663061e-12
2.429611969e-12
1.746462035e-12
1.230334674e-12
8.4835608e-13
5.745650106e-13
3.896757863e-13
2.597647086e-13
1.672401918e-13
1.049275453e-13
6.505965989e-14
4.066066437e-14
2.457112891e-14
1.474949708e-14
8.259511714e-15
2.761286826e-15
7.095325519e-15
1.571940933e-14
5.154263312e-14
1.172442589e-13
)


101
(
1.415970167e-10
1.414154445e-08
5.222603406e-08
1.011239916e-07
1.506452525e-07
1.956943938e-07
2.339120499e-07
2.641733737e-07
2.863393852e-07
3.009169461e-07
3.083301384e-07
3.091984342e-07
3.043197066e-07
2.944161965e-07
2.802849212e-07
2.627917993e-07
2.428184801e-07
2.213090009e-07
1.990203067e-07
1.769796609e-07
1.556892793e-07
1.356309781e-07
1.172843939e-07
1.00778794e-07
8.61473731e-08
7.334448828e-08
6.22547755e-08
5.272671998e-08
4.461187843e-08
3.773691223e-08
3.194154345e-08
2.707605147e-08
2.296728374e-08
1.955065639e-08
1.665635627e-08
1.418525001e-08
1.214869534e-08
1.049787338e-08
9.142195835e-09
7.989936531e-09
6.977024834e-09
6.076057473e-09
5.290428444e-09
4.610001088e-09
4.021853447e-09
3.517588057e-09
3.083087006e-09
2.707883751e-09
2.380720905e-09
2.095210456e-09
1.844017564e-09
1.623221489e-09
1.429730955e-09
1.260312423e-09
1.11097029e-09
9.786044512e-10
8.615205969e-10
7.574675104e-10
6.654992873e-10
5.834145823e-10
5.110264614e-10
4.47290612e-10
3.908263057e-10
3.410537315e-10
2.969726603e-10
2.574347959e-10
2.222859149e-10
1.91179504e-10
1.639682999e-10
1.402110444e-10
1.19057061e-10
1.00440535e-10
8.422618856e-11
7.025351713e-11
5.818149711e-11
4.778723315e-11
3.87984802e-11
3.121598985e-11
2.487037822e-11
1.964999854e-11
1.540296373e-11
1.189590806e-11
9.062033499e-12
6.816625369e-12
5.038233863e-12
3.643975727e-12
2.575344421e-12
1.802219589e-12
1.257053817e-12
8.565175375e-13
5.610262188e-13
3.6095334e-13
2.293416113e-13
1.449986035e-13
9.157904953e-14
5.387139936e-14
2.187777598e-14
7.729764353e-14
1.927756687e-13
7.192731436e-13
1.419703518e-12
)


101
(
1.410429093e-10
1.388512854e-08
5.135508231e-08
9.962684502e-08
1.487085929e-07
1.935589569e-07
2.318446922e-07
2.624557914e-07
2.852582494e-07
3.007056851e-07
3.092306006e-07
3.113854524e-07
3.079111179e-07
2.995075456e-07
2.868924558e-07
2.70855219e-07
2.522120707e-07
2.318419444e-07
2.104238621e-07
1.889793151e-07
1.679844849e-07
1.47953163e-07
1.294051765e-07
1.124970421e-07
9.73156117e-08
8.386818776e-08
7.207690692e-08
6.182115596e-08
5.297911357e-08
4.539489042e-08
3.892308607e-08
3.341960429e-08
2.872335713e-08
2.478554686e-08
2.141681342e-08
1.852036869e-08
1.60590589e-08
1.399758234e-08
1.227944701e-08
1.082881378e-08
9.57055135e-09
8.455392556e-09
7.47451613e-09
6.612575698e-09
5.854896467e-09
5.194942573e-09
4.619076739e-09
4.117650093e-09
3.676615635e-09
3.287148613e-09
2.939581132e-09
2.62880346e-09
2.351805321e-09
2.106120589e-09
1.887467084e-09
1.690801122e-09
1.514184323e-09
1.354858404e-09
1.212240822e-09
1.082429324e-09
9.651841059e-10
8.60735714e-10
7.664154371e-10
6.820964197e-10
6.066280801e-10
5.378117043e-10
4.750923244e-10
4.181443018e-10
3.667472251e-10
3.215461005e-10
2.804267205e-10
2.432617104e-10
2.097384992e-10
1.799815308e-10
1.535903072e-10
1.302981635e-10
1.097100427e-10
9.155875332e-11
7.554447989e-11
6.185841979e-11
5.030618387e-11
4.062780951e-11
3.230215853e-11
2.542900824e-11
1.974529871e-11
1.508226835e-11
1.12334366e-11
8.249084652e-12
6.000957551e-12
4.328739321e-12
3.007901614e-12
2.039989948e-12
1.373206576e-12
8.961575353e-13
5.896988023e-13
3.604636062e-13
1.692953236e-13
6.948012777e-13
1.888667995e-12
7.905724006e-12
1.581633943e-11
)


101
(
1.404888021e-10
1.363042056e-08
5.049132834e-08
9.81471046e-08
1.468078286e-07
1.914913985e-07
2.298930044e-07
2.609183118e-07
2.844392734e-07
3.008575561e-07
3.106107138e-07
3.141842863e-07
3.122576259e-07
3.055026752e-07
2.945598203e-07
2.801408489e-07
2.629936613e-07
2.439279308e-07
2.235411942e-07
2.028424683e-07
1.822725939e-07
1.623694262e-07
1.436993391e-07
1.264397686e-07
1.107263126e-07
9.662420374e-08
8.409820071e-08
7.306152007e-08
6.342390688e-08
5.505081884e-08
4.781496865e-08
4.158098345e-08
3.619623144e-08
3.163940485e-08
2.770596201e-08
2.429710236e-08
2.134550123e-08
1.880929773e-08
1.6653194e-08
1.482083456e-08
1.323698529e-08
1.183715597e-08
1.060231066e-08
9.507809698e-09
8.532830782e-09
7.670715784e-09
6.908158963e-09
6.238824483e-09
5.646563372e-09
5.118922492e-09
4.643847356e-09
4.212734155e-09
3.822318379e-09
3.471076062e-09
3.156198524e-09
2.869853798e-09
2.609056755e-09
2.370846821e-09
2.154366568e-09
1.955002628e-09
1.772549727e-09
1.607285728e-09
1.455966893e-09
1.317985143e-09
1.193151793e-09
1.078566399e-09
9.722948621e-10
8.738164417e-10
7.826393281e-10
7.000537035e-10
6.247059157e-10
5.555935363e-10
4.918024153e-10
4.332909826e-10
3.798500109e-10
3.314495411e-10
2.880433166e-10
2.485455916e-10
2.124208702e-10
1.800917962e-10
1.516544214e-10
1.272980067e-10
1.056416593e-10
8.676847879e-11
7.068336136e-11
5.681885178e-11
4.484453114e-11
3.473299001e-11
2.672158132e-11
2.042456634e-11
1.51885655e-11
1.094903669e-11
7.911758626e-12
5.558282562e-12
3.893122734e-12
2.498419908e-12
1.31194425e-12
6.567550406e-12
1.676896977e-11
5.872648048e-11
1.097406952e-10
)


101
(
1.399346946e-10
1.337740904e-08
4.963458798e-08
9.668399599e-08
1.449409001e-07
1.894873986e-07
2.280493272e-07
2.595487135e-07
2.838639225e-07
3.013467004e-07
3.124381065e-07
3.175563821e-07
3.17316299e-07
3.123567682e-07
3.032434145e-07
2.906094877e-07
2.751330825e-07
2.57551469e-07
2.383768413e-07
2.185990732e-07
1.986136656e-07
1.789724482e-07
1.602908158e-07
1.427635374e-07
1.265675609e-07
1.118295897e-07
9.856289306e-08
8.67168251e-08
7.623592302e-08
6.701083591e-08
5.893650729e-08
5.188997816e-08
4.572454928e-08
4.045293902e-08
3.586247494e-08
3.185437194e-08
2.833845569e-08
2.52586781e-08
2.25909707e-08
2.02942505e-08
1.830040221e-08
1.653596581e-08
1.497807631e-08
1.359107255e-08
1.234495085e-08
1.123048065e-08
1.023151232e-08
9.345351897e-09
8.556832312e-09
7.850566975e-09
7.211147053e-09
6.62476222e-09
6.087800066e-09
5.598435335e-09
5.154820334e-09
4.748670282e-09
4.376088985e-09
4.03127538e-09
3.714075544e-09
3.418070062e-09
3.143466595e-09
2.891537221e-09
2.65836492e-09
2.443464779e-09
2.246203625e-09
2.064136372e-09
1.893347136e-09
1.733495677e-09
1.582480919e-09
1.442178951e-09
1.312637179e-09
1.191819753e-09
1.078932199e-09
9.729366231e-10
8.738414491e-10
7.814329804e-10
6.97014024e-10
6.190642765e-10
5.464207686e-10
4.786768663e-10
4.162671479e-10
3.606427645e-10
3.109922962e-10
2.653551246e-10
2.251936762e-10
1.893801257e-10
1.572653184e-10
1.282966842e-10
1.041667016e-10
8.387334817e-11
6.659687491e-11
5.122631818e-11
3.960744111e-11
3.009834867e-11
2.255914599e-11
1.608468872e-11
9.633976442e-12
4.293199011e-11
1.010933222e-10
3.048697122e-10
5.483594171e-10
)


101
(
1.393805874e-10
1.312608391e-08
4.878468463e-08
9.523676748e-08
1.431058225e-07
1.875428896e-07
2.26306709e-07
2.583361987e-07
2.835152523e-07
3.021494651e-07
3.146833626e-07
3.214676538e-07
3.230498626e-07
3.200320362e-07
3.129074214e-07
3.022306316e-07
2.886091816e-07
2.727058065e-07
2.549439393e-07
2.362880087e-07
2.170780916e-07
1.978673905e-07
1.793178126e-07
1.61642177e-07
1.450488737e-07
1.297264889e-07
1.157436981e-07
1.030888506e-07
9.174272112e-08
8.162373857e-08
7.26536473e-08
6.472698025e-08
5.770216078e-08
5.162823031e-08
4.628980267e-08
4.159377323e-08
3.743313706e-08
3.373613892e-08
3.048388655e-08
2.76422403e-08
2.515356549e-08
2.294278434e-08
2.098422931e-08
1.923414415e-08
1.765404284e-08
1.62309914e-08
1.494264561e-08
1.378796767e-08
1.275448246e-08
1.182397338e-08
1.097609991e-08
1.019559195e-08
9.475838033e-09
8.810331497e-09
8.202289451e-09
7.643680082e-09
7.126574821e-09
6.64382189e-09
6.196629542e-09
5.775495553e-09
5.38010062e-09
5.012746218e-09
4.667384723e-09
4.346693543e-09
4.049482782e-09
3.774604842e-09
3.516438671e-09
3.271482139e-09
3.036791722e-09
2.812119343e-09
2.602087189e-09
2.403578642e-09
2.218727409e-09
2.042947697e-09
1.873991391e-09
1.712772465e-09
1.561695834e-09
1.420101654e-09
1.286463145e-09
1.158244296e-09
1.037229458e-09
9.243859353e-10
8.226925543e-10
7.260065053e-10
6.377442847e-10
5.554772006e-10
4.817922208e-10
4.111238309e-10
3.493336087e-10
2.948689709e-10
2.460223969e-10
2.009859192e-10
1.646918766e-10
1.337238912e-10
1.066476241e-10
8.342067448e-11
5.630328042e-11
2.052402722e-10
4.441182856e-10
1.159126484e-09
2.058694683e-09
)


101
(
1.388264798e-10
1.287643615e-08
4.794144698e-08
9.38047023e-08
1.413006848e-07
1.856539264e-07
2.246584428e-07
2.572705804e-07
2.833773894e-07
3.032436208e-07
3.173188892e-07
3.258864533e-07
3.294241687e-07
3.284944536e-07
3.235204952e-07
3.149788275e-07
3.034062285e-07
2.893897905e-07
2.7326124e-07
2.559542227e-07
2.377433722e-07
2.191690893e-07
2.009306254e-07
1.83264981e-07
1.664010382e-07
1.505854262e-07
1.359460942e-07
1.225141425e-07
1.103085527e-07
9.927718775e-08
8.937230669e-08
8.051244019e-08
7.256437372e-08
6.561391559e-08
5.944089917e-08
5.396989875e-08
4.908612899e-08
4.470117221e-08
4.079623354e-08
3.733501604e-08
3.426697997e-08
3.152083564e-08
2.907850212e-08
2.688880479e-08
2.490605132e-08
2.311357307e-08
2.147973914e-08
2.00041564e-08
1.867253888e-08
1.746698966e-08
1.636546143e-08
1.535152368e-08
1.44116511e-08
1.353513644e-08
1.272582049e-08
1.197574369e-08
1.128129831e-08
1.062550449e-08
1.001724693e-08
9.442590085e-09
8.896474596e-09
8.385149633e-09
7.898848843e-09
7.442352402e-09
7.014791896e-09
6.61609996e-09
6.242852774e-09
5.886330145e-09
5.54267866e-09
5.209875893e-09
4.893034124e-09
4.590179332e-09
4.302476734e-09
4.028331735e-09
3.763212759e-09
3.506135118e-09
3.257557563e-09
3.020848682e-09
2.796848703e-09
2.576887129e-09
2.362394249e-09
2.159600862e-09
1.970299763e-09
1.791128389e-09
1.61754452e-09
1.451229363e-09
1.301743289e-09
1.153453917e-09
1.016821896e-09
8.918200741e-10
7.744805469e-10
6.648516493e-10
5.697637598e-10
4.866972144e-10
4.082323023e-10
3.372537107e-10
2.540382011e-10
7.606389039e-10
1.513949866e-09
3.423422623e-09
5.967852542e-09
)


101
(
1.382723726e-10
1.26284591e-08
4.710471467e-08
9.238713098e-08
1.395237181e-07
1.838168004e-07
2.230980673e-07
2.563419455e-07
2.834358971e-07
3.046094458e-07
3.203196532e-07
3.307834846e-07
3.364073541e-07
3.377122756e-07
3.350536604e-07
3.288310535e-07
3.195105311e-07
3.076038167e-07
2.9334838e-07
2.776427288e-07
2.606873201e-07
2.4299631e-07
2.252927854e-07
2.078371317e-07
1.908753958e-07
1.747033761e-07
1.59507405e-07
1.453650328e-07
1.323367922e-07
1.2040266e-07
1.095470942e-07
9.97166299e-08
9.079350655e-08
8.290891218e-08
7.582866589e-08
6.950327182e-08
6.382271928e-08
5.868412787e-08
5.406064673e-08
4.991035421e-08
4.618576068e-08
4.281855378e-08
3.9809575e-08
3.710221405e-08
3.464598895e-08
3.242224975e-08
3.038515883e-08
2.853212517e-08
2.684595895e-08
2.531370129e-08
2.391176663e-08
2.26234913e-08
2.142827849e-08
2.030853647e-08
1.925893819e-08
1.828360362e-08
1.73805045e-08
1.652315656e-08
1.572503017e-08
1.497108541e-08
1.424882985e-08
1.356515024e-08
1.291354593e-08
1.229438662e-08
1.170689144e-08
1.115200526e-08
1.06372701e-08
1.014594159e-08
9.67427961e-09
9.211866889e-09
8.764006129e-09
8.329461894e-09
7.914268437e-09
7.516185656e-09
7.129622391e-09
6.74774404e-09
6.372238074e-09
6.009871433e-09
5.660881206e-09
5.316140912e-09
4.972234506e-09
4.641033869e-09
4.322047799e-09
4.019685273e-09
3.718414991e-09
3.416066086e-09
3.139834517e-09
2.865094344e-09
2.599935689e-09
2.353633515e-09
2.108629226e-09
1.877634597e-09
1.668013017e-09
1.478423924e-09
1.294548854e-09
1.114944182e-09
8.967978577e-10
2.296507932e-09
4.237679455e-09
8.378432938e-09
1.323292456e-08
)


101
(
1.377182666e-10
1.238214671e-08
4.627433098e-08
9.098339773e-08
1.37773197e-07
1.820279107e-07
2.216193424e-07
2.555408049e-07
2.836771764e-07
3.062287906e-07
3.236623225e-07
3.361314812e-07
3.43969682e-07
3.47655982e-07
3.474804461e-07
3.43767013e-07
3.369107208e-07
3.273497736e-07
3.152263948e-07
3.014002922e-07
2.859892266e-07
2.69469718e-07
2.525739476e-07
2.355734226e-07
2.187372083e-07
2.023961935e-07
1.867877101e-07
1.720407243e-07
1.582632226e-07
1.454698649e-07
1.336784221e-07
1.228651824e-07
1.129334967e-07
1.040764984e-07
9.603583695e-08
8.879023954e-08
8.224480385e-08
7.628950882e-08
7.088784312e-08
6.598893356e-08
6.154352347e-08
5.748127377e-08
5.382739445e-08
5.052837113e-08
4.753021281e-08
4.481382417e-08
4.231602483e-08
4.002973779e-08
3.793580348e-08
3.602731509e-08
3.427843058e-08
3.267363262e-08
3.118901429e-08
2.979569704e-08
2.847858392e-08
2.725815126e-08
2.611690424e-08
2.503402343e-08
2.401887556e-08
2.306736282e-08
2.215472311e-08
2.128278605e-08
2.044731059e-08
1.96460951e-08
1.888324316e-08
1.815472121e-08
1.747081309e-08
1.682755507e-08
1.621351241e-08
1.561126634e-08
1.502292304e-08
1.444336322e-08
1.388223721e-08
1.333992782e-08
1.281193156e-08
1.228648325e-08
1.176536766e-08
1.125685079e-08
1.075136579e-08
1.025186445e-08
9.749797678e-09
9.252213413e-09
8.764742897e-09
8.296135153e-09
7.821048767e-09
7.326537922e-09
6.860252033e-09
6.404025329e-09
5.949264949e-09
5.505470648e-09
5.055983255e-09
4.628932587e-09
4.222498854e-09
3.844537944e-09
3.475799685e-09
3.099771847e-09
2.642573425e-09
5.789867401e-09
9.971708003e-09
1.783822625e-08
2.703129115e-08
)


101
(
1.371641639e-10
1.213749472e-08
4.54501494e-08
8.959287194e-08
1.360474446e-07
1.802837355e-07
2.202161296e-07
2.548579605e-07
2.840885958e-07
3.080847335e-07
3.27324786e-07
3.419048072e-07
3.520833076e-07
3.582979395e-07
3.607762788e-07
3.597682519e-07
3.555978275e-07
3.486315178e-07
3.389178204e-07
3.272750464e-07
3.1372692e-07
2.987048882e-07
2.829346658e-07
2.666794434e-07
2.502349829e-07
2.339604642e-07
2.181378413e-07
2.029453424e-07
1.885420522e-07
1.749784432e-07
1.623073281e-07
1.505378202e-07
1.395980668e-07
1.297556586e-07
1.207244132e-07
1.125116682e-07
1.050436707e-07
9.82123336e-08
9.197816646e-08
8.628713037e-08
8.107412371e-08
7.625956732e-08
7.189290601e-08
6.793251585e-08
6.43246237e-08
6.105505925e-08
5.804633628e-08
5.528263313e-08
5.273674197e-08
5.041034586e-08
4.827389895e-08
4.631658309e-08
4.451421052e-08
4.282713118e-08
4.123197108e-08
3.974658714e-08
3.835596517e-08
3.703028244e-08
3.57875838e-08
3.462754038e-08
3.352290474e-08
3.246334455e-08
3.144622639e-08
3.04636097e-08
2.951947864e-08
2.862243293e-08
2.776828225e-08
2.696565358e-08
2.621022902e-08
2.547042368e-08
2.475058043e-08
2.403687508e-08
2.332952159e-08
2.263866476e-08
2.19637982e-08
2.129627222e-08
2.06277092e-08
1.996269173e-08
1.92976227e-08
1.862584182e-08
1.794013513e-08
1.72506914e-08
1.656296045e-08
1.588299036e-08
1.519968342e-08
1.447044921e-08
1.374071716e-08
1.303239374e-08
1.231717214e-08
1.159439724e-08
1.084949745e-08
1.013603499e-08
9.435845268e-09
8.756966413e-09
8.099285162e-09
7.411436398e-09
6.586844676e-09
1.278870918e-08
2.066443291e-08
3.381238643e-08
4.848795487e-08
)


101
(
1.366100613e-10
1.189450057e-08
4.463203052e-08
8.821493962e-08
1.343448306e-07
1.785808384e-07
2.188822828e-07
2.54284237e-07
2.846588006e-07
3.101623851e-07
3.312858111e-07
3.480789732e-07
3.607215231e-07
3.696106054e-07
3.749160487e-07
3.768157756e-07
3.755643921e-07
3.71457344e-07
3.644499185e-07
3.553183312e-07
3.439764768e-07
3.308084614e-07
3.165210114e-07
3.013518106e-07
2.85618775e-07
2.697007295e-07
2.53919841e-07
2.384997116e-07
2.23652163e-07
2.094612535e-07
1.960157077e-07
1.833624134e-07
1.71458722e-07
1.606547916e-07
1.506317522e-07
1.414279036e-07
1.329956958e-07
1.252404543e-07
1.181318371e-07
1.116202374e-07
1.056144869e-07
1.000136323e-07
9.488681963e-08
9.020758891e-08
8.592859e-08
8.204931143e-08
7.848497953e-08
7.521060938e-08
7.218543314e-08
6.941828421e-08
6.686459032e-08
6.452640186e-08
6.239249135e-08
6.040564887e-08
5.853176314e-08
5.677812797e-08
5.515164302e-08
5.359120784e-08
5.213392346e-08
5.077406227e-08
4.949892109e-08
4.827300099e-08
4.709582747e-08
4.596013869e-08
4.487104772e-08
4.382789458e-08
4.282668814e-08
4.188859904e-08
4.100324359e-08
4.015810568e-08
3.933961817e-08
3.853331769e-08
3.771514421e-08
3.690086833e-08
3.609418227e-08
3.529342124e-08
3.449734037e-08
3.370460018e-08
3.288489541e-08
3.204858418e-08
3.117337039e-08
3.028363676e-08
2.937066141e-08
2.844314693e-08
2.751462977e-08
2.651760345e-08
2.545953044e-08
2.441810015e-08
2.336133066e-08
2.228085185e-08
2.113294121e-08
2.002340286e-08
1.890439808e-08
1.781058718e-08
1.672778416e-08
1.559847542e-08
1.427267483e-08
2.50751679e-08
3.826034542e-08
5.811937349e-08
7.993771581e-08
)


101
(
1.360559582e-10
1.165316304e-08
4.381984009e-08
8.684900289e-08
1.326637545e-07
1.76915875e-07
2.176118454e-07
2.538106843e-07
2.853768486e-07
3.124480144e-07
3.355253899e-07
3.546307438e-07
3.698591568e-07
3.815678675e-07
3.898757398e-07
3.94891042e-07
3.968027595e-07
3.958356941e-07
3.918499079e-07
3.855838553e-07
3.768168373e-07
3.658885736e-07
3.534781392e-07
3.397850198e-07
3.251412821e-07
3.099320817e-07
2.945113253e-07
2.791408631e-07
2.640869867e-07
2.494695997e-07
2.35414439e-07
2.220046182e-07
2.092271731e-07
1.97528081e-07
1.86551345e-07
1.763683173e-07
1.669606763e-07
1.582572079e-07
1.502523037e-07
1.429078473e-07
1.361071206e-07
1.297170085e-07
1.23816179e-07
1.183850169e-07
1.133892273e-07
1.08855567e-07
1.046995383e-07
1.008906171e-07
9.737465227e-08
9.415740188e-08
9.117853398e-08
8.845474366e-08
8.599414786e-08
8.372086428e-08
8.159526855e-08
7.961176012e-08
7.778437249e-08
7.603648841e-08
7.439537148e-08
7.287387327e-08
7.147531087e-08
7.01418709e-08
6.885553145e-08
6.762968895e-08
6.646591402e-08
6.533559998e-08
6.425811928e-08
6.32299199e-08
6.228199329e-08
6.138616738e-08
6.052528687e-08
5.969156831e-08
5.883769269e-08
5.797022248e-08
5.708452272e-08
5.618227825e-08
5.529857748e-08
5.440718887e-08
5.347462766e-08
5.250379163e-08
5.144236672e-08
5.034071927e-08
4.919630583e-08
4.799629642e-08
4.675602921e-08
4.544300753e-08
4.401761901e-08
4.25385928e-08
4.104356595e-08
3.951518416e-08
3.782957906e-08
3.620881219e-08
3.449389408e-08
3.283794984e-08
3.118043042e-08
2.946111161e-08
2.742824854e-08
4.433926029e-08
6.426628848e-08
9.19800815e-08
1.226791403e-07
)


101
(
1.355018551e-10
1.141348297e-08
4.301345097e-08
8.54944831e-08
1.310026408e-07
1.752855297e-07
2.163990251e-07
2.534285309e-07
2.862321831e-07
3.14928868e-07
3.400260237e-07
3.615372899e-07
3.794719919e-07
3.941455345e-07
4.056337979e-07
4.139778861e-07
4.193041847e-07
4.21769769e-07
4.211355829e-07
4.18102573e-07
4.123060415e-07
4.040393402e-07
3.939493399e-07
3.821746462e-07
3.690570731e-07
3.549772979e-07
3.403036079e-07
3.253246387e-07
3.103630085e-07
2.955811011e-07
2.811483881e-07
2.671773596e-07
2.536720696e-07
2.411957421e-07
2.293502268e-07
2.182450759e-07
2.078912071e-07
1.982476015e-07
1.89350362e-07
1.811823105e-07
1.736124001e-07
1.664598807e-07
1.598059345e-07
1.536296956e-07
1.479079238e-07
1.426995914e-07
1.379305603e-07
1.335830214e-07
1.295808211e-07
1.259242369e-07
1.225474069e-07
1.194659636e-07
1.167025015e-07
1.141852936e-07
1.118656689e-07
1.097212005e-07
1.077681976e-07
1.059184726e-07
1.041767917e-07
1.025700017e-07
1.011123016e-07
9.976611978e-08
9.847522328e-08
9.727432617e-08
9.614462533e-08
9.503841997e-08
9.398293264e-08
9.297705794e-08
9.206838239e-08
9.12108551e-08
9.039787766e-08
8.963090301e-08
8.883660643e-08
8.802694503e-08
8.716257367e-08
8.621753419e-08
8.527371061e-08
8.431256755e-08
8.332527785e-08
8.224415595e-08
8.101803516e-08
7.970071934e-08
7.827858051e-08
7.677414816e-08
7.517605058e-08
7.344435024e-08
7.15569938e-08
6.95320419e-08
6.743275777e-08
6.531035068e-08
6.291122021e-08
6.059603212e-08
5.81080239e-08
5.56750494e-08
5.326046363e-08
5.073164e-08
4.773745772e-08
7.212880182e-08
9.993085536e-08
1.362931077e-07
1.740495922e-07
)


101
(
1.349477528e-10
1.117546303e-08
4.221274323e-08
8.415081497e-08
1.293599582e-07
1.736865871e-07
2.152382016e-07
2.531291519e-07
2.872144989e-07
3.175930167e-07
3.447720884e-07
3.687764448e-07
3.895363251e-07
4.073209422e-07
4.221703942e-07
4.340620476e-07
4.43059848e-07
4.492578109e-07
4.52316624e-07
4.528911431e-07
4.504887736e-07
4.453424623e-07
4.380690331e-07
4.287102268e-07
4.17615762e-07
4.051573673e-07
3.916909877e-07
3.775179797e-07
3.63020187e-07
3.484067159e-07
3.338931828e-07
3.196215574e-07
3.056034139e-07
2.925296515e-07
2.799604944e-07
2.680508326e-07
2.568373315e-07
2.463070917e-07
2.365541758e-07
2.276021507e-07
2.193072883e-07
2.11449879e-07
2.041115019e-07
1.972445997e-07
1.908268067e-07
1.849596694e-07
1.795938694e-07
1.747364575e-07
1.702767346e-07
1.662243386e-07
1.625123891e-07
1.591434074e-07
1.561369956e-07
1.534557713e-07
1.510290532e-07
1.488144294e-07
1.468589601e-07
1.450444371e-07
1.433388538e-07
1.417698159e-07
1.403841426e-07
1.391574001e-07
1.38025005e-07
1.370148989e-07
1.360574866e-07
1.351664855e-07
1.342967046e-07
1.33456086e-07
1.327137868e-07
1.320190583e-07
1.313914411e-07
1.308021856e-07
1.301921146e-07
1.29559468e-07
1.288384466e-07
1.27958835e-07
1.269717982e-07
1.259824223e-07
1.249301377e-07
1.237571777e-07
1.223923806e-07
1.208243849e-07
1.190311781e-07
1.171306273e-07
1.150528577e-07
1.127728405e-07
1.102457734e-07
1.075055241e-07
1.045571363e-07
1.015935537e-07
9.826019237e-08
9.494926943e-08
9.144682923e-08
8.793520959e-08
8.448699033e-08
8.088728557e-08
7.667137521e-08
1.095390005e-07
1.45975117e-07
1.919598001e-07
2.394862418e-07
)


101
(
1.343936497e-10
1.093910569e-08
4.141770848e-08
8.281743911e-08
1.277341956e-07
1.72115922e-07
2.141239209e-07
2.529040723e-07
2.883129179e-07
3.204283813e-07
3.497495441e-07
3.763274875e-07
4.000291364e-07
4.21071778e-07
4.394654278e-07
4.551286993e-07
4.680606794e-07
4.782985482e-07
4.854050303e-07
4.899664721e-07
4.91408185e-07
4.898763941e-07
4.859611947e-07
4.795703234e-07
4.710504647e-07
4.607701054e-07
4.490509593e-07
4.361855977e-07
4.226127359e-07
4.085870152e-07
3.94362631e-07
3.801167765e-07
3.658749983e-07
3.524562532e-07
3.393785207e-07
3.268539964e-07
3.149397189e-07
3.036392664e-07
2.931085144e-07
2.834359703e-07
2.744902934e-07
2.660223839e-07
2.581049476e-07
2.506543769e-07
2.43631914e-07
2.371773606e-07
2.312732832e-07
2.259660874e-07
2.2112758e-07
2.167713982e-07
2.128247743e-07
2.092832142e-07
2.061519175e-07
2.034255718e-07
2.010332209e-07
1.988971606e-07
1.971028421e-07
1.954965646e-07
1.940354438e-07
1.927049394e-07
1.915767719e-07
1.906481768e-07
1.898869819e-07
1.892778161e-07
1.88718714e-07
1.882612962e-07
1.877774832e-07
1.873079208e-07
1.869095272e-07
1.86577148e-07
1.862897526e-07
1.860042467e-07
1.857015888e-07
1.853539074e-07
1.848721163e-07
1.841706993e-07
1.832555084e-07
1.821951957e-07
1.810297065e-07
1.797250532e-07
1.781837552e-07
1.76259278e-07
1.739871717e-07
1.71493706e-07
1.687300664e-07
1.656573163e-07
1.621882273e-07
1.584464934e-07
1.543063023e-07
1.501270753e-07
1.455404772e-07
1.408050445e-07
1.358927693e-07
1.309186041e-07
1.26008161e-07
1.20959847e-07
1.15112657e-07
1.573725937e-07
2.032207894e-07
2.604343233e-07
3.193153076e-07
)


101
(
1.338395466e-10
1.070441609e-08
4.062813144e-08
8.149381861e-08
1.261238904e-07
1.705705066e-07
2.130509026e-07
2.52745042e-07
2.895154413e-07