/*--------------------------------*- C++ -*----------------------------------*\
| =========                 |                                                 |
| \\      /  F ield         | OpenFOAM: The Open Source CFD Toolbox           |
|  \\    /   O peration     | Version:  2.3.1                                 |
|   \\  /    A nd           | Web:      www.OpenFOAM.org                      |
|    \\/     M anipulation  |                                                 |
\*---------------------------------------------------------------------------*/
FoamFile
{
    version     2.0;
    format      ascii;
    class       dictionary;
    location    "constant";
    object      la_i20;
}
// * * * * * * * * * * * * * * * * * * * * * * * * * * * * * * * * * * * * * //

la_i20_table
101
(

101
(
0
0
0
0
0
0
0
0
0
0
0
0
0
0
0
0
0
0
0
0
0
0
0
0
0
0
0
0
0
0
0
0
0
0
0
0
0
0
0
0
0
0
0
0
0
0
0
0
0
0
0
0
0
0
0
0
0
0
0
0
0
0
0
0
0
0
0
0
0
0
0
0
0
0
0
0
0
0
0
0
0
0
0
0
0
0
0
0
0
0
0
0
0
0
0
0
0
0
0
0
-0.01885078652
)


101
(
0
0.0006296177703
0.001009090054
0.01594132589
0.06464735611
0.1700526868
0.3535412813
0.6426361182
1.059704809
1.629125123
2.37036458
3.316951512
4.508270483
5.984658816
7.759582026
9.8126378
12.06945133
14.38808913
16.6124477
18.50354357
19.95822042
20.88653213
21.25616213
21.13263912
20.56956524
19.66759905
18.49292297
17.12401515
15.65883676
14.18625717
12.77458607
11.42608686
10.0696158
8.77273995
7.510051659
6.314544579
5.364855312
4.719136379
4.083599819
3.450630699
2.796897916
2.123713379
1.473051407
0.8558903218
0.3141147396
-0.1289226513
-0.4842296158
-0.7651113092
-0.9925641102
-1.220678585
-1.477757735
-1.775298866
-2.057399144
-2.269486013
-2.387761879
-2.432237591
-2.452481691
-2.467189339
-2.472692
-2.466121588
-2.462066433
-2.467096258
-2.468867772
-2.446514846
-2.392898873
-2.325380011
-2.269631575
-2.22899113
-2.182322194
-2.080647515
-1.862627815
-1.538197821
-1.275919868
-1.280665236
-1.514416039
-1.605000388
-1.333059828
-1.01344422
-0.9156395415
-0.9431658559
-0.8881154351
-0.6722625393
-0.6246906724
-0.6169389138
-0.463505976
-0.3705331822
-0.3446133068
-0.2806731498
-0.2189555689
-0.2374778185
-0.12342049
-0.09231947435
-0.08867831916
-0.04400831508
-0.02486310754
-0.002877349401
-0.004533396445
-0.004714552744
-0.004889848401
-0.005466175818
-0.006047302148
)


101
(
0
-0.000283070858
-0.0008254195987
0.01263334471
0.05823758097
0.1578453839
0.3293752583
0.5971017372
0.9823791138
1.504613402
2.182348601
3.044663366
4.136488725
5.506214787
7.18067699
9.143806579
11.33686992
13.64671275
15.87899923
17.83418848
19.31907527
20.29668681
20.73352054
20.69544083
20.25091232
19.47700411
18.44222485
17.19653719
15.8200403
14.41568238
13.09408982
11.90053024
10.73307395
9.517822682
8.236693058
6.969427786
5.891137998
5.193789036
4.720473381
4.304119976
3.848080022
3.27639935
2.622662264
1.940123144
1.328850215
0.8316238733
0.4582222262
0.2038279564
0.04005561967
-0.09277451468
-0.2779257139
-0.5828563868
-0.9743797928
-1.325507781
-1.545415972
-1.617560719
-1.621532442
-1.622913377
-1.623199544
-1.614074194
-1.606817743
-1.628188666
-1.679267277
-1.723782019
-1.729587585
-1.703527937
-1.680626458
-1.686339587
-1.71538293
-1.714600884
-1.565155992
-1.200020167
-0.7574212902
-0.6109446856
-0.9393813364
-1.355731934
-1.267767388
-0.8497270635
-0.6319860949
-0.7092731316
-0.7828527142
-0.5619376124
-0.481121911
-0.4874194198
-0.4788850588
-0.3569841171
-0.2702795699
-0.2531815495
-0.1983682967
-0.170641027
-0.1694496729
-0.09111009172
-0.07892246013
-0.07045783613
-0.0175008014
-0.003944729947
-0.01351141475
-0.01381460415
-0.01403725739
-0.014632367
-0.01530054153
)


101
(
0
-0.001137879268
-0.002661912658
0.009366979426
0.05232221227
0.1463844639
0.3064283117
0.5541907943
0.9094729926
1.388940209
2.007496239
2.789548897
3.787367159
5.053730055
6.62705859
8.507514899
10.63732465
12.92791624
15.17474063
17.21121461
18.76914029
19.78140292
20.31039742
20.34920578
20.01981829
19.374654
18.48356956
17.37548573
16.10711527
14.76917962
13.49341238
12.38898945
11.4179995
10.3696852
9.181389036
7.855778622
6.618821307
5.732743398
5.243844608
5.001668503
4.747962079
4.325984289
3.740524192
3.045039601
2.340111526
1.745212302
1.311643338
1.011959673
0.8335053144
0.7488379811
0.6524251056
0.4352551443
0.04675211441
-0.415747837
-0.7809455141
-0.9704584663
-1.013827391
-1.021985495
-1.027729413
-1.026018936
-1.020583818
-1.035755699
-1.092362051
-1.17244268
-1.236308191
-1.264315603
-1.280112209
-1.308751215
-1.365357947
-1.422736461
-1.359982841
-1.053510937
-0.580804636
-0.3088957471
-0.5338638279
-1.035855809
-1.154046749
-0.8235889988
-0.5335264465
-0.5592330338
-0.6907511617
-0.5061250302
-0.4146746536
-0.3867266994
-0.4080669819
-0.3804448287
-0.2827749212
-0.2210671224
-0.1918598631
-0.1774644641
-0.1595505087
-0.1387618487
-0.07763528832
-0.07438439395
-0.02468224885
-0.00299801488
-0.03011255897
-0.02929203454
-0.02806678057
-0.02770643456
-0.02638224156
)


101
(
0
-0.002038750204
-0.00450734865
0.006131198156
0.04653002973
0.1353861391
0.2846881642
0.5137464174
0.8410235066
1.281070386
1.844713795
2.554366168
3.455421497
4.620438544
6.091282644
7.878370641
9.945804979
12.20940728
14.4770625
16.57772207
18.24876258
19.35598906
19.94478723
20.08539364
19.86543949
19.35146915
18.599267
17.63522821
16.48837926
15.22884313
13.98869253
12.91841731
12.03429805
11.20497914
10.15795059
8.855967316
7.517971084
6.449195189
5.841591376
5.580701118
5.502200315
5.278658066
4.799898253
4.132086422
3.375865608
2.67152868
2.112730027
1.736808389
1.517347833
1.393812399
1.329999904
1.206239227
0.912897653
0.4527219486
-0.009591446747
-0.3347843589
-0.4812174637
-0.5315164003
-0.5645291613
-0.5809798711
-0.5898249975
-0.609305247
-0.6607440024
-0.7418227435
-0.8308681275
-0.9065873128
-0.9698594446
-1.02800444
-1.096434323
-1.168601952
-1.146121043
-0.8896695797
-0.4428862478
-0.1552220107
-0.3163954629
-0.7732699578
-0.9568986423
-0.7451014669
-0.4964532942
-0.4839685624
-0.6000083579
-0.4413969456
-0.3793666336
-0.3465541299
-0.35880402
-0.3424350024
-0.3173773708
-0.2392529459
-0.1773247602
-0.1743509262
-0.151308367
-0.1411768466
-0.113589833
-0.07910373207
-0.03138252962
-0.001615779949
-0.04159750665
-0.03832191008
-0.03593599454
-0.04954430566
-0.06655450226
)


101
(
0
-0.002912992425
-0.006320628677
0.002922642485
0.04085558371
0.1248228427
0.2641358044
0.475608403
0.7767390079
1.180095098
1.693035568
2.334338534
3.147841892
4.213491683
5.59082209
7.288077331
9.283779049
11.51742956
13.81787963
15.99497148
17.77346468
18.99594519
19.68630567
19.92575726
19.80337464
19.40592602
18.78137479
17.9614199
16.94811988
15.78188755
14.57554585
13.50601675
12.69396544
11.99674659
11.14606645
10.00627687
8.628893165
7.34725727
6.498470181
6.161477418
6.116252733
6.057178167
5.764593349
5.163502981
4.404771525
3.632717777
2.968235066
2.485084001
2.165023524
1.969501146
1.875708731
1.78735263
1.577005828
1.202493074
0.7325457288
0.3426707838
0.08528013965
-0.03607288738
-0.1136116684
-0.1647955504
-0.1995808633
-0.2393159061
-0.3005660846
-0.3816119667
-0.4706016991
-0.5699170972
-0.6756575673
-0.7744796605
-0.8648064013
-0.939737552
-0.928053385
-0.6963364622
-0.2681098475
0.002321282436
-0.1683084577
-0.5978154712
-0.7607372411
-0.5966183426
-0.42061645
-0.4476365575
-0.5459191149
-0.3651200504
-0.3281492029
-0.3074838754
-0.3214279054
-0.3004937024
-0.3034890898
-0.2570575107
-0.1878739751
-0.1689755289
-0.1512569809
-0.1377796929
-0.1303190678
-0.08903816776
-0.03368596152
0.001732582821
-0.05443126628
-0.06747221873
-0.08169772839
-0.09750629277
-0.1101496033
)


101
(
0
-0.003735165661
-0.008141585424
-0.0002529699206
0.03529850654
0.1147000761
0.2446560724
0.4397165265
0.7164656722
1.085755322
1.55280998
2.130466795
2.863232731
3.83186042
5.111901464
6.723196843
8.642757685
10.84100222
13.13837836
15.40211149
17.30868969
18.65158263
19.46525026
19.80022597
19.78846775
19.5140208
19.02464862
18.34603982
17.47799505
16.432657
15.28958985
14.20038757
13.3438794
12.74391394
12.09500271
11.1403488
9.82903958
8.466252901
7.412056241
6.857144803
6.750031573
6.770418844
6.612304662
6.149041551
5.414179865
4.599909922
3.868088276
3.303649496
2.905867322
2.629386017
2.425350738
2.285941632
2.127419943
1.827541845
1.410323479
1.014379583
0.7133385575
0.5240397478
0.403748934
0.3078296538
0.2350230007
0.1665856722
0.07513889173
-0.02152068237
-0.1142933542
-0.2172109232
-0.3497015602
-0.4937324511
-0.6238745137
-0.7138358555
-0.7048423956
-0.486087239
-0.07357503508
0.1777845037
-0.03389795533
-0.4875059575
-0.6329238931
-0.4654850332
-0.3216058112
-0.4035867899
-0.5415566009
-0.3253102121
-0.2900471018
-0.2760637379
-0.290311695
-0.256992144
-0.2940297415
-0.2646900937
-0.2271237373
-0.1698739554
-0.1767246136
-0.1614227528
-0.1432915456
-0.1066187874
-0.02911463179
-0.008680185507
-0.0775043009
-0.09594555842
-0.1223725702
-0.2122991935
-0.3100924406
)


101
(
0
-0.004593938482
-0.009952030165
-0.003398063811
0.02984607588
0.1049530066
0.2262639765
0.4060193963
0.6600572645
0.9981412607
1.423005342
1.943489323
2.599623486
3.47522287
4.655023835
6.177118402
8.022547462
10.16847895
12.48790216
14.78170576
16.83420237
18.36313958
19.28959329
19.74471111
19.85381114
19.69679632
19.32896583
18.7837632
18.05852896
17.14405446
16.08694288
15.02398463
14.12820034
13.49209562
12.98016581
12.24413522
11.12439561
9.753208482
8.499092986
7.743794348
7.462037502
7.476173542
7.438577144
7.116198702
6.467528097
5.631702562
4.815213494
4.164588447
3.711575884
3.421052492
3.16038094
2.91161485
2.682285194
2.419155226
2.048397846
1.6619017
1.366522733
1.152940322
1.005984222
0.8737896739
0.7601427814
0.6540734131
0.5218637749
0.3845522573
0.2688867303
0.1638946677
0.02312578801
-0.1569740711
-0.3410647165
-0.4734687623
-0.4814318725
-0.2733794316
0.1257365307
0.3602147655
0.1071169403
-0.4003675474
-0.5617014457
-0.3854656603
-0.2474020554
-0.3649535231
-0.5501280334
-0.3122127352
-0.2796334899
-0.2956323748
-0.3213063792
-0.2975219786
-0.3131560664
-0.2910065761
-0.276634252
-0.2223087039
-0.1991465395
-0.2052516775
-0.1763663697
-0.1577575556
-0.05329422075
-0.03053637429
-0.1053527434
-0.1714777255
-0.2624057619
-0.5341784951
-0.8480062874
)


101
(
0
-0.005428542435
-0.01173409325
-0.006506145949
0.02450756167
0.09558162526
0.2088737266
0.3743797571
0.6072477922
0.9165849017
1.302784993
1.771174961
2.357667559
3.149892395
4.233987822
5.661571091
7.432179027
9.522387255
11.82750523
14.1977104
16.35703112
18.02467802
19.13040758
19.7317685
19.95479724
19.91771129
19.67773173
19.2660427
18.68669859
17.91838837
16.97549386
15.95223983
15.02376779
14.34367193
13.86414976
13.31004983
12.40107921
11.13104525
9.838253927
8.874929871
8.364531245
8.296335644
8.271127807
8.05846258
7.53783147
6.76194205
5.911744683
5.172733252
4.628197403
4.277065109
4.029190925
3.771022293
3.437041213
3.095795347
2.731064745
2.32875128
2.034585714
1.817480646
1.662803246
1.512958889
1.367616734
1.219106658
1.040632157
0.8408837159
0.6716702962
0.5468746253
0.4063270319
0.2145871378
-0.01787080028
-0.2182405366
-0.2802635378
-0.1027921369
0.2785062797
0.4992793281
0.2164712217
-0.3520970151
-0.5609651439
-0.3867689405
-0.2320040077
-0.3824203121
-0.6457233882
-0.4147844344
-0.3620681208
-0.4062323912
-0.4489667053
-0.4369226217
-0.4071250617
-0.4380030194
-0.3883969919
-0.3737309886
-0.317196963
-0.3345444632
-0.3037959925
-0.2730479288
-0.1427120508
-0.1078934942
-0.2014661741
-0.3930734169
-0.643725296
-1.289742696
-2.148624331
)


101
(
0
-0.00622060423
-0.01352061884
-0.009583968441
0.01925980759
0.08656401534
0.1924672305
0.3447602545
0.5580144787
0.8408453453
1.192421573
1.614481608
2.135742103
2.845285899
3.836231413
5.17151759
6.863655529
8.890870105
11.16749913
13.57229055
15.84988563
17.70890353
18.97989049
19.72708215
20.08224013
20.181231
19.7668563
19.79816856
19.35686963
18.73690287
17.92807479
16.9916298
16.0599127
15.3167928
14.7955574
14.33747828
13.66077519
12.59821808
11.32297057
10.23852958
9.564368878
9.295740822
9.247108378
9.115811815
8.683895825
7.968778724
7.108807326
6.320023012
5.718975355
5.291230042
4.997449452
4.727426275
4.418477309
3.996165719
3.5428461
3.124578565
2.767096356
2.515793127
2.338486808
2.187284923
2.011012168
1.82328773
1.597325151
1.321539351
1.057048372
0.8646335383
0.7139435434
0.5244684353
0.2720062824
0.005804538779
-0.1451615015
-0.04228860602
0.2953078854
0.498243501
0.193254897
-0.4355145544
-0.7222688931
-0.5977077373
-0.4320369069
-0.5663758417
-0.9109961973
-0.7550020712
-0.6987655724
-0.7379026327
-0.7971285578
-0.8226129227
-0.7533795535
-0.8207011402
-0.7722381386
-0.7474927418
-0.6357641897
-0.6572180665
-0.6362709718
-0.578605377
-0.4234960481
-0.360093843
-0.4224093127
-0.9419535196
-1.572264924
-2.912897172
-3.935154127
)


101
(
0
-0.007035288183
-0.01527835085
-0.01261685179
0.01412429818
0.07790125653
0.1769695665
0.3170124576
0.5121451297
0.7705292877
1.091058799
1.470664514
1.935665915
2.565017766
3.466851334
4.713908101
6.323868022
8.27137762
10.54109029
12.93882837
15.31411934
17.3473513
18.8133526
19.74579063
20.24540033
20.46958536
20.50611556
20.36619712
20.06589609
19.59510398
18.93492624
18.11106052
17.23312287
16.45032453
15.8731193
15.43462148
14.90569759
14.05679523
12.92852881
11.81935578
10.98558905
10.51802928
10.39098819
10.24765862
9.921908854
9.325652534
8.499585284
7.621335617
6.964291602
6.462036064
6.120480194
5.81930489
5.482527899
5.071435067
4.556258414
4.052194723
3.595706185
3.269259626
3.043911758
2.850667483
2.645227146
2.40903079
2.133326912
1.780685686
1.401414266
1.080230336
0.8496724879
0.6424585789
0.3828062229
0.07373885276
-0.1761265959
-0.1942108515
0.04926883045
0.2054484076
-0.1290272955
-0.8144036072
-1.18870512
-1.160668398
-1.064900955
-1.196703346
-1.571102533
-1.527498025
-1.516111142
-1.528166593
-1.568419357
-1.688398782
-1.616679355
-1.645620687
-1.65762691
-1.580206562
-1.478257245
-1.461693922
-1.415693261
-1.303844693
-1.106028399
-1.013042921
-1.055886034
-2.109579498
-3.455268588
-6.370370266
-10.44924189
)


101
(
0
-0.007828767704
-0.01702248251
-0.01561073987
0.009084278731
0.0695577926
0.1623537665
0.2911174179
0.4695085851
0.7054708132
0.9980535583
1.340622086
1.754532702
2.313055571
3.128474377
4.286076878
5.807238208
7.692926908
9.892188692
12.31820817
14.76490729
16.92001879
18.60170231
19.7245561
20.39895673
20.76950507
20.95297281
20.96367684
20.80870603
20.48679286
19.9822502
19.29965409
18.50207183
17.73481335
17.10239922
16.62931314
16.17642347
15.55094967
14.62043331
13.54578306
12.65566322
12.05830946
11.76274583
11.58321108
11.28239096
10.7375193
9.995802088
9.168676681
8.364321634
7.768196042
7.341041002
7.004290624
6.657953044
6.217342511
5.691855189
5.109037934
4.548763316
4.096421165
3.77046923
3.501234845
3.228648028
2.926390713
2.577737718
2.153639279
1.656757014
1.159328671
0.7595457597
0.4516775662
0.1504874983
-0.2003434767
-0.5434094182
-0.7182274897
-0.6345466754
-0.5808674015
-0.9776153008
-1.737513851
-2.213406791
-2.298628654
-2.337459203
-2.562996023
-2.962385033
-3.030032013
-3.146037422
-3.17822416
-3.15848923
-3.364195348
-3.370419975
-3.348067697
-3.333803851
-3.317112938
-3.13440543
-3.095470231
-2.998627008
-2.867664492
-2.564382299
-2.404065869
-2.362281971
-4.656638332
-7.439159253
-12.32730348
-17.1642724
)


101
(
0
-0.00858860063
-0.01874634672
-0.01855885212
0.004144595108
0.06151982974
0.1485708727
0.2669626935
0.4298760687
0.6454365986
0.912821515
1.223291575
1.590946363
2.086222526
2.823078169
3.886162942
5.322882425
7.132038262
9.283382556
11.67013977
14.17325013
16.49063537
18.34797685
19.67079521
20.54110562
21.08513272
21.41320527
21.57408975
21.57361079
21.40710836
21.06208923
20.53518651
19.86627825
19.15840293
18.50927075
17.99090207
17.55227199
17.0484302
16.31614571
15.40433232
14.5207895
13.79970952
13.3379087
13.07807631
12.7733117
12.31092883
11.62089043
10.78863729
9.991269241
9.295853326
8.729991816
8.275793374
7.870484357
7.423030339
6.856775281
6.228663111
5.589661689
4.978168939
4.493778893
4.108403335
3.727082715
3.313423342
2.863132477
2.347436387
1.723197029
1.040451241
0.3981374362
-0.1272475601
-0.5719007167
-1.019307096
-1.476656411
-1.836578449
-1.984135738
-2.122529414
-2.651971451
-3.534109359
-4.155542808
-4.391331476
-4.605388684
-5.018737017
-5.507701228
-5.665653672
-5.977126086
-6.145203336
-6.133181438
-6.352182915
-6.5100536
-6.521880976
-6.380492085
-6.469743368
-6.31238359
-6.153518517
-5.9214457
-5.747742614
-5.355852244
-5.110388453
-4.943048591
-8.913854273
-13.78210448
-21.56335783
-32.11750854
)


101
(
0
-0.009357053475
-0.02044587988
-0.02145835148
-0.0006930181886
0.05377829412
0.1355741722
0.2444777128
0.3931670528
0.5902023286
0.834813768
1.116938804
1.446274134
1.88425057
2.543246633
3.518574828
4.870585531
6.595535705
8.689705946
11.05090822
13.56918995
15.98092996
18.02250121
19.55844046
20.6331602
21.35762254
21.85117108
22.18507301
22.35259521
22.34690791
22.16375261
21.8024557
21.27876808
20.67693053
20.06768203
19.52129827
19.05321202
18.59842055
18.07120351
17.32545262
16.51189466
15.76715317
15.18005855
14.79898718
14.44385755
13.96081156
13.33449889
12.58561085
11.72050922
10.95632542
10.30444551
9.721435285
9.175347755
8.629837973
8.023928194
7.339353792
6.613319119
5.876204045
5.200558106
4.619038369
4.072327323
3.500665376
2.881688068
2.219173973
1.463325261
0.5764344612
-0.3453496357
-1.194785089
-1.926312939
-2.591809936
-3.242569409
-3.839167579
-4.292506295
-4.741552186
-5.530185134
-6.629694938
-7.465185188
-7.928703966
-8.38754436
-9.079214595
-9.782860597
-10.05312547
-10.5787799
-11.01594707
-11.13739879
-11.33974415
-11.68145329
-11.78397949
-11.63959632
-11.71975778
-11.59260301
-11.36672784
-11.02219423
-10.71686167
-10.19475222
-9.847710209
-9.345014446
-15.69743186
-23.45791332
-34.21356759
-51.17466578
)


101
(
0
-0.01010614466
-0.02212591619
-0.02430835557
-0.00543490623
0.04630545342
0.1233325553
0.2235760594
0.3592707006
0.5393104839
0.7637527912
1.021983195
1.317110218
1.705359247
2.292514397
3.187433044
4.446371516
6.09647961
8.104372159
10.43061492
12.94759475
15.45389982
17.65391177
19.3923707
20.66582471
21.59040845
22.27022613
22.78233635
23.12826049
23.29508238
23.28060124
23.0877043
22.72975274
22.26164195
21.73708107
21.20808382
20.7234561
20.27351096
19.83980342
19.27225879
18.62152936
17.87138486
17.22633786
16.69530958
16.26316127
15.79157673
15.16518598
14.40934381
13.61441804
12.7772755
11.97707562
11.30382448
10.60952679
9.90473115
9.200788721
8.407151917
7.556237235
6.680724631
5.802606358
4.979797979
4.193390666
3.389686268
2.523061659
1.615315963
0.6492704462
-0.4554670784
-1.699919159
-2.951682477
-4.114545828
-5.161365312
-6.143893176
-7.078920199
-7.919543136
-8.794017157
-10.01106506
-11.50400524
-12.68370912
-13.46601294
-14.26164815
-15.34231856
-16.43638836
-16.95179695
-17.69021239
-18.48442903
-18.90570446
-19.1313835
-19.64040166
-19.88809964
-19.8336625
-19.83665101
-19.79705071
-19.3984656
-19.12337786
-18.59636815
-17.93784781
-17.37111745
-16.67492713
-26.13046676
-37.37613231
-50.70055716
-52.48668055
)


101
(
0
-0.01083145158
-0.02377904055
-0.02710441986
-0.01007582197
0.03909511483
0.1118016948
0.2041806526
0.3280587852
0.4926287827
0.6992215251
0.9365919378
1.203625977
1.548518547
2.07176602
2.889577136
4.059602176
5.61898632
7.565366177
9.820960387
12.31650521
14.87991613
17.21160458
19.15489394
20.63803016
21.75567464
22.62994461
23.32582994
23.86723341
24.2258763
24.3944907
24.37819209
24.19152483
23.88018638
23.4774601
23.01944892
22.54776252
22.10644364
21.69734849
21.27053305
20.73723074
20.11853136
19.4599634
18.84427131
18.28241537
17.72223858
17.09452871
16.37284061
15.53625853
14.6960599
13.82555708
12.95908047
12.12881045
11.25296763
10.351761
9.414985636
8.400516005
7.30947042
6.194524401
5.071906403
3.97256845
2.839525416
1.632108978
0.3633588278
-0.9536996463
-2.375256523
-3.987453489
-5.717651526
-7.426542786
-9.036614445
-10.53440015
-11.96007501
-13.30367703
-14.70041138
-16.48396059
-18.59234159
-20.34849505
-21.60551015
-22.81705931
-24.36760477
-26.01588608
-27.003206
-28.02975258
-29.17539622
-30.05980162
-30.43051921
-31.01891116
-31.51138917
-31.56602583
-31.47907973
-31.59646903
-30.87080753
-30.67466258
-30.00842437
-29.12641741
-28.53251678
-27.88588409
-39.97346385
-54.36866032
-70.21771712
-102.1705288
)


101
(
0
-0.01155015825
-0.02539174231
-0.02983418741
-0.01459839487
0.03216263271
0.1010144611
0.1861653542
0.299302768
0.449925896
0.6404932595
0.8601728696
1.104410581
1.412514317
1.879978761
2.616769627
3.70935478
5.179363257
7.03951753
9.238365333
11.69905569
14.25913731
16.71878607
18.82515977
20.52703102
21.85441691
22.92683647
23.82035974
24.56084634
25.12553188
25.49156158
25.65903722
25.64549495
25.50199532
25.24590598
24.9012106
24.49771162
24.05368694
23.63101391
23.29860715
22.90344113
22.43422415
21.83829781
21.15829507
20.47127857
19.82896346
19.15250369
18.39293922
17.56396339
16.65511387
15.69354561
14.72243844
13.70306963
12.62304525
11.4838935
10.29996744
9.075508225
7.731746405
6.290273743
4.785953084
3.259712367
1.688148453
0.02733382103
-1.736194736
-3.566845222
-5.486207035
-7.576909723
-9.876770907
-12.25934242
-14.58436933
-16.78986642
-18.89163067
-20.90303932
-22.93511508
-25.36240539
-28.24599789
-30.82740609
-32.81192758
-34.56828102
-36.60522289
-38.85029468
-40.50024421
-41.99118494
-43.43622814
-44.84126155
-45.56699999
-46.13250853
-46.8445111
-47.12028556
-46.95832171
-47.11302321
-46.21055616
-45.78404528
-45.09827363
-44.00154232
-43.29985827
-42.26501523
-56.88360334
-73.72178844
-90.30022243
-107.4751163
)


101
(
0
-0.01225161894
-0.0269837874
-0.03250653003
-0.01902523124
0.02546026776
0.09088303871
0.1695135988
0.2729811967
0.4110115876
0.5873067786
0.7921973591
1.01748064
1.295203438
1.714320709
2.381037568
3.388350282
4.775588043
6.552870474
8.669815485
11.08240427
13.6508369
16.1628153
18.42642714
20.32949035
21.87796564
23.14325255
24.22741624
25.17261932
25.95776455
26.54003848
26.9024646
27.07335524
27.10266249
27.01341863
26.814588
26.50603151
26.12254212
25.72825789
25.38786939
25.09288608
24.75145057
24.27749922
23.63389468
22.87681547
22.08929323
21.32532685
20.5184215
19.62427905
18.66877805
17.61066153
16.46609758
15.25430949
13.94437879
12.53504691
11.04882363
9.472458088
7.79025822
5.965397598
3.99775603
1.920710118
-0.2306072618
-2.486214952
-4.888939354
-7.414005127
-10.02797868
-12.80025768
-15.79203564
-18.96964145
-22.15842091
-25.24273404
-28.19973611
-31.05439881
-33.87285388
-37.01191779
-40.67915776
-44.21796614
-47.17878026
-49.69509236
-52.25236588
-54.9971853
-57.30057465
-59.4123467
-61.12937354
-62.91489829
-64.16096763
-64.7626081
-65.42640685
-66.01091044
-65.75232709
-65.71644844
-64.81582637
-63.97680527
-63.19165097
-61.98828077
-61.01786275
-59.79276941
-75.59289334
-93.33981646
-109.041935
-117.7221522
)


101
(
0
-0.01293503984
-0.02854435579
-0.035110874
-0.02333906099
0.01899093663
0.08100900086
0.1541321751
0.2489008622
0.3756939568
0.5393465318
0.7314994739
0.9423334611
1.196470292
1.572832673
2.177318558
3.103065966
4.403823882
6.10067831
8.139129479
10.48512149
13.02898517
15.56555418
17.95462617
20.02952653
21.78668747
23.26844485
24.55709927
25.70025423
26.69886326
27.50858472
28.08501811
28.44781185
28.66718541
28.74743807
28.7149859
28.55357521
28.27242637
27.90372924
27.57335374
27.32572488
27.07434945
26.74945388
26.20536291
25.4100499
24.52812604
23.6177723
22.7101517
21.74676976
20.66671737
19.48634157
18.1824623
16.72675455
15.13359427
13.38099362
11.50826848
9.533479708
7.405670578
5.07332639
2.502257717
-0.2104705011
-3.093459936
-6.11098069
-9.29276773
-12.66189661
-16.16365517
-19.82569722
-23.6956822
-27.78059155
-31.95791828
-36.05697051
-40.007536
-43.84095534
-47.58229163
-51.50915841
-55.89224685
-60.3158174
-64.30753575
-67.76563708
-70.96033272
-74.08121569
-76.80388075
-79.52034599
-81.51364234
-83.39928082
-85.04375005
-85.88354982
-86.21780107
-86.97245967
-86.61836865
-86.10097623
-85.26146634
-84.03534714
-82.86074119
-81.53462419
-80.07019903
-78.27603744
-94.20003689
-111.4393813
-125.1065101
-149.0590131
)


101
(
0
-0.01360125377
-0.03008320898
-0.0376353158
-0.02752393025
0.01274764172
0.07190828096
0.1398942781
0.2268716284
0.3435774374
0.495996185
0.6775836533
0.8770515686
1.11236924
1.4547475
2.002730936
2.851498732
4.065094849
5.663255949
7.63613534
9.91622694
12.38911421
14.93422379
17.40010172
19.64480051
21.60242966
23.29419519
24.7906437
26.1272655
27.3309461
28.37607472
29.17427453
29.7570617
30.16772258
30.42993415
30.57417022
30.57987415
30.44173099
30.17979335
29.87639251
29.62463338
29.43370464
29.20331607
28.77804963
28.06420639
27.09205484
26.04684755
24.98091767
23.87907232
22.66700876
21.31573734
19.76940358
18.03677008
16.09129864
13.9430405
11.58568573
9.068799107
6.402079936
3.472184204
0.2544712432
-3.300771849
-7.043366196
-10.98166668
-15.10358455
-19.4300267
-23.95726162
-28.66220731
-33.56074134
-38.67642441
-43.91285932
-49.09596218
-54.11657898
-58.98682792
-63.726211
-68.486924
-73.50493289
-78.554607
-83.37115799
-87.72445942
-91.65321738
-95.12887096
-97.93026424
-100.9859601
-103.2558903
-104.9902449
-106.6295848
-107.7817488
-107.7038752
-108.2807028
-107.8515447
-106.6595171
-105.6768962
-104.0929461
-102.4045674
-100.7146075
-98.64124428
-95.97292727
-110.726841
-126.1867368
-137.3872889
-145.4637275
)


101
(
0
-0.0143157449
-0.03153301671
-0.04009089221
-0.03160082658
0.006710024861
0.06329375822
0.1268005477
0.2068824356
0.3146536247
0.4572577176
0.629778895
0.8210746085
1.042570633
1.356593932
1.856490285
2.636232695
3.761167623
5.273887005
7.146311332
9.33907756
11.76933647
14.30420568
16.8093959
19.17017264
21.30607595
23.20015475
24.89866857
26.44273904
27.85131337
29.10616396
30.16448676
30.96367631
31.57815112
32.04593448
32.36628213
32.56144613
32.59381298
32.47247121
32.2335611
32.0028916
31.82066465
31.64257484
31.33115754
30.7186722
29.76179708
28.55523959
27.28752014
26.00031137
24.59623823
23.025364
21.19622437
19.12449399
16.76852347
14.09502495
11.16930408
8.004727352
4.653194091
1.0103579
-2.999090858
-7.401289308
-12.13684037
-17.11900827
-22.33116796
-27.72899803
-33.33168085
-39.14283935
-45.15187462
-51.33671341
-57.62341427
-63.85198715
-69.90547074
-75.76964883
-81.47478549
-87.06293397
-92.62670876
-98.01713005
-103.255017
-108.1711388
-112.696852
-116.5326096
-119.1996052
-122.1575491
-124.5782078
-126.1123082
-127.2726847
-128.5252608
-128.1006778
-128.1336595
-127.5789992
-125.7197358
-124.3003175
-122.1888305
-120.0136775
-117.7686257
-115.0629421
-111.4948376
-124.0329203
-136.7863655
-145.5412787
-153.6326771
)


101
(
0
-0.01482740188
-0.03298458795
-0.04245606951
-0.03553433847
0.0009097531304
0.05520158198
0.1146909941
0.1886599723
0.2885335457
0.4224343052
0.587477417
0.7726102415
0.9847666296
1.276850415
1.735663436
2.450905807
3.494105539
4.913178854
6.698166138
8.806135286
11.16645063
13.65984184
16.18298248
18.63006781
20.90777849
22.99811323
24.90078541
26.64637582
28.25493255
29.71351047
30.9901365
32.05091147
32.89541972
33.55993701
34.07797838
34.45949462
34.68070502
34.73806494
34.636587
34.45396689
34.25255781
34.07924749
33.83068348
33.31364067
32.41232961
31.12753583
29.66930289
28.075795
26.42104163
24.55308613
22.40232753
19.90670921
17.05945474
13.83460747
10.19788349
6.26864483
2.063907258
-2.395724212
-7.251229542
-12.58439388
-18.35300436
-24.42867255
-30.77518986
-37.31942523
-44.02774885
-50.90588541
-57.95911789
-65.16162781
-72.38834527
-79.5199826
-86.41471106
-93.08084938
-99.58139456
-105.9017744
-111.9255497
-117.420174
-122.656971
-127.6417365
-132.3858067
-136.4710406
-138.9376299
-141.3961852
-143.6790506
-145.0535753
-145.5306661
-146.4378711
-145.7264207
-144.9859148
-144.1467987
-141.7187467
-139.7664416
-136.9174814
-134.252231
-131.416458
-128.1697861
-123.648111
-133.6177624
-143.255836
-149.8689008
-152.5850065
)


101
(
0
-0.01547592512
-0.03438877535
-0.04473869052
-0.03934161829
-0.004692321336
0.04754264154
0.1035625565
0.1721718883
0.2651267947
0.391444074
0.5501369501
0.7309820263
0.9368773965
1.212859717
1.637494452
2.294277463
3.26295108
4.585268242
6.280597108
8.304358125
10.58303839
13.0181729
15.52299943
18.01629071
20.41383984
22.667394
24.76440791
26.71221123
28.51363548
30.17513194
31.68916419
32.97137359
34.06036708
34.95509734
35.69004877
36.26179582
36.68082108
36.92360372
36.99197052
36.90704211
36.73455693
36.54212156
36.2770445
35.81940274
34.9750984
33.68417689
31.9946548
30.13006662
28.10452451
25.86384239
23.31782986
20.33601415
16.93335595
13.05733354
8.70003962
3.884182127
-1.266151951
-6.704390055
-12.47486313
-18.72371462
-25.47858459
-32.65236209
-40.09612024
-47.7261219
-55.4858173
-63.33730837
-71.27320075
-79.29171082
-87.2753116
-95.0607671
-102.5080304
-109.6403894
-116.603712
-123.4215673
-129.7965509
-135.2611842
-140.1589076
-144.7993769
-149.2599144
-153.3106485
-155.5425147
-157.2970435
-159.0891916
-160.2734432
-160.1522127
-160.3037109
-159.295069
-157.7197993
-156.4077688
-153.4810709
-151.0709601
-147.4798653
-144.2855805
-140.9349937
-137.2829072
-131.8283537
-139.2960046
-145.9431223
-151.2040543
-204.0200735
)


101
(
0
-0.01609106292
-0.03574388169
-0.04692812638
-0.04300523585
-0.01009303243
0.04032592984
0.09331720083
0.1572383176
0.2441743589
0.363905974
0.5171340458
0.6951605508
0.8979422685
1.162407717
1.559097125
2.168035122
3.060560702
4.297943029
5.892233178
7.825118679
10.02753159
12.3985122
14.85805002
17.36237472
19.83519972
22.23564137
24.51259184
26.6536426
28.65405854
30.51040157
32.2068226
33.73848825
35.070843
36.20763559
37.16279343
37.95117329
38.56437235
39.00085384
39.25710379
39.32306405
39.21880107
38.999022
38.67976023
38.19429231
37.38312678
36.0887244
34.27372444
32.07539197
29.62142981
26.94381445
23.90533555
20.40087614
16.36606647
11.80616336
6.672088074
0.9509478238
-5.181195821
-11.66545816
-18.41965088
-25.58641766
-33.23934165
-41.33081227
-49.74648897
-58.31705407