/*--------------------------------*- C++ -*----------------------------------*\
| =========                 |                                                 |
| \\      /  F ield         | OpenFOAM: The Open Source CFD Toolbox           |
|  \\    /   O peration     | Version:  2.3.1                                 |
|   \\  /    A nd           | Web:      www.OpenFOAM.org                      |
|    \\/     M anipulation  |                                                 |
\*---------------------------------------------------------------------------*/
FoamFile
{
    version     2.0;
    format      ascii;
    class       dictionary;
    location    "constant";
    object      la_i14;
}
// * * * * * * * * * * * * * * * * * * * * * * * * * * * * * * * * * * * * * //

la_i14_table
101
(

101
(
0
0
0
0
0
0
0
0
0
0
0
0
0
0
0
0
0
0
0
0
0
0
0
0
0
0
0
0
0
0
0
0
0
0
0
0
0
0
0
0
0
0
0
0
0
0
0
0
0
0
0
0
0
0
0
0
0
0
0
0
0
0
0
0
0
0
0
0
0
0
0
0
0
0
0
0
0
0
0
0
0
0
0
0
0
0
0
0
0
0
0
0
0
0
0
0
0
0
0
0
0.05749505908
)


101
(
0
0.05483953204
-0.2934014218
-0.5101323858
-0.9247249263
-1.959561361
-3.976339439
-6.983945285
-10.78193872
-15.17730391
-20.18727785
-25.40376169
-30.25341098
-34.70906673
-38.33471004
-40.86026272
-42.26351879
-42.82702529
-41.89841622
-41.06105248
-39.60537692
-37.39821234
-35.14711973
-32.51392922
-29.99624456
-27.18163492
-24.41673112
-21.72835831
-19.24604566
-17.40527812
-16.38736137
-15.73941021
-14.53235734
-12.87108085
-10.62114816
-8.213102061
-6.963437822
-7.289119645
-7.888500492
-8.285886495
-7.850967972
-6.693452513
-5.210022578
-3.576781594
-2.224690177
-1.324754054
-0.7979400477
-0.5325800367
-0.3980323208
-0.02928902076
0.7290144675
1.931423727
3.182279597
4.103413516
4.517553932
4.545405002
4.513048324
4.533052596
4.581006637
4.62241356
4.732239951
4.938603368
5.162109185
5.280208963
5.250141784
5.165398705
5.161706623
5.248338659
5.306219549
5.074917387
4.236079085
2.846186597
1.775980494
2.062604331
3.521676524
4.342103042
3.403688152
2.091083093
1.774477483
2.163791684
2.201636747
1.399520719
1.32111516
1.369614929
1.119663781
0.7955003301
0.7034244626
0.5992066931
0.4386300519
0.5023601092
0.2916653512
0.1586199776
0.1721252374
0.09426467681
-0.06372122897
-0.09025409338
0.009960132407
0.011534144
0.01319553838
0.01573932291
0.01844868947
)


101
(
0
-0.08626629162
-0.6004199339
-0.8502261037
-1.157360912
-1.915956288
-3.760957198
-6.723597115
-10.36213173
-14.55326479
-19.21894065
-24.20770733
-28.94513
-33.32292292
-36.93402088
-39.59513445
-41.17752817
-41.6832245
-41.04026057
-40.08417663
-39.30194124
-37.94660426
-36.331346
-34.17868342
-31.71584015
-29.27903442
-26.62610556
-23.80530909
-20.9658024
-18.72294577
-17.93452116
-18.60211455
-19.01885282
-17.80339835
-14.83869247
-11.12771714
-8.270743859
-8.170781663
-9.89629939
-11.92000002
-13.05148722
-12.54061981
-10.76624598
-8.334757552
-6.200336617
-4.711853313
-3.928687391
-3.778815672
-4.038489855
-4.286208411
-3.9762979
-2.684315694
-0.6692515444
1.197265377
2.296091518
2.503979165
2.342220103
2.23546141
2.20303845
2.183565178
2.230488806
2.487406543
2.946088273
3.38845304
3.631523205
3.715680807
3.832035861
4.109112964
4.504283474
4.726639617
4.152243995
2.450772811
0.3642952387
-0.1912797614
1.647861737
3.958220667
3.861110692
2.104849415
1.146516463
1.620891008
2.187829475
1.309742325
1.074330444
1.100489131
1.198782213
0.9771429501
0.6104393636
0.5507382876
0.4451054148
0.3836895647
0.3917024269
0.2425647394
0.1550274585
0.1552226007
-0.1726758449
-0.176589834
0.03453195706
0.03868488044
0.04289876298
0.04665982758
0.05135206072
)


101
(
0
-0.2193091745
-0.9100333406
-1.197904355
-1.351894413
-1.851493354
-3.554286777
-6.462879705
-9.985630719
-13.92389945
-18.28886171
-23.11520439
-27.71429213
-32.04312092
-35.70415084
-38.4325692
-40.24360604
-40.88357675
-40.53055784
-39.43792632
-38.97710331
-38.76044222
-37.69767671
-36.3348944
-34.08465548
-31.86148645
-29.43494615
-26.71981244
-23.71338233
-20.82960296
-19.41975861
-20.44715468
-22.85559537
-23.13903938
-20.84422429
-16.03403934
-11.09640944
-8.983719501
-10.41755618
-13.9455665
-16.84749891
-17.58466429
-16.28627705
-13.60283272
-10.55915451
-8.202594117
-6.922608257
-6.438078367
-6.618781206
-7.246437876
-7.585309815
-6.924081821
-4.961186534
-2.384907877
-0.3583917035
0.5846829748
0.6331532212
0.5099067928
0.4401395656
0.3959193259
0.3915325116
0.5594050676
1.005108569
1.606645516
2.130295825
2.4682575
2.754884376
3.122207733
3.636136482
4.132300833
3.957710805
2.480664101
0.1629768017
-1.052061018
0.2863787771
2.969872128
3.732015629
2.35245817
1.125916722
1.329285856
2.0608254
1.277208917
0.9988685946
0.952225157
1.057185877
1.049522551
0.8633830917
0.5377629524
0.439454856
0.4713632693
0.4116004515
0.3767406204
0.1804802917
0.1754851602
-0.2279014537
-0.2720843699
0.08792223559
0.09027798789
0.09194632887
0.09239340427
0.09004173412
)


101
(
0
-0.3573418692
-1.223229067
-1.554328901
-1.565744575
-1.805236965
-3.352674772
-6.206977669
-9.632231065
-13.33063749
-17.42306343
-21.99740637
-26.70092614
-30.99313397
-34.74028138
-37.66965759
-39.65690359
-40.5282161
-40.42403974
-39.46990452
-39.01455698
-39.32833909
-39.42057676
-38.65699455
-36.84433312
-34.62898982
-32.40064829
-29.82490839
-26.78620687
-23.41218178
-21.15136676
-21.64831078
-24.4449128
-27.21284002
-26.15454771
-21.18151193
-14.92329607
-10.79801912
-10.97409586
-14.24832288
-18.86213861
-21.46163992
-21.09746624
-18.60448683
-15.06885204
-11.78519515
-9.532803769
-8.544039717
-8.535630225
-8.992006585
-9.662527345
-9.735628423
-8.506413553
-6.03285234
-3.44754228
-1.688131373
-1.042548615
-0.972780698
-0.9572554414
-0.9821204479
-0.9887595343
-0.8729106455
-0.5203427718
0.03519329564
0.6538181849
1.211950984
1.716948316
2.208572645
2.763360755
3.325736775
3.34292462
2.075349366
-0.1859475832
-1.524536317
-0.4655126712
2.051019418
3.066109682
2.133773855
1.128061252
1.249934177
1.878598538
1.118014291
0.947772121
0.9170374015
1.044073408
0.9741078366
0.9878531376
0.7677911554
0.4322152195
0.488801025
0.441309535
0.4086012674
0.3655133787
0.1950026632
-0.3056037191
-0.3730591804
0.13533088
0.1266936966
0.1213349302
0.1617121466
0.2146552608
)


101
(
0
-0.4913608899
-1.533708234
-1.919696333
-1.798905615
-1.77866635
-3.153203393
-5.960644655
-9.306766095
-12.80642916
-16.64530343
-21.01004075
-25.6875463
-30.00929044
-33.70438935
-36.80955348
-39.09618626
-40.21679428
-40.23370454
-39.34010341
-39.00155576
-39.66928795
-40.4759225
-40.42271519
-39.21704457
-37.17825819
-35.19994499
-32.91836073
-29.82304528
-26.14679564
-22.88843523
-22.3148264
-25.59679824
-29.49393476
-30.49536016
-27.14140673
-20.11796647
-13.48347999
-11.07725385
-13.67273623
-18.73886691
-23.05758969
-24.51167087
-22.63507926
-19.08287893
-15.24577414
-12.18556392
-10.4555416
-9.829796524
-9.929948411
-10.5520644
-11.00782347
-10.46001545
-8.682610392
-6.166379213
-4.100128689
-2.831885845
-2.399391008
-2.192418215
-2.1010992
-2.055729768
-1.917819667
-1.599739884
-1.120762719
-0.5678123133
0.06228714849
0.7456380275
1.403434248
2.024778961
2.569230842
2.616495169
1.439230197
-0.7959757608
-2.116348144
-1.01992467
1.411633061
2.334925663
1.541625205
0.808133729
1.193891255
1.81793173
0.8827615575
0.7679988374
0.7871193207
0.9554815667
0.8968587203
0.9587099901
0.8514360703
0.5456923879
0.4788920503
0.4502858581
0.4282843614
0.4251268346
0.2325900648
-0.3946240554
-0.4686666914
0.1871741447
0.2329390993
0.2779719706
0.2612278175
0.2235099732
)


101
(
0
-0.6180913778
-1.847190917
-2.292787687
-2.050668289
-1.768898055
-2.964502459
-5.719124456
-9.002287539
-12.34012122
-15.90586163
-20.09198328
-24.68858027
-29.08275719
-32.82192925
-36.00474888
-38.60671341
-39.98404545
-40.47430513
-39.52689735
-39.11173764
-40.14557112
-41.52748058
-42.47687975
-41.92788535
-40.10991653
-38.00108584
-35.87921579
-33.2107545
-29.55018783
-25.61435539
-23.25491826
-24.84549949
-29.82355632
-33.12773688
-31.64994765
-25.09052228
-17.40772273
-12.73517702
-13.06987196
-17.6937066
-23.00964865
-25.90530388
-25.3836879
-22.06699161
-17.89791159
-14.33817184
-12.04122883
-10.93544977
-10.58453855
-10.55773251
-10.80099144
-10.74351174
-9.577467693
-7.523224098
-5.547124714
-4.125603177
-3.368236658
-2.997543723
-2.734630715
-2.570161484
-2.37930553
-2.00717237
-1.564595753
-1.107057948
-0.5663584499
0.1642290751
0.9717248576
1.703396404
2.223317783
2.193261785
0.9996796644
-1.247510558
-2.567766667
-1.331882177
1.195214238
2.014407311
1.141754158
0.4496514718
1.050640794
1.937752155
0.8349322899
0.6550420358
0.6606680498
0.8246561307
0.7131915444
0.9472950395
0.8643457371
0.7762822246
0.4700427792
0.5549166783
0.5371830419
0.4780211968
0.2915892555
-0.514915802
-0.5376266734
0.2652076295
0.2847118714
0.2969953526
0.2439143218
0.1766631497
)


101
(
0
-0.7483454528
-2.160815056
-2.673629717
-2.322122145
-1.782935308
-2.779821489
-5.476692458
-8.71278592
-11.89931531
-15.22925678
-19.18632785
-23.74323406
-28.22331889
-32.09492212
-35.34989671
-38.15814502
-39.91906022
-40.51660895
-40.09705916
-39.4075588
-40.09008742
-42.18240263
-43.90695183
-43.96649173
-42.4783383
-40.42017307
-38.30685726
-35.83906663
-32.41449442
-28.19470572
-24.96562091
-24.91552559
-28.53878051
-33.42826382
-34.42718605
-29.91724416
-21.8567764
-14.77114896
-12.99699491
-15.93809592
-21.4350188
-25.72111881
-26.61987403
-24.0826422
-19.68681248
-15.40677806
-12.44865137
-10.98850387
-10.6605671
-10.34567654
-9.929102979
-9.492765457
-8.704754902
-7.083528848
-5.319303333
-4.121269498
-3.402321683
-3.05569678
-2.756612086
-2.534734892
-2.315115569
-1.907305844
-1.438482036
-1.069636782
-0.7360314429
-0.1668749142
0.6574914196
1.504559086
2.06485338
1.937151055
0.6204178813
-1.719914193
-3.097242228
-1.762531192
0.9494661282
1.763697712
0.7620896142
-0.002158861906
0.6672152775
1.759297155
0.5723824697
0.3845107094
0.489442019
0.7022642923
0.6447668422
0.7791585515
0.7399350932
0.7708237226
0.5257157648
0.4723761804
0.5631602588
0.4803741496
0.3909479992
-0.6395435921
-0.6480647515
0.3312072834
0.2923602215
0.1972386038
-0.1893698973
-0.7573790206
)


101
(
0
-0.874788901
-2.471758483
-3.060862168
-2.611075279
-1.818758908
-2.605050926
-5.238110456
-8.443535303
-11.50311264
-14.63218333
-18.35919802
-22.82142441
-27.2407328
-31.23685926
-34.66613661
-37.61862885
-39.71287107
-40.73400401
-40.27167365
-39.67955004
-40.51017454
-42.62363146
-44.89381285
-45.86648326
-44.91996221
-42.908644
-40.78140382
-38.46766246
-35.34937181
-31.1120034
-26.82951648
-25.02589243
-27.27358153
-32.1167103
-35.20114748
-32.93344244
-25.72695975
-18.00496829
-13.78535454
-14.25556633
-19.09333189
-23.67137625
-25.74752753
-24.40795733
-20.48173752
-15.85580904
-12.16411862
-10.02225654
-9.349691703
-9.35389478
-9.110056298
-8.124819486
-7.014709919
-5.681969898
-4.061193503
-3.196399744
-2.812888065
-2.785473495
-2.735816815
-2.666548017
-2.530594814
-2.193130779
-1.697434285
-1.363731116
-1.26686507
-1.036167042
-0.4588026249
0.3786139286
1.035017434
0.9196317313
-0.5084414303
-3.000067066
-4.508176049
-3.177485536
-0.2776196813
0.6508447998
-0.4639426844
-1.418535025
-0.6749613078
0.7483777284
-0.4021350862
-0.6610837213
-0.4193654114
-0.09397932877
-0.03802468159
-0.0831966196
0.1955837676
0.1290754436
0.2105978455
0.03321758191
0.2688559608
0.2884305476
0.2429169318
-0.9601983865
-0.8760836709
0.3579818337
0.05905004398
-0.4107335184
-1.535840959
-3.257890507
)


101
(
0
-0.9951399119
-2.784721504
-3.455172244
-2.920227242
-1.877472783
-2.437718554
-4.997149074
-8.178019949
-11.14005291
-14.06300623
-17.54017258
-21.95234632
-26.40301116
-30.50394238
-34.03285908
-37.09452794
-39.50245639
-40.97252222
-40.8070505
-40.12044512
-40.49779083
-42.741087
-45.61229043
-47.42390817
-47.00569922
-43.15969488
-42.70166408
-40.47131848
-37.65949737
-33.68726698
-29.24917136
-25.89537196
-26.07627783
-29.6056889
-33.59039863
-34.0213368
-28.968778
-20.97498481
-15.10739084
-13.65259864
-16.36043857
-20.86760592
-23.90955084
-23.46458525
-20.07499034
-15.36004573
-11.34049039
-8.925591856
-7.901409034
-7.883656317
-7.948863677
-7.605859424
-6.325560661
-4.792137876
-3.538272684
-2.722380874
-2.647709993
-3.027623806
-3.526965994
-3.796919355
-3.930099033
-3.793455697
-3.317425963
-2.889445272
-2.877824735
-3.073909881
-2.96809142
-2.424471915
-1.766383707
-1.754879701
-3.14271664
-5.750506202
-7.460844703
-6.244263092
-3.223131889
-2.078125726
-3.106696967
-4.260140588
-3.713641623
-1.961915771
-2.773902518
-3.006837676
-2.761779056
-2.292071224
-1.938671932
-2.058653782
-1.494817371
-1.40996782
-1.11816105
-1.357121727
-0.8752861848
-0.6318461007
-0.5603022147
-1.843811387
-1.582448847
-0.06478316843
-0.9575271945
-2.196444539
-4.392135462
-6.244946502
)


101
(
0
-1.117058259
-3.094494407
-3.853881067
-3.245516409
-1.957019072
-2.282834479
-4.760626726
-7.918527465
-10.8151878
-13.53788571
-16.81863873
-21.04398318
-25.63431301
-29.79760852
-33.33439082
-36.50510597
-39.33181338
-40.82632437
-41.31934857
-40.6487459
-40.67704524
-42.69288879
-45.70392196
-48.25630355
-48.74232832
-47.03034428
-44.5509977
-42.15773145
-39.56852693
-36.0446199
-31.54057794
-27.65016516
-25.72130256
-27.47376917
-31.08674967
-32.95305639
-30.07096146
-23.39406586
-16.85668611
-13.33713944
-13.78837835
-17.67426757
-20.84222342
-21.71047978
-19.62258411
-15.34692848
-10.74153086
-8.253731827
-7.086717177
-7.222573481
-7.618488775
-7.675541996
-7.131556625
-5.79595745
-4.575412353
-3.72397951
-3.822053752
-4.594149575
-5.533313983
-6.323539194
-6.832948139
-7.035390586
-6.713487401
-6.201589703
-6.028806822
-6.37843356
-6.79467451
-6.795628941
-6.423819458
-6.359025507
-7.576707172
-10.16439046
-12.06905535
-11.06555311
-8.068982306
-6.793133555
-7.620294076
-8.641961558
-8.307530705
-6.586578672
-6.980038513
-7.015198131
-6.890780262
-6.504029396
-5.579383903
-5.559842886
-4.998377007
-4.448620268
-4.072267395
-3.8558284
-3.368392845
-2.874248488
-2.588879768
-3.878943688
-3.322471174
-1.347782338
-3.180987148
-5.625908334
-9.41678936
-14.99454038
)


101
(
0
-1.235426842
-3.403248602
-4.257525516
-3.588692114
-2.060518157
-2.139501272
-4.52129626
-7.660013052
-10.51104544
-13.05860372
-16.11715147
-20.17422085
-24.78511391
-29.05319921
-32.63792859
-35.95776816
-38.82184218
-40.98127084
-41.53701285
-41.04820369
-41.19198813
-42.70128142
-45.78742852
-48.7962823
-50.08150388
-48.84585868
-46.249557
-43.58215388
-41.02652276
-38.03294009
-33.83839996
-29.22632685
-26.14897923
-25.70918278
-27.87621266
-30.1562883
-29.81656845
-25.08691139
-18.43048325
-14.05785709
-12.99484407
-15.18250066
-18.3496897
-19.89894961
-18.70433767
-15.59908907
-11.86535822
-8.563365727
-7.249434071
-7.401758723
-8.277116625
-9.041989501
-9.055019694
-8.45034208
-7.450163928
-6.675491555
-6.72988164
-7.680364333
-8.983785475
-10.20361559
-11.14820342
-11.72267451
-11.77021587
-11.33148631
-10.87234482
-11.00917953
-11.66407681
-12.25699511
-12.43473877
-12.58614397
-13.65115793
-16.0763768
-18.10895481
-17.37795497
-14.52836281
-13.2799112
-14.08008372
-14.84642923
-14.39582944
-12.90778181
-13.0921437
-12.71883373
-12.57502173
-12.58372224
-11.28750696
-10.78582963
-10.31786981
-9.627542915
-8.776307621
-8.441714722
-7.717394468
-6.949621987
-6.332703269
-7.603923554
-6.670651761
-4.099381697
-7.353320955
-11.39142237
-16.06492752
-20.52007969
)


101
(
0
-1.348697876
-3.709694039
-4.66463552
-3.948188146
-2.188091922
-2.009726673
-4.282752577
-7.407569774
-10.22074724
-12.62669825
-15.4460604
-19.36819696
-23.93784926
-28.21244019
-32.00054359
-35.32541065
-38.33164834
-40.69139675
-41.93011592
-41.61199081
-41.31819349
-42.6431824
-45.63148139
-48.85979034
-50.68656591
-50.19817783
-47.83023157
-44.89368498
-42.12095125
-39.25790719
-35.7529754
-31.6475324
-27.47060094
-25.07276436
-25.32016773
-26.99885391
-27.71478488
-25.115424
-20.19658732
-15.70675652
-13.14179599
-13.618063
-16.3725224
-18.48521126
-18.77811276
-16.717518
-13.43468247
-10.82230812
-9.361449335
-9.161345125
-9.950391251
-11.16030354
-12.05603384
-12.05847204
-11.6704084
-11.29449573
-11.2053787
-12.08957174
-13.67493228
-15.24716062
-16.54274341
-17.54230138
-18.0815444
-17.91081537
-17.37576445
-17.1096345
-17.57366574
-18.47823037
-19.25129749
-19.87399264
-20.98721833
-23.19537388
-25.22237471
-24.75980896
-22.16153503
-21.03808355
-21.98151627
-22.67937604
-21.9598013
-20.64493196
-21.01686631
-20.23315716
-19.72955752
-19.92494995
-18.9092813
-17.77562474
-17.11804286
-16.74364931
-15.24507016
-14.59558346
-13.94233238
-12.90566513
-11.99735995
-13.23960656
-11.95196465
-8.73598595
-12.99462125
-18.115206
-22.87104363
-29.19965114
)


101
(
0
-1.461703531
-4.013019438
-5.074340825
-4.322907672
-2.33915587
-1.89537111
-4.044054498
-7.154801367
-9.935304586
-12.2403902
-14.84997078
-18.530572
-23.06790589
-27.45949433
-31.34646463
-34.64968609
-37.79950838
-40.30601971
-41.87942247
-42.01670957
-41.85476072
-42.79818504
-45.45687333
-48.77634828
-51.1724831
-51.3966953
-49.24297018
-46.05967435
-43.01386266
-40.2893244
-37.14100084
-33.09996032
-29.16440823
-25.6360314
-23.82885258
-23.89485015
-24.68914669
-24.74668709
-21.63431727
-17.83719372
-15.04940755
-14.22059644
-16.02165812
-18.21037421
-19.00459382
-18.35074062
-16.56964605
-13.92516833
-12.62035234
-12.59354944
-13.27933933
-14.35944913
-15.52612025
-16.31069369
-16.60372857
-16.72855093
-16.92315616
-17.70760091
-19.25448601
-21.07187752
-22.70895751
-24.01352277
-25.03973933
-25.4919634
-25.15063853
-24.65074767
-24.66970243
-25.44259177
-26.57249933
-27.72742556
-29.12486876
-31.20943654
-33.08053403
-32.73250584
-30.41086317
-29.53010102
-30.67944414
-31.4569221
-30.5340031
-29.21134686
-30.04077292
-29.1802942
-28.11374496
-28.05714083
-27.68007373
-26.18568151
-25.16103451
-24.85385015
-23.21121974
-22.30232562
-21.65569606
-20.31629702
-19.1649198
-20.42667013
-18.75078641
-14.73547714
-19.19672833
-24.37868502
-27.6185201
-32.79190391
)


101
(
0
-1.5712439
-4.313783149
-5.486069322
-4.71299666
-2.515921415
-1.796362377
-3.80675107
-6.895870318
-9.667237997
-11.87849564
-14.26274546
-17.76247051
-22.19821787
-26.70182554
-30.58407096
-34.02969524
-37.07973102
-39.97806141
-41.76158683
-42.34099477
-42.13964512
-42.8354532
-45.15118462
-48.52781407
-51.26831189
-52.07883335
-50.38113433
-47.1440218
-43.73380663
-40.84497646
-38.30682735
-35.09037412
-31.06400098
-27.13477946
-23.77170645
-22.25847058
-22.29162768
-23.28555615
-22.48916867
-20.78564696
-17.87245505
-16.52422594
-16.87205911
-18.77709751
-20.49554962
-20.66990679
-19.61547441
-18.4496112
-17.22889744
-16.78517676
-17.81310417
-18.81372977
-19.9046637
-21.19628466
-21.96291097
-22.52112454
-23.1574006
-24.03489939
-25.5436213
-27.46501872
-29.35716223
-30.88467478
-32.22793872
-33.31191445
-33.63054983
-33.19467989
-32.85682476
-33.19300626
-34.30258906
-35.83068422
-37.61668857
-39.80897202
-41.548977
-41.06380001
-38.77731284
-38.11536334
-39.57037033
-40.51337305
-39.43667061
-37.84873505
-38.97545012
-38.48773437
-37.01318017
-36.35046735
-36.43301463
-35.0370776
-33.66336522
-33.18258129
-31.7489607
-30.44368589
-29.83649645
-28.23352675
-26.84062888
-28.19689017
-26.1205755
-21.33741782
-25.03772623
-28.86027799
-28.57149228
-21.32285284
)


101
(
0
-1.676746092
-4.610764492
-5.898665236
-5.116784701
-2.717464444
-1.714465449
-3.570925928
-6.62895638
-9.403571797
-11.53252953
-13.73472725
-17.00651431
-21.33292784
-25.89328889
-29.77562572
-33.31662503
-36.46722097
-39.24514435
-41.51988604
-42.53782083
-42.49646277
-43.07473345
-44.8953007
-48.08708331
-51.18920532
-52.57427627
-51.56395112
-48.45192029
-44.70091576
-41.4201996
-38.85328521
-36.43797631
-33.31595757
-29.47821737
-25.38657005
-22.41143283
-21.5642992
-22.34529945
-23.29737441
-23.03373789
-21.92555167
-20.52662751
-20.10260254
-20.87292049
-22.21472679
-23.27530418
-23.57820442
-22.88940297
-22.56631459
-22.45681995
-22.90557497
-24.1017097
-25.22302599
-26.46241374
-27.7463083
-28.76388957
-29.58718119
-30.67993662
-32.14604609
-34.15042635
-36.18072488
-37.90659463
-39.43171512
-40.8938783
-41.95454351
-42.05326506
-41.65730361
-41.61199387
-42.34709122
-43.92586891
-46.02287592
-48.4921181
-50.35088652
-49.72539106
-47.05769695
-46.16703488
-47.81835494
-49.08995986
-47.97449038
-45.90677261
-46.77755544
-46.6968373
-45.24876047
-43.86975689
-43.91114816
-42.90843814
-41.25442672
-40.40667628
-39.23726109
-37.36026632
-36.78158366
-35.04543708
-33.42044386
-34.78851203
-32.47191295
-27.21956278
-28.21902044
-28.7304832
-24.09311959
-21.70316303
)


101
(
0
-1.780073344
-4.901156304
-6.309697363
-5.530655064
-2.939605902
-1.640674897
-3.343903838
-6.363216671
-9.141174349
-11.21777354
-13.25043269
-16.27234242
-20.46741903
-25.02716763
-29.13787733
-32.53432142
-35.73418952
-38.63557939
-40.99869552
-42.40049792
-42.97886031
-43.28530757
-44.91195288
-47.68892978
-50.8413601
-52.7312571
-52.35742718
-49.66917292
-45.7277607
-41.95582132
-39.28899501
-37.44406866
-35.33757115
-32.09707457
-28.14222654
-24.57248713
-21.94020517
-21.49776525
-23.76533727
-25.36352276
-26.34615581
-25.8314621
-24.67772263
-24.18541663
-25.117301
-26.43334222
-27.37124966
-27.94130854
-28.04482722
-28.20600297
-29.02930915
-30.0932232
-31.22071597
-32.39427774
-33.74864076
-35.3443533
-36.56316834
-37.68817087
-39.04250841
-40.91517136
-43.01754327
-44.93867272
-46.54635704
-48.14798198
-49.62793783
-50.46026172
-50.36754292
-50.08504541
-50.41765515
-51.7367102
-53.89820831
-56.55215112
-58.7161693
-58.26571381
-55.06096757
-53.35152408
-54.57081985
-56.08309886
-55.19179723
-52.7150963
-52.76738695
-52.53774054
-51.38481714
-49.36868741
-48.73269957
-48.08198967
-46.32724846
-44.76024066
-43.56693351
-41.34279294
-40.38890626
-38.83395804
-36.93986518
-38.18538359
-35.59810173
-29.68246661
-26.86063589
-22.72751649
-13.31955375
0.03145298408
)


101
(
0
-1.880058794
-5.188340929
-6.720092626
-5.957273527
-3.187652847
-1.582906467
-3.119188144
-6.087236778
-8.873236004
-10.91697296
-12.78929966
-15.59623357
-19.63198621
-24.14801772
-28.36391624
-31.84473033
-34.95013225
-37.82651885
-40.45122885
-42.15480939
-42.98507353
-43.63842522
-44.96797955
-47.3712892
-50.30167808
-52.66169364
-53.08073534
-51.0396327
-47.14932105
-42.91557666
-39.98913402
-38.45579156
-37.33736402
-35.34570822
-31.86048461
-27.56635262
-24.22507085
-23.09134081
-24.43973421
-27.31503855
-30.07924253
-31.28917839
-30.75082388
-29.56829903
-29.04316144
-30.04396591
-31.5400705
-32.7680445
-33.87360253
-34.54141067
-35.27021008
-36.42120047
-37.66683463
-38.93968074
-40.42323689
-42.01317484
-43.62586085
-45.05441818
-46.38732576
-47.94173576
-49.9148878
-51.93657842
-53.58410948
-55.07054032
-56.63437743
-57.86581949
-58.29438984
-58.01538543
-57.9676315
-58.84744986
-60.78259988
-63.3317761
-65.63158226
-65.56232628
-62.22345094
-59.37549255
-59.30092985
-60.3630184
-59.69264083
-57.13366075
-56.27990131
-55.10854643
-54.02823516
-51.60819367
-49.76522173
-48.88554564
-47.31436803
-44.70875744
-43.155302
-40.77500685
-39.09308292
-37.69267132
-35.50315279
-36.52029626
-33.67822227
-27.4704709
-19.95783239
-10.57756184
3.230144948
16.99790044
)


101
(
0
-1.976527761
-5.470150552
-7.127666763
-6.393003503
-3.459238861
-1.594310594
-2.899933931
-5.805012754
-8.593507799
-10.61985056
-12.37307033
-14.9387136
-18.765177
-23.26965528
-27.53782106
-31.12936071
-34.19638976
-36.93334472
-39.63466397
-41.6646299
-42.87766989
-43.96171464
-45.13765199
-47.31921593
-50.01860743
-52.44549407
-53.4208664
-52.22810014
-48.87382581
-44.50482743
-41.1065875
-39.65881903
-38.84760733
-38.16490118
-35.76133033
-32.15358632
-28.33869539
-25.47414878
-25.97328513
-29.28011265
-33.16740228
-36.67405001
-37.57945961
-35.96093086
-34.61893549
-34.4351702
-35.80467011
-37.82000041
-39.43280072
-40.82224732
-42.04086544
-43.13880573
-44.43380653
-45.68829007
-47.21877695
-49.16681133
-51.11050656
-52.71017023
-53.78670628
-55.28595749
-56.89306963
-58.76804912
-60.49562777
-61.84641492
-63.17356308
-64.35748379
-64.99839083
-64.87311791
-64.48045759
-64.81530902
-66.23514678
-68.30198081
-70.30194148
-70.39371029
-67.28916778
-63.60635252
-61.79351711
-61.37663
-60.24606711
-57.74198941
-56.34370038
-53.74082982
-52.05716737
-49.4573296
-46.35133782
-44.31771857
-42.91342192
-39.24518866
-37.03473246
-34.56325398
-31.97234605
-30.29990199
-27.88000136
-28.61772063
-25.58615336
-19.35144742
-7.474346344
6.646993213
24.07959417
45.28740852
)


101
(
0
-2.069489142
-5.748383937
-7.529995712
-6.834320004
-3.752525146
-1.597784438
-2.69426328
-5.524865477
-8.317222403
-10.34107381
-11.98266216
-14.33965816
-17.96643049
-22.36103822
-26.70025171
-30.41062233
-33.4944613
-36.32932645
-38.74444873
-40.90245483
-42.81214733
-44.24682756
-45.5765407
-47.37932881
-49.76741492
-52.16759996
-53.53106063
-53.23361105
-50.77340014
-46.5767491
-42.97742935
-40.877055
-40.57254178
-40.80644188
-39.9971941
-36.77430222
-33.29747248
-30.25680403
-29.53048982
-31.78385023
-36.35579294
-41.1792695
-43.86145673
-43.70074326
-41.43825819
-40.23729728
-40.77855399
-42.84048072
-45.2369684
-47.40657535
-48.85257014
-50.14174933
-51.38689554
-52.80341692
-54.25159484
-56.14604925
-58.5796144
-60.59718729
-62.08969605
-62.81871493
-64.00521876
-65.46450952
-67.04636704
-68.37421576
-69.35275235
-70.17111068
-70.63784723
-70.39066579
-69.65734742
-69.32601453
-69.90862486
-71.12792516
-72.25162089
-71.9220664
-68.9563352
-65.0253615
-61.68361024
-59.21571318
-56.54731015
-53.47270019
-51.94365719
-48.00764803
-44.92275486
-41.986178
-38.05092465
-34.19119289
-32.47251876
-28.04312987
-24.87109595
-22.27860321
-18.8652371
-16.61720095
-13.98759
-14.47594002
-11.35841318
-5.486469097
9.734449367
27.43451086
47.83247712
71.96260292
)


101
(
0
-2.167995442
-6.01070437
-7.928301937
-7.283626952
-4.071546394
-1.630241758
-2.493966994
-5.232540568
-8.021461109
-10.04587512
-11.61338682
-13.75778494
-17.17510582
-21.47137703
-25.81677958
-29.5957484
-32.80262506
-35.50701807
-38.08195501
-40.43452316
-42.44337537
-44.19427257
-45.85936469
-47.65888569
-49.79094341
-52.0691436
-53.72913769
-54.06383814
-52.55140892
-49.27203749
-45.17934312
-42.85286107
-42.52592273
-42.8963197
-43.56739544
-41.94774902
-39.24656617
-35.94864806
-33.93040962
-35.34430563
-39.59796285
-44.99712839
-49.63519204
-51.22404916
-49.74026843
-47.17299064
-46.4163389
-48.17263391
-50.96024609
-53.9759712
-56.00480007
-57.63999107
-58.95788253
-59.98748673
-61.42747404
-63.24784127
-65.87086679
-68.33120688
-70.02762503
-70.89104666
-71.41814693
-72.24236457
-73.22623884
-74.29395045
-75.07277848
-75.41071845
-75.29466961
-74.64773444
-73.42183457
-72.31116637
-71.81565482
-71.83454318
-71.49688439
-69.92297308
-66.52046759
-62.5311212
-58.29658338
-53.98982708
-49.16461014
-44.46472251
-42.5768117
-37.81262486
-32.89082293
-28.97909707
-24.69543347
-19.00393172
-16.32799118
-11.59203987
-7.223923995
-4.35890684
-0.4192832452
2.253997999
5.17041304
4.852880612
7.882359357
12.85097348
30.32178285
50.61549694
74.13647658
98.34929379
)


101
(
0
-2.236073745
-6.273121964
-8.318589564
-7.734291638
-4.407019694
-1.682622598
-2.312367494
-4.945697405
-7.723503216
-9.760391233
-11.26150127
-13.23167149
-16.41517558
-20.58072278
-24.91379856
-28.79860745
-32.06730072
-34.80107405
-37.26701278
-39.67384339
-41.91318648
-44.07730565
-46.06135516
-47.95818718
-50.03058605
-52.05737633
-53.78280327
-54.63231865
-54.0419139
-51.8555235
-48.55038129
-45.4745081
-44.44355379
-45.41721336
-46.70704139
-46.82065117
-44.56688129
-42.53050822
-40.53177503
-40.78868518
-43.47409955
-48.63662139
-54.50809744
-58.00692538
-58.20019961
-55.62184951
-54.07972116
-54.07646813
-56.92142857
-60.41403808
-63.48046399
-65.46733041
-66.91738247
-68.09811239
-68.89437206
-70.43892729
-72.63739831
-75.56263477
-77.82866099
-78.83786901
-78.94328772
-79.10395687
-79.36252436
-79.68060012
-79.98625623
-79.86799015
-79.12290998
-77.70129966
-75.79516448
-73.74895303
-72.14717521
-70.73225572
-68.51833173
-64.86258795
-60.08269649
-55.70924592
-51.01336328
-45.50890455
-38.70704725
-31.64169789
-28.65084718
-23.46166786
-16.84762533
-11.26175764
-6.598285213
0.2910275411
4.343948354
8.964192474
14.53375372
17.81321014
22.11564975
24.75849065
27.96315497
27.69154241
30.47630879
34.0213051
53.2013741
76.00746616
104.2070189
133.6686958
)


101
(
0
-2.325103272
-6.526441281
-8.70152843
-8.188013766
-4.763825741
-1.763852313
-2.142104202
-4.653912753
-7.410107465
-9.45913656
-10.91847387
-12.73162883
-15.70549786
-19.70433505
-23.99951455
-28.0033108
-31.28221949
-34.15074747
-36.50350187
-38.8414889
-41.28200031
-43.81687353
-46.25980018
-48.43981554
-50.48139481
-52.41309728
-54.09873346
-55.23592615
-55.50105555
-54.41806093
-51.7499358
-49.19479625
-47.61520308
-48.07675942
-49.45804855
-50.80930334
-50.40344105
-49.03122506
-47.36553309
-46.98562222
-48.83002278
-53.30398238
-58.88312899
-64.09390677
-66.21916377
-65.26475709
-62.47777765
-61.78932223
-63.47655972
-66.99349172
-71.00623342
-73.64911044
-75.53815423
-76.62876541
-77.36434046
-78.05936191
-79.64433316
-82.19034379
-84.93309553
-86.54509961
-86.70847541
-85.99539845
-85.40499136
-84.86413812
-84.29440866
-83.43776044
-82.00232027
-79.7216703
-76.77559214
-73.67900022
-70.9262199
-68.16467717
-64.05726296
-57.82323943
-50.6480018
-45.06253874
-39.90304477
-33.60664752
-25.544606
-16.18513658
-11.38144892
-5.738961647
2.059180701
9.624632717
15.18681553
22.50946242
28.01831123
32.31661423
38.82168396
42.57867657
47.28049213
49.60755805
52.97792256
52.63594112
55.12480055
56.96615451
78.36036261
105.0860731
141.0663862
249.5431066
)


101
(
0
-2.40540192
-6.770515434
-9.074823879
-8.640899526
-5.138608109
-1.869712472
-1.98883947
-4.365056417
-7.087142477
-9.144850566
-10.58556882
-12.25775816
-15.00905091
-18.83748837
-23.07911583
-27.08827266
-30.56485767
-33.40069882
-35.83676618
-38.11332322
-40.52754683
-43.28427566
-46.2413834
-48.84308967
-51.09707771
-52.89470565
-54.46919479
-55.7379787
-56.51518769
-56.44916434
-55.3482942
-53.13469986