/*--------------------------------*- C++ -*----------------------------------*\
| =========                 |                                                 |
| \\      /  F ield         | OpenFOAM: The Open Source CFD Toolbox           |
|  \\    /   O peration     | Version:  2.3.1                                 |
|   \\  /    A nd           | Web:      www.OpenFOAM.org                      |
|    \\/     M anipulation  |                                                 |
\*---------------------------------------------------------------------------*/
FoamFile
{
    version     2.0;
    format      ascii;
    class       dictionary;
    location    "constant";
    object      la_i12;
}
// * * * * * * * * * * * * * * * * * * * * * * * * * * * * * * * * * * * * * //

la_i12_table
101
(

101
(
0
0
0
0
0
0
0
0
0
0
0
0
0
0
0
0
0
0
0
0
0
0
0
0
0
0
0
0
0
0
0
0
0
0
0
0
0
0
0
0
0
0
0
0
0
0
0
0
0
0
0
0
0
0
0
0
0
0
0
0
0
0
0
0
0
0
0
0
0
0
0
0
0
0
0
0
0
0
0
0
0
0
0
0
0
0
0
0
0
0
0
0
0
0
0
0
0
0
0
0
2.260513854e-05
)


101
(
0
0.1508597945
0.9212602585
2.634351789
5.263974913
8.657186299
12.61176567
16.88226869
21.24724061
25.49244435
29.41343627
32.82812642
35.59776744
37.57373107
38.70148712
38.96921812
38.4065656
37.10057729
35.23331568
32.93180628
30.38374791
27.73001646
25.09576994
22.56767201
20.19983166
18.02479992
16.05350746
14.28295778
12.70677019
11.30641779
10.06407634
8.959625223
7.966819661
7.10030607
6.334612456
5.658117941
5.110135636
4.683877371
4.234776323
3.793994426
3.395502617
3.037100714
2.715827306
2.42683507
2.164999058
1.929752938
1.718744131
1.530051601
1.360574182
1.208512659
1.072003375
0.9497324015
0.8402706703
0.7420937222
0.6539188629
0.5747449616
0.5043196747
0.4415242376
0.385769469
0.3362560454
0.2923735226
0.2535290132
0.2191144445
0.1886930202
0.1618630824
0.1382968182
0.1176745527
0.09973216155
0.08415175968
0.0705987555
0.0587858786
0.04855642366
0.03989655894
0.0327662137
0.02736773571
0.02284069827
0.01828448133
0.01432644235
0.0113645224
0.008949423687
0.006838122065
0.005067096659
0.003786618955
0.002978312797
0.002136693714
0.001501416907
0.00110492536
0.0007526397605
0.0004795005511
0.0003468822646
0.0002092710414
0.0001149635073
7.183027479e-05
3.788061838e-05
1.769708934e-05
5.98942556e-06
1.654333784e-06
2.580333302e-06
3.593493468e-06
5.414636261e-06
7.252773039e-06
)


101
(
0
0.1501018081
0.8987277989
2.561647527
5.11465731
8.408456887
12.24351522
16.38249217
20.61265874
24.73047213
28.54137184
31.87315614
34.59498563
36.5692962
37.74125163
38.09746127
37.66166075
36.51074641
34.80431906
32.66501842
30.26182214
27.72876952
25.18611876
22.72252159
20.39673353
18.24402417
16.28313796
14.5160304
12.93683677
11.53055402
10.27910581
9.16304968
8.161272997
7.278071542
6.499583755
5.814224438
5.238211318
4.766888681
4.325699845
3.895578974
3.49570693
3.135246374
2.812938826
2.522076319
2.256980091
2.016992259
1.801495027
1.608769176
1.435952908
1.280385862
1.140288221
1.014513772
0.9019519192
0.8009961749
0.7100678725
0.6279639613
0.5541809272
0.4881553191
0.4292633582
0.3767898965
0.3301343426
0.2886673924
0.2517732223
0.2189651191
0.1898202683
0.1639752444
0.1411120884
0.121047064
0.1035536079
0.08825037293
0.07474440313
0.06276427671
0.0523366561
0.04352550341
0.03651759736
0.03092600794
0.02563461518
0.02058150709
0.01651726171
0.01338819528
0.0107168224
0.008359168784
0.006477523331
0.005042911774
0.003936530473
0.002943745681
0.002090099968
0.001585548341
0.001140885716
0.0007530547959
0.0005406457784
0.000371518936
0.0002447999154
0.0001621297673
9.269709598e-05
4.449088104e-05
1.675210251e-05
3.004114114e-05
4.535985091e-05
7.185517446e-05
0.00010280276
)


101
(
0
0.149849491
0.8767503886
2.490619854
4.969176441
8.16578147
11.88562211
15.89837346
20.00025862
23.99734552
27.70606544
30.96261581
33.64343204
35.62033704
36.83924705
37.28411301
36.97479911
35.97738978
34.43098417
32.45458136
30.19932273
27.7911752
25.34683503
22.95345299
20.67385721
18.54782006
16.59860164
14.83359829
13.25075576
11.83821368
10.57825021
9.450843936
8.435650095
7.535414028
6.738970781
6.03753227
5.444984246
4.943386051
4.490344479
4.060088379
3.657021431
3.291495628
2.96536251
2.67152318
2.402745575
2.156765148
1.933947604
1.734541406
1.555942718
1.395068909
1.24949372
1.117972789
0.9997649687
0.8936820673
0.7980731299
0.7115802584
0.6331426517
0.562326495
0.4986639569
0.4415155714
0.3904395549
0.3448146572
0.3039918794
0.2674233777
0.2346680828
0.2053418058
0.179118838
0.1557406975
0.1351313861
0.1170176907
0.1009702173
0.08655182478
0.07369509759
0.06246270836
0.05296732937
0.04518589705
0.03839233124
0.03202893919
0.0263623456
0.0217513739
0.01796682489
0.01460123788
0.01173822845
0.009329503283
0.007465319108
0.00592949624
0.004560515159
0.003395249013
0.002646565065
0.002014837635
0.001482511064
0.001068898372
0.0007066815363
0.000532067486
0.0003439675755
0.0002033856232
0.0001095583454
0.0001793233583
0.0002587302408
0.0003674175165
0.0004800834201
)


101
(
0
0.1491532423
0.8553314572
2.421182865
4.827005688
7.92916543
11.53768392
15.42927072
19.40885525
23.29186884
26.9053773
30.09325514
32.73869061
34.72171356
35.98961916
36.5237768
36.3391422
35.49321047
34.10732466
32.29268434
30.18804578
27.91098267
25.56956017
23.25365653
21.02627663
18.93181608
16.99687716
15.23522623
13.6485855
12.22852361
10.95905763
9.820874872
8.793873529
7.874153695
7.059765319
6.343526211
5.728177923
5.201737288
4.732356669
4.294799164
3.883061127
3.507679433
3.174167698
2.875711635
2.602739323
2.3507154
2.119551644
1.910623535
1.723244488
1.555093027
1.402532519
1.263722451
1.137857174
1.024265402
0.9216758287
0.8287063223
0.7442387161
0.667312917
0.5975254216
0.534147
0.4769833364
0.4256246683
0.3794013617
0.3376801449
0.2999620713
0.2658651264
0.2350998418
0.2073110686
0.1823540816
0.1601286432
0.1403038748
0.1224506927
0.1063052066
0.09193066913
0.07931761219
0.06842806884
0.05891519518
0.05039360561
0.04266134042
0.03593610368
0.03025888729
0.02527150253
0.02093316864
0.01720077411
0.01410459345
0.01141906133
0.00921238113
0.007297859915
0.005630698017
0.00445839546
0.003411150723
0.002654529986
0.002021276952
0.001464645221
0.001066196237
0.0006960427606
0.0004002082522
0.0005439230109
0.0007597775204
0.001468847609
0.002331118296
)


101
(
0
0.1487314328
0.8345539161
2.353311216
4.688075194
7.698420274
11.19934308
14.97449806
18.83732851
22.61237599
26.13677466
29.26208265
31.8770435
33.87020374
35.18861607
35.81236315
35.75173288
35.05566039
33.82958224
32.17764629
30.2254989
28.08304801
25.85364309
23.62184208
21.45300053
19.39469694
17.47733219
15.72021719
14.13083582
12.70293097
11.4240643
10.27407037
9.230951044
8.295856431
7.45978354
6.721980241
6.085686017
5.53943746
5.054849339
4.604514382
4.181253623
3.791459308
3.444537323
3.137816915
2.859310583
2.601169466
2.361111671
2.14140829
1.943235513
1.765143743
1.603668391
1.45626441
1.321509642
1.198591271
1.086840636
0.9850409193
0.8925148201
0.8078984176
0.7306637897
0.6597271079
0.5949066141
0.5361946679
0.4829875539
0.4346454572
0.3905459824
0.3503178641
0.3137423134
0.280369365
0.2498654462
0.2222394541
0.1972551182
0.174651711
0.1540592569
0.1354816691
0.1188552172
0.1040449757
0.09083375552
0.0790071004
0.06823702282
0.05861474411
0.05017664036
0.04278958318
0.0363164526
0.03059610778
0.02569597097
0.02129812492
0.01750926692
0.01450639292
0.01171319283
0.009332037588
0.00757595739
0.005876395672
0.004666529609
0.003691399917
0.002765858354
0.001817393548
0.001125535924
0.002074614796
0.003175929342
0.004752837215
0.006418358015
)


101
(
0
0.1487998632
0.8143043454
2.286986262
4.552320559
7.473391741
10.87024139
14.53347611
18.28470746
21.95739185
25.39829749
28.46632753
31.05555271
33.06150195
34.43175725
35.14489431
35.20756881
34.65921705
33.59265545
32.10261222
30.30524342
28.30186943
26.18869301
24.04738526
21.94434642
19.92943512
18.03654393
16.28742206
14.6945851
13.25851215
11.96946304
10.81050572
9.758077461
8.803216558
7.944311278
7.184032884
6.524030644
5.954666599
5.453196897
4.992663697
4.556291436
4.149696951
3.785218403
3.464223818
3.177380607
2.912619553
2.66381429
2.432650772
2.221582046
2.03123384
1.85918042
1.701733414
1.556727189
1.423456826
1.301022505
1.188493958
1.085545914
0.9912708344
0.9048358086
0.8249814692
0.7512033591
0.6835539582
0.621778666
0.5652086472
0.5131845811
0.465270941
0.4213894654
0.3811471658
0.3439513372
0.309605115
0.2780606776
0.2492255914
0.2228170633
0.1987791407
0.1769539109
0.1570530991
0.1389902657
0.1227027314
0.1077831701
0.09422711764
0.08199328353
0.07103487457
0.0614878587
0.05286832732
0.0452497636
0.03843654861
0.03244342671
0.02728962242
0.02283716772
0.01869857467
0.01552784532
0.01265823514
0.0100590457
0.008156697411
0.006201464547
0.004688216943
0.003182815653
0.005226685829
0.00784518593
0.01318018217
0.01928306983
)


101
(
0
0.1484554133
0.7946188751
2.222186096
4.419673892
7.253901814
10.55005602
14.10557389
17.7500656
21.32549025
24.68807597
27.70355153
30.27086987
32.29224442
33.71554572
34.5177752
34.7021889
34.30071733
33.39283897
32.06520669
30.42452604
28.56457609
26.57400924
24.53180067
22.50292084
20.53856751
18.67506195
16.93863903
15.34648281
13.90290686
12.60300339
11.43130708
10.3664416
9.400651287
8.520238886
7.733801167
7.045353662
6.452366349
5.935302887
5.461711858
5.014861692
4.591139806
4.204857631
3.864296426
3.563801733
3.290919181
3.034431615
2.792416934
2.567441095
2.362154535
2.176611342
2.007519982
1.851629087
1.706958012
1.572971214
1.448546348
1.333457531
1.227380706
1.129869346
1.039453875
0.9552442199
0.8771421696
0.805124762
0.7387790129
0.6772558798
0.6199816525
0.5669987886
0.518282573
0.4730768867
0.4308083889
0.3913681623
0.3547126064
0.3207949545
0.2897401079
0.2613863392
0.235049646
0.210563031
0.1882265702
0.1677471594
0.1490466608
0.1318758682
0.1158702351
0.1018648797
0.08915898831
0.07764018849
0.06728978765
0.05782006581
0.04951552514
0.04227740198
0.03568296511
0.02947349027
0.02465472846
0.02068412564
0.01704320601
0.01383919804
0.0107354923
0.00727033617
0.01232965561
0.01885556885
0.03231413103
0.04917028987
)


101
(
0
0.1483550233
0.7755381355
2.15889127
4.290080795
7.039779807
10.23847815
13.69028924
17.2325245
20.7153831
24.00424973
26.9712727
29.5206938
31.5596749
33.03662907
33.9279794
34.23290273
33.97685855
33.2271819
32.06323663
30.57983633
28.86512813
27.00464793
25.06881677
23.12056416
21.21388789
19.3876443
17.66985811
16.08189654
14.63329822
13.32373116
12.14218522
11.06710167
10.08747351
9.189775955
8.378169434
7.661781921
7.040976743
6.500967803
6.015506206
5.560817876
5.122048769
4.715702194
4.351377534
4.030906746
3.74501157
3.479584824
3.228029713
2.990584437
2.77040525
2.568590358
2.384691604
2.216409655
2.059886424
1.913600667
1.776875555
1.648562876
1.529096901
1.41872088
1.316084826
1.220027625
1.130108392
1.046192549
0.9684116255
0.8958580972
0.8276599522
0.7637710446
0.7045277789
0.6494980067
0.5976999672
0.5488761799
0.5027824155
0.4595660572
0.4195881361
0.3829866518
0.3488855905
0.3164293133
0.2859899207
0.2577427241
0.2319253559
0.2085166182
0.1861405879
0.165763817
0.1473205965
0.1298947428
0.1145249302
0.0999042215
0.08759571358
0.07586343261
0.06547318108
0.05557346667
0.0481484374
0.04073208498
0.03403746999
0.02826664261
0.02225316654
0.01723961213
0.02856951841
0.04306847452
0.07045382403
0.1093516331
)


101
(
0
0.1486797758
0.7569676633
2.097072114
4.163466667
6.830909523
9.93522317
13.28713006
16.73128383
20.12589162
23.34523004
26.26771222
28.80214242
30.86007804
32.39169006
33.37190561
33.79608416
33.68395836
33.09287829
32.09077421
30.76810356
29.20496588
27.4776542
25.65420736
23.7956035
21.95610799
19.8587884
18.4847529
16.90652353
15.45614417
14.1379413
12.94444236
11.8590807
10.8706378
9.959544031
9.126214364
8.378892143
7.72605691
7.16297374
6.661578115
6.196400506
5.749738246
5.324778473
4.935751104
4.592018914
4.289033937
4.012470724
3.751101937
3.501918332
3.267434291
3.049989514
2.850241335
2.66628426
2.496549657
2.33790603
2.18773741
2.04620084
1.912605231
1.788147083
1.671712558
1.562454482
1.459450276
1.362294425
1.271539363
1.186520321
1.105963899
1.02939086
0.9574230683
0.8902665422
0.8270815478
0.7672328582
0.7101155457
0.6554927762
0.6041290135
0.5569058847
0.5133015444
0.4715198189
0.4311464145
0.3927610977
0.3570674082
0.3249318515
0.2947108596
0.2658126595
0.2395401604
0.2139099882
0.1912516492
0.169520239
0.151288967
0.1335519318
0.1166034335
0.1010984805
0.08826755826
0.07633858299
0.06563039829
0.05629940174
0.04580770769
0.03504727761
0.06084934754
0.09232736074
0.1430185139
0.1810672791
)


101
(
0
0.1486815828
0.7389651043
2.03672278
4.039790519
6.627150586
9.640001617
12.89559904
16.24558708
19.55605863
22.70944666
25.59083223
28.11264565
30.19165225
31.77850599
32.84648095
33.38863341
33.42022465
32.98557018
32.14834443
30.98730216
29.57673424
27.99004171
26.2882052
24.52765102
22.762572
21.03659653
19.38009568
17.81929464
16.37192591
15.0474528
13.84434314
12.74707404
11.75098869
10.82887316
9.978365275
9.206568138
8.523830923
7.930283119
7.408977244
6.934005368
6.481982409
6.04330031
5.634217162
5.263826313
4.937817315
4.646436229
4.376462078
4.116058933
3.868852349
3.63626258
3.420725314
3.221713391
3.036561221
2.863883198
2.700531749
2.545717018
2.397819308
2.258586041
2.127712395
2.003980773
1.886721638
1.775208413
1.670069039
1.571052296
1.476890299
1.386635425
1.300193368
1.218732424
1.14185708
1.068997593
0.999067145
0.9312214419
0.8659757941
0.8050652006
0.7490372246
0.696133696
0.6443222685
0.5934930033
0.5451888499
0.5011080113
0.4605149227
0.4207061437
0.3833151658
0.3473180577
0.3150590034
0.2836609562
0.2552937373
0.2294049982
0.2030952062
0.1790331677
0.1593641412
0.1401442645
0.122394024
0.1068608994
0.09140876763
0.07520790228
0.1193433195
0.1774352403
0.2820127246
0.4382081605
)


101
(
0
0.1488870704
0.7215062381
1.97781227
3.918989139
6.428361526
9.352554192
12.51525029
15.77475617
19.00464352
22.0955917
24.93869724
27.45047966
29.55146912
31.19398559
32.34894396
33.00842501
33.18116771
32.90401611
32.23145536
31.2334661
29.98017214
28.53847111
26.96412075
25.31105471
23.63122837
21.96857021
20.35626246
18.8211976
17.38336575
16.056503
14.84571172
13.74113971
12.73554948
11.80694227
10.94568984
10.1535906
9.439180471
8.815271152
8.273330344
7.783118364
7.323572871
6.880692161
6.456213841
6.063970049
5.715013996
5.403776055
5.119780027
4.852018826
4.59410039
4.348331494
4.117703923
3.90315016
3.703496793
3.515927418
3.339299893
3.171167655
3.009269405
2.855201217
2.709577042
2.571137274
2.438939224
2.312286137
2.191477048
2.077185722
1.968541612
1.863816058
1.762161551
1.66466208
1.571938366
1.484052975
1.399635855
1.316898711
1.235528028
1.157715661
1.085368944
1.01829332
0.9533760922
0.8877710467
0.8239887002
0.7643274478
0.7096421814
0.6563891579
0.6039718198
0.5535089089
0.5086936358
0.4645063184
0.4224966656
0.3827755465
0.3464622229
0.3091831534
0.2792590702
0.2495099454
0.2229999495
0.1967046407
0.1709461377
0.1439921529
0.2335985582
0.3448880933
0.5090723694
0.6709513894
)


101
(
0
0.1494184848
0.7045734928
1.920325767
3.801009958
6.234417325
9.072622688
12.14564304
15.31809741
18.4708405
21.50243098
24.30981419
26.81330158
28.93771824
30.63567605
31.87710126
32.65211295
32.96474782
32.84506862
32.33689074
31.50504959
30.41325913
29.12134617
27.68221656
26.14537927
24.56060742
22.9706462
21.41106394
19.91132027
18.49266406
17.17155045
15.9547795
14.8389642
13.82987009
12.89780823
12.03058088
11.22515106
10.49018142
9.837782131
9.26716827
8.759938028
8.295048562
7.851757196
7.419797902
7.010641262
6.637440417
6.305971969
6.008865102
5.729561227
5.463374763
5.207942059
4.965583482
4.737625923
4.523616967
4.322812498
4.132996027
3.951939385
3.777312562
3.609462975
3.449197133
3.296412719
3.149566383
3.007595293
2.870667582
2.740121894
2.616039678
2.496621504
2.379779274
2.265700852
2.15549169
2.050748386
1.950314805
1.85120268
1.752156671
1.655145296
1.562725717
1.476724292
1.395442938
1.313134001
1.231055135
1.151549973
1.07753689
1.007237144
0.9358779679
0.8656724915
0.8037314211
0.7428972202
0.6834435811
0.6229288498
0.5713223927
0.5205714669
0.473869852
0.4257794101
0.3857449647
0.346773142
0.3071163698
0.2654092698
0.4099089545
0.591060501
0.8486085812
1.204954794
)


101
(
0
0.1497492693
0.6881671453
1.864241767
3.685802549
6.045194968
8.799958914
11.78635473
14.8751037
17.95379392
20.92873576
23.70260998
26.19936016
28.34756432
30.10071175
31.42834932
32.31710686
32.76914759
32.80497832
32.46420823
31.7993765
30.86987695
29.73422823
28.43741801
27.02463956
25.54331607
24.03722679
22.54287232
21.08990737
19.70005822
18.39170393
17.17836468
16.06167722
15.04463022
14.10983476
13.24305508
12.4354138
11.68605494
11.00546886
10.41066726
9.886380341
9.410461597
8.967951949
8.536732869
8.120172594
7.732532095
7.37993768
7.064537032
6.778597475
6.50559731
6.241650183
5.990531696
5.75292608
5.528801511
5.316436871
5.115083473
4.923489455
4.737828739
4.558512239
4.385755689
4.220153239
4.059723486
3.903653465
3.751373362
3.60449866
3.464491231
3.329796415
3.198350282
3.06798381
2.939973275
2.817091927
2.699391506
2.58267274
2.464848403
2.347615346
2.232702792
2.122710407
2.019861168
1.917208362
1.814397195
1.711517475
1.612032717
1.518577178
1.424302644
1.327625318
1.240817585
1.158761737
1.074716377
0.9899713794
0.9136531996
0.8425903413
0.7742494047
0.7024045561
0.6401745371
0.5821426056
0.5227867693
0.4524776726
0.6748132203
0.9521445975
1.327742513
1.934657452
)


101
(
0
0.1502373942
0.6722759615
1.809537704
3.57331434
5.860575588
8.534331168
11.43701949
14.44509864
17.45274702
20.37336879
23.11563315
25.60699641
27.77936439
29.58749629
30.99991974
32.00168883
32.59066072
32.78331202
32.60842445
32.11326417
31.35136741
30.37578236
29.22738812
27.94715329
26.58041713
25.16942737
23.7501569
22.35506435
21.00631436
19.72329378
18.51911283
17.40162772
16.38810343
15.45394854
14.59239454
13.78700024
13.03443445
12.34131674
11.72362968
11.17828025
10.69554086
10.25280809
9.8300913
9.415108684
9.017427981
8.651316545
8.323259493
8.024576732
7.749286099
7.483950442
7.225627807
6.982596564
6.752196853
6.532809132
6.324650808
6.126671426
5.933859671
5.746842727
5.565047397
5.389885883
5.21890622
5.05123129
4.886266649
4.725113174
4.569417236
4.420135322
4.274136245
4.129192853
3.983875526
3.842108964
3.706071482
3.570593526
3.432731639
3.294804696
3.1571216
3.020569399
2.889286388
2.759919023
2.632404008
2.503339908
2.372921607
2.24771906
2.124851605
1.995579614
1.871805834
1.760480732
1.643612676
1.526881462
1.416059738
1.315312414
1.212267722
1.116041363
1.01916798
0.935316199
0.8441368882
0.7421648648
1.077250701
1.484535023
2.019499933
2.086893604
)


101
(
0
0.1509195563
0.6569970733
1.756193732
3.463494437
5.680446347
8.27551411
11.09721025
14.02757307
16.96694191
19.83535625
22.54769352
25.03442486
27.23110961
29.09388861
30.58984701
31.70270853
32.42803501
32.77555889
32.76850802
32.44467145
31.85163059
31.04094827
30.04834666
28.91054374
27.6675905
26.36134927
25.0282513
23.70243294
22.40803422
21.16423136
19.98499609
18.87818212
17.86727408
16.93916871
16.086122
15.29163275
14.54344353
13.84812894
13.22202294
12.66548654
12.17059905
11.72810876
11.31418431
10.91331036
10.52349089
10.15103423
9.81053194
9.507710647
9.229608382
8.966331643
8.711848774
8.466917196
8.235555427
8.015583532
7.805868083
7.607152552
7.414335118
7.225863997
7.041297238
6.861234093
6.685063034
6.510492662
6.337625922
6.166608148
5.998260275
5.835849516
5.677147322
5.519170951
5.358329897
5.197881045
5.04264724
4.886863326
4.727159515
4.566974235
4.406699942
4.243768472
4.079676977
3.915429849
3.754369506
3.594357211
3.429341204
3.262591508
3.100275529
2.934274511
2.761196795
2.603593694
2.446665449
2.284086306
2.126452839
1.984646389
1.828663017
1.698257255
1.559697836
1.43567933
1.309568221
1.173639032
1.641709838
2.217695349
3.016141386
4.516011938
)


101
(
0
0.1515522827
0.641956962
1.704198621
3.356303335
5.504703439
8.023293849
10.76658144
13.62197829
16.49568423
19.31383164
21.99744986
24.48030063
26.70122164
28.61762276
30.19615417
31.41856593
32.27812889
32.77953133
32.94043587
32.78869192
32.36865112
31.72758611
30.89646439
29.90990303
28.8029203
27.61352001
26.37885683
25.13435302
23.90743151
22.71765827
21.57769572
20.49316001
19.49656081
18.58017316
17.73912856
16.95916772
16.23296728
15.5543409
14.92447867
14.36314371
13.86079919
13.41977384
13.02193179
12.6430107
12.26978814
11.90654297
11.56755037
11.26034724
10.98764639
10.73472486
10.48883885
10.25215228
10.02682622
9.814220053
9.611479156
9.418404295
9.232913727
9.052517982
8.874537673
8.698787813
8.525122677
8.351171796
8.177680131
8.002635415
7.828926751
7.657718648
7.489657809
7.32171947
7.14775227
6.970734817
6.795755515
6.618625889
6.434408566
6.248139987
6.064205577
5.874714737
5.678696201
5.472723533
5.2664081
5.064965541
4.859116685
4.642522278
4.424440027
4.211344379
3.982916512
3.757559274
3.545466948
3.325716923
3.104586348
2.904387059
2.683755064
2.495326197
2.306571024
2.128810221
1.952765804
1.756504194
2.43215187
3.257731141
4.440447022
5.83924737
)


101
(
0
0.1522889801
0.6276289339
1.653518699
3.251681158
5.333233729
7.777470901
10.44478982
13.22791315
16.03832976
18.80793231
21.46380459
23.94322033
26.18793833
28.15716383
29.81685924
31.14655653
32.13868779
32.79293091
33.12036995
33.14322327
32.8996939
32.43149196
31.76986029
30.94290847
29.98265095
28.92193677
27.79705461
26.64647729
25.50016116
24.38020872
23.29450392
22.2505455
21.27938364
20.3806587
19.56243654
18.81309035
18.11192251
17.45407697
16.84721273
16.29567913
15.79770318
15.3617637
14.97699552
14.6242101
14.28718153
13.94961772
13.62564604
13.32808197
13.06432113
12.82951376
12.60774973
12.39010337
12.18157742
11.98472623
11.79884144
11.62487408
11.4563826
11.29281279
11.1323179
10.97392239
10.81372696
10.65147923
10.4875264
10.31881553
10.14828861
9.976011614
9.804280118
9.631838415
9.450907804
9.261553732
9.068069775
8.869427415
8.65828104
8.439992331
8.226188633
8.010318382
7.782575481
7.533803041
7.273997909
7.016091657
6.754168012
6.48153521
6.19056326
5.909286248
5.61895715
5.312103724
5.016974363
4.728201252
4.424391034
4.143154792
3.846486971
3.577578344
3.320556329
3.077232598
2.831135986
2.568087381
3.544003169
4.745513432
6.514076184
7.92018913
)


101
(
0
0.1531120089
0.6137096666
1.604138819
3.149587439
5.165941569
7.537818157
10.13149891
12.84470683
15.59418098
18.31697864
20.94598756
23.42197675
25.68983399
27.71056879
29.44975684
30.8851166
32.00709234
32.81262303
33.3068263
33.50551032
33.44033802
33.15106708
32.66342152
32.00363411
31.20059998
30.28338045
29.28400483
28.24035749
27.18649169
26.15006532
25.13746994
24.14991306
23.22918533
22.36165679
21.57313944
20.85377572
20.19138349
19.58083274
19.00898629
18.48076692
18.00497471
17.57841044
17.21368572
16.89723623
16.60095676
16.31068395
16.02393382
15.75023205
15.51085236
15.30356632
15.11550686
14.93503828
14.75831591
14.59231881
14.43746907
14.29462803
14.15645991
14.02449777
13.89745329
13.76728117
13.63678226
13.50067304
13.3587568
13.20910939
13.0536446
12.89152847
12.72582028
12.55621965
12.37647685
12.18056829
11.97486239
11.75882484
11.52148634
11.26747476
11.01446194
10.76329533
10.5010869
10.21195579
9.898162427
9.570767939
9.232044676
8.892268258
8.517999309
8.138811494
7.770600614
7.38090186
6.972962455
6.594517115
6.193102227
5.801225003
5.414864484
5.04799977
4.694300589
4.371114593
4.035122381
3.684996649
5.126317854
6.905555492
9.543738615
13.30988029
)


101
(
0
0.1539822182
0.6005082441
1.556041999
3.049978745
5.002663329
7.304190818
9.826393171
12.47197198
15.16259616
17.84016949
20.44271847
22.91542784
25.20568634
27.27642238
29.09291624
30.63160119
31.88084833
32.83574741
33.49585584
33.87203796
33.98781843
33.88056492
33.57305258
33.08989569
32.45555898
31.69457154
30.83489251
29.91319839
28.96649954
28.02775124
27.10209343
26.19861844
25.34086689
24.52510863
23.7752077
23.10835669
22.49448666
21.93169803
21.4129952
20.93747836
20.49825957
20.10631583
19.77294558
19.48794436
19.25100857
19.02118958
18.79523158
18.57358709
18.37372775
18.20669453
18.07093179
17.9460832
17.82261465
17.70349838
17.59786772
17.50698107
17.41659221
17.33172167
17.24937154
17.17061868
17.08785964
16.99564421
16.89256812
16.77816829
16.65317041
16.51583665
16.36861342
16.2127322
16.0422819
15.84988885
15.64208286
15.41549849
15.1588586
14.87232071
14.57402988
14.27422483
13.97021089
13.63743498
13.2725032
12.87551547
12.4425931
12.0174002
11.55365605
11.05942443
10.58096873
10.10667664
9.569061998
9.072059087
8.563233223
8.034926664
7.532042866
7.053946452
6.581824687
6.158740259
5.718226305
5.271524003
7.403745573
10.0417308
13.91172336
18.81564672
)


101
(
0
0.1551293176
0.587103063
1.509196309
2.952801245
4.84348904
7.076406456
9.52917377
12.10921869
14.74293521
17.37677515
19.95344432
22.42243726
24.73405748
26.85285588
28.74448806
30.38375779
31.75823463
32.85951181
33.68494107
34.23889172
34.53953891
34.61867601
34.49681409
34.19678021
33.74003265
33.14830482
32.44426514
31.66308032
30.83973337
30.00922798
29.19573571
28.38754464
27.61727696
26.88279889
26.1904618
25.57778258
25.02393887
24.53486792
24.09314631
23.68479564
23.30429092
22.97250789
22.68184442
22.44809498
22.26979535
22.12384929
21.98552221
21.83967907
21.70774631
21.59967815
21.5308564
21.48224715
21.43788222
21.39524922
21.35916171
21.34013063
21.32143006
21.30555829
21.2917861
21.27840127
21.2651917
21.23912255
21.19675883
21.13955411
21.06215556
20.96843334
20.85763783
20.72863626
20.58097698
20.40520772
20.20496999
19.97923686
19.71721078
19.41182806
19.07376158
18.71778754
18.35923745
17.97390976
17.55561315
17.10023355
16.56879685
16.03752249
15.48139672
14.87127246
14.25447564
13.68168996
13.01053621
12.36463711
11.73624171
11.05681214
10.41785455
9.799503482
9.196793906
8.653291657
8.107015545
7.568729076
10.69285795
14.55765954
20.11111983
26.42578749
)


101
(
0
0.1553208717
0.5747373789
1.463594151
2.858023775
4.688168375
6.854297121
9.239547979
11.75599304
14.3346041
16.926051
19.47734229
21.94234855
24.27370954
26.43846997
28.40265857
30.14003035
31.63591084
32.88210884
33.87055988
34.60340596
35.09158752
35.36073801
35.43012395
35.32048769
35.05051844
34.6416344
34.11096744
33.48748111
32.80485051
32.10117437
31.40449907
30.72080144
30.06654098
29.42452209
28.82066431
28.27707027
27.81392982
27.39832317
27.04344622
26.7289747
26.44636922
26.19956171
25.98112176
25.81577457
25.70835547
25.65830508
25.62106936
25.59604833
25.56220247
25.54354057
25.55761858
25.60968894
25.67193935
25.73422649
25.80355889
25.88285876
25.96592145
26.04442617
26.12148513
26.2011248
26.27969477
26.34546851
26.3876884
26.41292048
26.40823239
26.37978793
26.32675156
26.24720606
26.13920577
25.99493518
25.81631847
25.6058784
25.35608313
25.05450488
24.698806
24.2916789
23.87267508
23.43285998
22.95495596
22.44524351
21.82517993
21.17668996
20.5236984
19.81432221
19.05780153
18.35758861
17.55850373
16.74186137
15.97800764
15.13763736
14.36030852
13.57157136
12.82387404
12.14434965
11.50554349
10.88797373
15.3802784
20.92182224
28.72440333
37.57426637
)


101
(
0
0.1571793587
0.5626110167
1.419198664
2.765591647
4.53665874
6.637678578
8.957246837
11.41188782
13.93699561
16.48724861
19.01370043
21.47374794
23.82352003
26.03189631
28.06588435
29.89848508
31.51270749
32.90001258
34.05017416
34.9615427
35.63872423
36.10210997
36.36848518
36.45433889
36.38226131
36.16707014
35.82439295
35.37716066
34.85504946
34.29769291
33.74361016
33.19013605
32.67251622
32.15891383
31.6715688
31.22597575
30.8511208
30.54186854
30.30062936
30.10490192
29.93797751
29.80011079
29.69741783
29.62514667
29.61454152
29.66208448
29.7666344
29.87470277
29.98609211
30.09623107
30.22249034
30.39412713
30.58900832
30.79583614
31.00389222
31.22252535
31.43818195
31.64924814
31.85024703
32.04703801
32.24434023
32.43575322
32.59505681
32.7273373
32.82463898
32.88826372
32.92080372
32.9195303
32.87878083
32.7884294
32.64856423
32.46905155
32.25036227
31.97840515
31.63842677
31.21074223
30.74589113
30.25861357
29.72148294
29.15432879
28.46540953
27.70656926
26.95564404
26.1612893
25.29884961
24.44528215
23.5265968
22.53547565
21.62246596
20.61428786
19.70857951
18.72563499
17.82863887
16.99884292
16.28472437
15.6076796
21.92477316
29.69620698
40.43376013
73.36003372
)


101
(
0
0.1577686782
0.5509063473
1.375993788
2.675462277
4.388794429
6.426469256
8.682014975
11.07649302
13.54958996
16.05966989
18.56161825
21.01606331
23.38244167
25.6318457
27.73262632
29.65674903
31.38649461
32.91162296
34.2208994
35.30900705
36.17738404
36.83837402
37.30695877
37.59798718
37.73055832
37.72116391
37.58158441
37.32951606
36.9910069
36.60113772
36.1979258
35.80333329
35.44206017
35.08327958
34.73331445
34.42171757
34.16723711
33.98110172
33.86757826
33.81021527
33.79184964
33.80939888
33.857953
33.92187703
34.02936131
34.201893
34.44989033
34.73334864
35.03060077
35.30918973
35.59577818
35.90928992
36.26387682
36.6429637
37.03919216
37.44411205
37.83165371
38.21578413
38.58246194
38.93476978
39.28469074
39.62682489
39.94251317
40.22014771
40.45520329
40.64254045
40.79315908
40.90572082
40.96836509
40.9660771
40.89598869
40.77474341
40.60783772
40.38509288
40.08745324
39.68705513
39.22029252
38.71282918
38.14344935
37.52494276
36.781027
35.94484949
35.1030322
34.24556991
33.3267229
32.31464987
31.28308412
30.13467292
29.06832482
27.89719844
26.8679473
25.69218465
24.65086471
23.6541257
22.88219545
22.18435467
30.87941423
41.54700948
56.04553282
25.70349586
)


101
(
0
0.1462234708
0.5396186152
1.33395855
2.587600364
4.244838638
6.220426918
8.413601031
10.74949989
13.17186146
15.64265034
18.12034589
20.56841028
22.94953576
25.23720131
27.40135011
29.41362483
31.25543342
32.91499807
34.3801139
35.6434661
36.70201099
37.56343396
38.23985745
38.74311542
39.08905396
39.29503687
39.37126194
39.3329154
39.19932164
39.00068344
38.77641948
38.55068001
38.36668873
38.19100383
38.0175637
37.86371517
37.7549847
37.71659827
37.763751
37.87912294