/*--------------------------------*- C++ -*----------------------------------*\
| =========                 |                                                 |
| \\      /  F ield         | OpenFOAM: The Open Source CFD Toolbox           |
|  \\    /   O peration     | Version:  2.3.1                                 |
|   \\  /    A nd           | Web:      www.OpenFOAM.org                      |
|    \\/     M anipulation  |                                                 |
\*---------------------------------------------------------------------------*/
FoamFile
{
    version     2.0;
    format      ascii;
    class       dictionary;
    location    "constant";
    object      la_i6;
}
// * * * * * * * * * * * * * * * * * * * * * * * * * * * * * * * * * * * * * //

la_i6_table
101
(

101
(
0
0
0
0
0
0
0
0
0
0
0
0
0
0
0
0
0
0
0
0
0
0
0
0
0
0
0
0
0
0
0
0
0
0
0
0
0
0
0
0
0
0
0
0
0
0
0
0
0
0
0
0
0
0
0
0
0
0
0
0
0
0
0
0
0
0
0
0
0
0
0
0
0
0
0
0
0
0
0
0
0
0
0
0
0
0
0
0
0
0
0
0
0
0
0
0
0
0
0
0
-0.1619143828
)


101
(
0
-2.913861087
-3.667785134
-7.345007559
-12.03013102
-18.41298469
-27.1501364
-37.82485923
-49.79061279
-62.259201
-74.79879795
-86.42648732
-96.14892817
-103.5520247
-108.1219856
-109.6576576
-108.2650144
-104.3655755
-98.07404604
-90.61235595
-82.08332609
-72.8690455
-63.65034184
-54.67899022
-46.4023375
-38.87710775
-32.3066741
-26.71042863
-22.05867296
-18.25700132
-15.14567564
-12.60281023
-10.62665363
-9.250546852
-8.491729258
-8.217060819
-7.468455029
-5.852474476
-5.028883359
-4.84533058
-5.157315978
-5.859950577
-6.761279498
-7.787851584
-8.782324441
-9.65598711
-10.42539607
-11.09869261
-11.70737078
-12.37946162
-13.18291416
-14.14443746
-15.09718796
-15.86994219
-16.36059151
-16.60637056
-16.74386753
-16.84020284
-16.87869475
-16.84553463
-16.77398408
-16.68569261
-16.54850705
-16.30367903
-15.92872918
-15.47385389
-15.01683436
-14.57126455
-14.08196878
-13.41629153
-12.40658065
-11.09256117
-9.971605708
-9.647623567
-9.997135292
-9.82361553
-8.473304738
-7.106364242
-6.518932281
-6.222522469
-5.627360463
-4.613020676
-4.215530599
-4.040442874
-3.007589476
-2.508117115
-2.31947652
-1.8482222
-1.446932633
-1.48880089
-0.8091584296
-0.62829302
-0.5527597115
-0.2678136437
0.1266826484
0.1785254412
-0.02788407623
-0.03264567685
-0.03741789244
-0.04466355202
-0.05193345299
)


101
(
0
-3.698675324
-4.592069038
-7.98181959
-12.18615684
-18.13663747
-26.59823329
-37.24058985
-49.04527132
-61.33727838
-73.56072004
-85.05350357
-94.78502675
-102.2482089
-106.9246233
-108.6844957
-107.5322182
-103.6866955
-97.65971101
-90.23514569
-82.17752455
-73.42767253
-64.48334635
-55.61408696
-47.21882185
-39.59196014
-32.80102051
-26.93186395
-21.98923783
-17.91382281
-14.52947276
-11.61143147
-9.141805905
-7.295130248
-6.248807821
-5.870410936
-5.436539696
-4.235009275
-2.842508283
-1.752227292
-1.199742406
-1.362593364
-2.057700967
-3.06414243
-4.056413201
-4.888964514
-5.528539772
-5.969026195
-6.260199926
-6.540605946
-7.028190587
-7.912663506
-9.105021255
-10.23862979
-11.02310727
-11.37173655
-11.49783583
-11.5996335
-11.68797294
-11.73537113
-11.76065652
-11.83654445
-11.96658696
-12.04688547
-11.98631749
-11.80214927
-11.59307029
-11.43189634
-11.30595053
-11.07123298
-10.39460437
-9.090676541
-7.562165833
-6.905900048
-7.668673183
-8.644302246
-7.952555365
-6.251762507
-5.343792111
-5.34974435
-5.234612305
-4.251267615
-3.735450769
-3.647385008
-3.383517914
-2.541506866
-2.091636985
-1.936872495
-1.524759089
-1.26275609
-1.187471036
-0.703573342
-0.6124210259
-0.4836915346
0.3325228359
0.3033766694
-0.09748753314
-0.1098699144
-0.1219999555
-0.133487266
-0.1460878081
)


101
(
0
-4.545748834
-5.533440842
-8.660589719
-12.37555842
-17.80441086
-26.00067472
-36.55055431
-48.19231262
-60.16577773
-72.0354798
-83.36516557
-92.97081558
-100.4164244
-105.161712
-106.9941245
-106.0495797
-102.3348956
-96.52639544
-89.07102062
-81.28118439
-73.18194363
-64.49987216
-55.89834554
-47.45911133
-39.7271195
-32.7690737
-26.67484814
-21.46668217
-17.12049483
-13.51982692
-10.38116451
-7.512233066
-5.151575493
-3.599248468
-3.049120783
-2.794455135
-2.107609373
-0.7246720208
1.02901256
2.413818554
2.949888243
2.684529642
1.846874564
0.7854781477
-0.1260717979
-0.7431567053
-1.140807004
-1.332667199
-1.360199175
-1.497764837
-2.038892229
-3.135470206
-4.525486685
-5.707454603
-6.413243701
-6.696033748
-6.869183644
-7.036599871
-7.190027173
-7.326393325
-7.507095156
-7.787048374
-8.110909224
-8.367286667
-8.500890867
-8.57325137
-8.652611853
-8.776502432
-8.874087066
-8.609723432
-7.633951654
-6.158008646
-5.230640331
-5.753991908
-7.129967679
-7.310937267
-6.000571272
-4.82379436
-4.716446186
-4.920988196
-4.142921537
-3.589105644
-3.299212921
-3.262799994
-2.943209119
-2.234207094
-1.936269636
-1.714998771
-1.494263329
-1.307040939
-1.099526749
-0.7220405335
-0.613039666
0.4134332361
0.3978366372
-0.2494241687
-0.2604193749
-0.2686946663
-0.2678252982
-0.2577412407
)


101
(
0
-5.318254399
-6.495587651
-9.370702656
-12.59734278
-17.47824599
-25.35755477
-35.77352255
-47.2254864
-58.83154622
-70.30649581
-81.29132111
-90.95430569
-98.30809714
-103.0811688
-105.0371096
-104.1925073
-100.6304427
-94.97514548
-87.6214858
-79.88224458
-72.14164321
-64.05264407
-55.68265362
-47.31852185
-39.46133302
-32.37799939
-26.10052055
-20.66904545
-16.07614125
-12.27814067
-9.009729479
-5.978527192
-3.167366914
-1.108245266
-0.1562278602
0.0936518309
0.4412692767
1.577242914
3.390703455
5.459937424
6.813912225
7.103405068
6.560903419
5.551818962
4.526745223
3.753723519
3.332998887
3.194811897
3.191392803
3.252348741
3.06793953
2.335997894
1.046013795
-0.3464778509
-1.421791303
-2.014360119
-2.341447198
-2.629577433
-2.892132613
-3.146288752
-3.435014363
-3.812607656
-4.26390263
-4.725006022
-5.138467632
-5.503237317
-5.832988688
-6.162960622
-6.473658531
-6.495033702
-5.837968493
-4.612938339
-3.785002594
-4.198162339
-5.506756132
-6.083552111
-5.399137388
-4.43751129
-4.183716675
-4.429958969
-3.888402844
-3.50063884
-3.183890433
-3.080136034
-2.929965427
-2.616741976
-2.097630114
-1.814063917
-1.631750476
-1.406205273
-1.269219982
-1.016814994
-0.7749212843
0.4583376886
0.4697265582
-0.3839018104
-0.366984489
-0.3577771955
-0.4702594668
-0.6157798599
)


101
(
0
-6.121335186
-7.485040708
-10.11272121
-12.85355657
-17.1643521
-24.67171989
-34.92904747
-46.17277268
-57.41012246
-68.45063568
-79.07259834
-88.59122078
-95.86991502
-100.494649
-102.5255654
-101.86768
-98.4568135
-92.85477855
-85.55373809
-77.94643813
-70.49723825
-62.85980618
-54.85479821
-46.71354636
-38.84684023
-31.71309963
-25.32667325
-19.69532115
-14.89108585
-10.90123872
-7.548905734
-4.440378557
-1.423446509
1.106063106
2.660700802
3.117088468
3.160554327
3.789697192
5.480454395
7.778698882
9.803340081
10.85492553
10.7144642
9.879557109
8.832768693
7.936802658
7.39113176
7.134030207
7.065335839
7.144814783
7.131890155
6.694369707
5.715011952
4.366649647
3.149004428
2.241778147
1.685913725
1.22736172
0.8239706705
0.4492391348
0.03481574162
-0.4422605774
-0.9816098165
-1.541722613
-2.119363151
-2.709814808
-3.269415787
-3.77930673
-4.231709743
-4.40516132
-3.944921547
-2.910365481
-2.274951086
-2.816330353
-4.083875522
-4.674773062
-4.341133802
-3.808217715
-3.708738342
-3.892161453
-3.416107885
-3.241152911
-3.026549124
-2.924594526
-2.77623535
-2.665766812
-2.332968933
-1.966819357
-1.784478865
-1.590669693
-1.397762267
-1.242945509
-0.9740313867
0.5146880366
0.5448269764
-0.5380205461
-0.6595296455
-0.7751279546
-0.7315247641
-0.6290596642
)


101
(
0
-6.985964816
-8.490941677
-10.88588187
-13.14505121
-16.86206748
-23.96265035
-34.02201524
-45.04368866
-55.91682983
-66.44980152
-76.6961277
-85.96696965
-93.17858565
-97.71643014
-99.70814912
-99.2401883
-95.9770585
-90.6863942
-83.32921861
-75.72039958
-68.58237188
-61.34535171
-53.87200629
-46.0007496
-38.15960317
-30.90255787
-24.42217541
-18.68844227
-13.69734589
-9.501174111
-6.027962119
-2.964770016
0.09730544921
2.951699114
5.007248902
5.857699541
5.950353575
6.213169753
7.392949399
9.585056747
11.95135158
13.54606858
13.94366258
13.27868253
12.18277035
11.16182795
10.44698187
10.0199178
9.754599829
9.518532084
9.336063623
9.002865593
8.188699984
6.946725431
5.691660155
4.642558158
3.847252064
3.21785945
2.651679428
2.141621587
1.619014141
1.046756884
0.4697976802
-0.1026460927
-0.6865815862
-1.338638723
-2.013149705
-2.619385347
-3.102042224
-3.27783683
-2.849736271
-1.863353433
-1.305677272
-1.988855387
-3.309702827
-3.808316899
-3.487482474
-3.187472062
-3.357877522
-3.614332136
-3.030338775
-2.966341659
-2.861908053
-2.794183651
-2.618894327
-2.657937315
-2.470801871
-2.171163212
-1.918586467
-1.822477846
-1.654922882
-1.448990474
-1.166303876
0.6103084394
0.5163603499
-0.8008202151
-0.848695557
-0.8714964951
-0.6966816211
-0.4674564566
)


101
(
0
-7.779055858
-9.516359834
-11.69085325
-13.47527458
-16.58556305
-23.22632592
-33.054219
-43.84677644
-54.33538117
-64.36910624
-74.14303445
-83.18070964
-90.31404808
-94.83244832
-96.7637548
-96.38360785
-93.3733979
-88.11852997
-81.12379055
-73.36174304
-66.12049726
-59.41577247
-52.43694647
-44.8929878
-37.18751529
-29.91585292
-23.36403411
-17.55283855
-12.45318147
-8.101759078
-4.514857206
-1.463425958
1.465055711
4.398696464
6.838099284
8.208950753
8.470263516
8.363883313
9.015732369
10.66623691
12.95387212
14.86235514
15.62558951
15.11919695
13.82182841
12.40502607
11.29434672
10.55882521
10.11225446
9.565621371
8.948124076
8.289940659
7.472058677
6.28672031
5.037802093
4.026240726
3.224074687
2.604567141
2.057416361
1.586019701
1.125298165
0.6270012039
0.1363483328
-0.2794519966
-0.6458123322
-1.084259009
-1.643820861
-2.189782433
-2.588240531
-2.627551934
-2.04822915
-0.9392618438
-0.2982409397
-1.006511226
-2.39451957
-2.835486663
-2.393722596
-2.113890327
-2.490579323
-2.926039367
-2.22704843
-2.201076088
-2.288613439
-2.340662225
-2.245873638
-2.280778471
-2.226467297
-2.093199403
-1.878435806
-1.756560385
-1.68028619
-1.559206541
-1.326335847
0.685725743
0.5884653705
-0.9130531364
-0.8157886187
-0.5507735244
0.565546691
2.183661111
)


101
(
0
-8.598640962
-10.56582947
-12.5264557
-13.8427893
-16.33499261
-22.47705052
-32.04169299
-42.60387704
-52.71233473
-62.25952492
-71.52783928
-80.24777563
-87.13542964
-91.62729551
-93.60024357
-93.2602437
-90.4774989
-85.51672293
-78.47935276
-70.82264475
-63.77137722
-57.22318869
-50.66794704
-43.63354339
-36.17649925
-28.91295778
-22.30848121
-16.4358688
-11.25891909
-6.780693616
-3.06050809
-0.01471638964
2.743885276
5.509818717
8.064362527
9.765831331
10.25507529
10.0268541
9.996338715
10.75409602
12.48433199
14.13536156
14.95011975
14.52989643
13.08717398
11.25920759
9.626979687
8.401054107
7.627529552
7.065112173
6.432987175
5.528570333
4.631207495
3.645949168
2.573114178
1.890320863
1.463137765
1.24388612
1.092810678
0.9965223081
0.8980627912
0.7765671514
0.6058057494
0.5276924513
0.5707685643
0.5731648449
0.415371164
0.1343800905
-0.06527230545
0.09193009777
0.8926637866
2.202538202
3.010991911
2.383318262
0.9410525564
0.4615402732
0.9795915078
1.344909592
0.8017771196
-0.001493803329
0.5899641826
0.6058751809
0.2693234018
-0.0532517743
-0.1905721474
-0.2858936068
-0.5814621341
-0.6376203786
-0.7233934752
-0.7457415413
-0.92612876
-0.9697293053
-0.8725917884
1.288298793
1.0066211
-1.005494276
-0.1497370899
1.206344997
4.501485437
9.531219958
)


101
(
0
-9.470761192
-11.63055252
-13.3937671
-14.25329886
-16.11534481
-21.71630363
-30.98355576
-41.30516599
-51.05199604
-60.08374745
-68.80216595
-77.23918594
-83.96448128
-88.40227577
-90.34609498
-90.02040006
-87.46043257
-82.83226807
-75.99589243
-68.29693366
-61.05840256
-54.75447097
-48.6873375
-42.17845746
-35.01121788
-27.05031669
-21.13376337
-15.24917823
-10.05861373
-5.536662371
-1.765378489
1.280894885
3.829924457
6.234729288
8.545922553
10.31724997
10.96980574
10.51941692
9.835808447
9.683650587
10.35883069
11.48110036
12.17807358
11.74423613
10.23969423
8.192318293
6.311705188
4.952804309
4.12756353
3.712680952
3.411789977
3.055481301
2.463322753
1.835682166
1.408120024
1.239294592
1.478971467
1.970729581
2.588238865
3.17727653
3.724468444
4.199558583
4.530650867
4.875827581
5.392667701
5.986679902
6.4161559
6.602934002
6.685437879
7.0270759
8.000009059
9.521288284
10.54506677
10.05616517
8.6016361
8.014279953
8.447914949
8.858648214
8.302691262
7.113126979
7.300910149
7.140902498
6.595280746
5.881470402
5.278540592
4.92170589
4.174243227
3.674051551
3.113289391
2.777038412
2.130269314
1.668422793
1.377995138
3.480061246
2.775848525
0.178821417
2.804226914
6.432491977
12.95913757
18.37835239
)


101
(
0
-10.28421238
-12.71318921
-14.29006542
-14.70221876
-15.9264297
-20.95637854
-29.89723432
-39.96507024
-49.37789948
-57.8837402
-66.09871402
-74.08499374
-80.76330065
-85.1039243
-86.93613688
-86.63782133
-84.41109794
-79.78765006
-73.45849452
-65.78761677
-58.40090979
-52.12724706
-46.33576865
-40.36847619
-33.70566473
-26.64372968
-19.97236284
-14.06222274
-8.909366689
-4.440550199
-0.6888582927
2.259752187
4.574273779
6.506429072
8.289420571
9.718173493
10.25375983
9.662687635
8.478959023
7.43595797
7.089238546
7.597945924
8.062178628
7.914332976
6.851006676
5.09406132
3.263865674
2.213536423
1.772247556
1.924432443
2.310389786
2.721857608
3.069443271
3.256971944
3.576435019
4.109274819
5.111237143
6.452744647
7.921478397
9.373283616
10.70840134
11.90916098
12.86417425
13.69734253
14.62254323
15.71998309
16.77894837
17.57100311
18.1016144
18.69661908
19.8169646
21.50750352
22.76113676
22.48005458
21.1117406
20.49980791
20.8223015
21.10557218
20.56642111
19.23144854
18.98281921
18.49020292
17.78420744
16.79158605
15.53463314
14.7237499
13.571606
12.39887539
11.28377356
10.20253412
9.094961521
8.006165811
7.074075477
8.908391435
7.508707662
3.909474118
9.390438531
16.65676271
28.17089511
45.07324485
)


101
(
0
-11.11761938
-13.81493568
-15.21580994
-15.19378176
-15.77582302
-20.20053698
-28.77904497
-38.58664387
-47.68084765
-55.68106392
-63.35012077
-70.89992911
-77.40320319
-81.69936845
-83.46766144
-83.24645772
-81.03723971
-76.97021857
-70.69514652
-63.18221881
-55.94639904
-49.4999959
-43.94708887
-38.40358245
-32.24913001
-25.4666107
-18.82743836
-12.91364018
-7.841373449
-3.544782318
0.05290839919
2.842626384
4.824849418
6.224240393
7.314286846
8.144550885
8.430426295
7.754582413
6.301202997
4.832044304
3.90874099
3.84549113
4.29753357
4.552646806
4.156815382
3.275343816
2.313102238
1.662341984
1.871673466
2.783551817
4.129522683
5.600344996
6.963123291
8.245488529
9.456357733
10.82270085
12.55443982
14.68836333
16.99203007
19.2715701
21.41383184
23.35981444
25.02936726
26.42379061
27.71657579
29.17139799
30.75315748
32.19593848
33.326775
34.3444004
35.68313673
37.54551891
39.0627575
39.0769524
37.91329729
37.44074462
37.8558409
38.02929151
37.41794717
36.14922397
35.67931725
34.82422002
33.92660263
32.89016268
31.16196068
29.76459575
28.27997893
26.54210412
24.75149029
23.03848988
21.29428429
19.4632403
17.8290687
19.16490177
16.85618693
11.94609313
21.91400404
34.14862525
48.83675822
62.76313481
)


101
(
0
-11.98937052
-14.93076868
-16.16956054
-15.72683605
-15.66650191
-19.4560176
-27.6405184
-37.18588473
-45.96431751
-53.49468033
-60.58885648
-67.73568065
-73.99692583
-78.15403824
-80.02471089
-79.75669293
-77.67165102
-73.80032643
-68.09048999
-60.72325659
-53.25044527
-46.83212889
-41.42742359
-36.21474025
-30.50658511
-24.18168967
-17.74528962
-11.88125499
-6.912684197
-2.831430384
0.433439947
2.876189654
4.530517829
5.443089335
5.883865
6.08489419
6.004441651
5.345370069
4.09726728
2.669379528
1.558985134
1.276005168
1.89282013
2.760805578
3.431569542
3.633123004
3.624970508
4.001659619
4.984591876
6.617905686
8.780453165
11.24216867
13.73071031
16.01896565
18.24343967
20.52377885
22.92041915
25.70459094
28.76805223
31.80726001
34.68360989
37.36900528
39.78162181
41.80783809
43.57742693
45.33413168
47.27822572
49.28353914
51.07421307
52.68219121
54.40708975
56.5018612
58.3206662
58.73155394
57.92442986
57.72698781
58.42947743
58.75073431
58.12355291
57.0056677
56.65240586
55.59228784
54.42941417
53.38041215
51.69012831
49.77360699
47.97354247
45.88922436
43.41811752
41.26893103
39.04931271
36.38130942
34.07864868
35.04230335
31.84214919
25.57201953
39.1824986
55.19734292
71.08247696
91.95856026
)


101
(
0
-12.81983727
-16.06053351
-17.15001983
-16.30112316
-15.60014173
-18.72972082
-26.48610569
-35.76187118
-44.22681857
-51.33702733
-57.88616801
-64.50342522
-70.53750292
-74.67772555
-76.55634524
-76.22540883
-74.28176596
-70.57373154
-65.18231088
-58.2008935
-50.87610964
-44.32820732
-38.92139163
-33.98356156
-28.7681718
-22.93545683
-16.74562749
-10.99325109
-6.187149306
-2.409934823
0.4910293193
2.582562931
3.814949933
4.351226184
4.354132254
4.094137501
3.742294338
3.283139727
2.467081409
1.501317038
0.7716892292
0.678733368
1.568986812
3.061728922
4.630107849
6.072860077
7.373203494
8.596438216
10.42642625
12.90035468
15.81582103
19.00371442
22.32018831
25.58372829
28.73663384
31.87172032
35.01970905
38.3777803
42.01081483
45.7167765
49.2769628
52.61417391
55.7394359
58.53496138
60.89388967
63.04696784
65.28108852
67.67860428
70.07031995
72.33693832
74.60865793
77.04774236
79.18671008
80.02709324
79.67996393
79.88558365
80.99689856
81.6381651
81.16636495
80.24101719
80.25555294
79.28764663
77.9142664
76.71918811
75.37345164
73.28388516
71.2014139
68.96163226
66.1000496
63.68808387
61.19943486
57.86826107
54.9516468
55.67534698
51.66224535
43.60660311
58.97239146
76.10378778
88.61535688
107.5691726
)


101
(
0
-13.66336572
-17.2043589
-18.15638487
-16.91790246
-15.58254744
-18.02533914
-25.32356106
-34.31322457
-42.49438148
-49.19365517
-55.17724331
-61.3356173
-67.06757233
-71.19492777
-72.98736482
-72.76320251
-70.74667744
-67.43561819
-62.26991158
-55.68561901
-48.39627587
-41.80528986
-36.38637186
-31.72569942
-26.93329802
-21.60055793
-15.81443534
-10.28468419
-5.657450617
-2.16226001
0.29343137
1.966723315
2.940915249
3.259902444
3.109500404
2.693627832
2.278494879
2.026080874
1.814873346
1.663549939
1.553317115
1.987295533
3.187709762
5.235741548
7.736808974
10.20450946
12.54012877
14.96679066
17.54995197
20.56901803
24.24150116
28.05953879
31.97802895
36.00721414
39.89519584
43.74505371
47.60663166
51.53026571
55.66355945
59.92163442
64.0834793
67.99137328
71.72153463
75.25454293
78.36294208
81.03920336
83.59774775
86.28436116
89.12019896
91.97792422
94.84106316
97.73582183
100.2249673
101.4259865
101.4862395
102.1252908
103.6692755
104.6932682
104.4494978
103.6565043
104.0057382
103.3950132
102.0176278
100.5559467
99.42571493
97.54942588
95.22613097
93.00111728
90.02535604
87.35372476
84.64212888
81.23604755
77.70063264
78.54538767
73.59035931
64.28033249
78.87679199
93.0772068
96.4290122
75.64539502
)


101
(
0
-14.52541559
-18.36237564
-19.18666629
-17.57583669
-15.61467342
-17.34917185
-24.15787093
-32.84363603
-40.75767049
-47.06400661
-52.53654458
-58.17999166
-63.60543081
-67.67011345
-69.39080076
-69.24006793
-67.34416919
-63.99460394
-59.32166494
-53.15689972
-46.05347383
-39.49452651
-33.9499706
-29.44010188
-25.12031614
-20.32953154
-15.08651189
-9.850016376
-5.386188112
-2.078779139
0.1003589234
1.412711527
2.145890833
2.439531058
2.399650739
2.141052217
1.908550852
1.950865907
2.338350877
2.953740984
3.777755984
4.904608652
6.601333442
9.005593812
12.01905057
15.35063171
18.72909882
21.9706976
25.41412327
29.07520382
33.08324855
37.47226748
41.91133241
46.40645938
50.93033466
55.38966211
59.76779733
64.20969663
68.75946343
73.47518699
78.12827278
82.53994619
86.76569316
90.86225918
94.67837285
97.99571727
100.9636577
103.9179027
106.9954072
110.2472123
113.599237
116.9354987
119.7910707
121.2661076
121.4921853
122.2982644
124.1183809
125.4872916
125.3946569
124.5664431
124.9433172
124.5772493
123.3402158
121.648593
120.3543412
118.6835642
116.2393003
113.8629136
110.8851797
107.8554787
104.7997891
101.5649587
97.80964029
98.70820921
93.54969821
83.94329103
92.14768471
97.61027495
89.57489757
91.81286622
)


101
(
0
-15.36811779
-19.52686742
-20.23811442
-18.27052529
-15.69231366
-16.690749
-23.00466494
-31.37203109
-39.01953097
-44.97673019
-49.95660798
-55.05975053
-60.15756253
-64.10486725
-65.99673399
-65.68660336
-63.87541224
-60.71389496
-56.21547434
-50.45856102
-43.9115489
-37.26440059
-31.77898864
-27.27428897
-23.28527877
-19.04895175
-14.36483527
-9.537410297
-5.232292915
-1.996112606
0.02486919927
1.124245226
1.726369266
2.120567857
2.349739153
2.465138518
2.62598334
3.026772791
3.930107138
5.274445237
6.979037287
8.897011928
11.09032068
13.78122298
17.1634511
21.0197072
25.06667671
29.15539662
33.20488707
37.3633867
41.85210498
46.56953582
51.39362098
56.24494169
61.13912095
66.13016388
70.9893773
75.77787841
80.61383685
85.60751844
90.62564802
95.45311536
100.0401872
104.4826721
108.764014
112.6603517
116.0387279
119.1757714
122.3370443
125.7051402
129.267938
132.8320195
135.9140958
137.5487674
137.6576954
138.148449
139.7682892
141.1575405
141.0447113
139.9575976
139.8717329
139.2342869
137.9484983
135.8973279
134.0429023
132.1945005
129.6357413
126.784271
123.6462227
120.2252034
116.787601
113.5252293
109.7854212
110.6479674
105.428071
94.76827368
93.13784812
85.9844181
65.71598245
33.81463051
)


101
(
0
-16.21539011
-20.69683831
-21.31062432
-19.00644512
-15.82558871
-16.06541784
-21.8584867
-29.88766315
-37.27705075
-42.91686558
-47.42160051
-52.02814763
-56.76757388
-60.55513308
-62.50118886
-62.26686605
-60.40817532
-57.31430482
-53.16400897
-47.7705331
-41.52847346
-35.25257711
-29.74739166
-25.26584636
-21.45720692
-17.78264123
-13.73823833
-9.373817795
-5.213521234
-1.913453461
0.1380923169
1.207255483
1.793088259
2.320612331
2.935500515
3.587623005
4.25639655
5.116069027
6.418182464
8.297392295
10.67037585
13.33436017
16.14058898
19.16611777
22.63062609
26.71607559
31.20372546
35.8057309
40.4601415
45.06546154
49.78501421
54.75482161
59.86336005
65.00398513
70.17913443
75.38775627
80.5925246
85.69543372
90.72232037
95.79226433
100.9504351
106.0166999
110.7959285
115.3289561
119.7489725
123.8658799
127.5013581
130.6693888
133.6850593
136.8198724
140.1728882
143.5444599
146.4545962
147.9472565
147.7029632
147.402758
148.0531515
148.7811214
148.224842
146.5700371
145.5489982
143.9420365
142.0568505
139.3368729
136.4644599
133.8072216
130.9042711
127.2224662
123.5949021
119.7275364
115.8173156
112.277886
108.5289694
109.3568916
103.959481
92.96059989
78.84137959
57.67850741
27.33243578
-5.830111225
)


101
(
0
-17.06418435
-21.87579495
-22.40103187
-19.77894112
-16.01276546
-15.55771986
-20.72806684
-28.40101498
-35.52772026
-40.87731698
-44.96689011
-49.04700513
-53.37394453
-57.04395366
-58.99633019
-58.87474243
-57.02643767
-53.89864879
-49.95616562
-44.97676517
-39.16907704
-33.35125705
-27.91543861
-23.53688651
-19.87689792
-16.52871711
-12.99786628
-9.150261969
-5.227595852
-1.818337235
0.4832133789
1.694498812
2.479382134
3.145063617
4.105088072
5.248199559
6.494717484
7.869711937
9.529719295
11.74561963
14.53491373
17.78407576
21.1615856
24.49000443
28.07796508
32.11467935
36.71397349
41.6614311
46.64312624
51.62131446
56.61466988
61.67643273
66.90126461
72.16277367
77.47381728
82.88744354
88.26580977
93.49003421
98.4719067
103.5195059
108.5422925
113.5410674
118.3050812
122.6902404
126.8599163
130.7377815
134.1804012
137.0860261
139.59935
142.0541515
144.6718198
147.2710204
149.403319
150.2090397
149.2529802
147.7522715
146.7429531
145.9042495
144.1323648
141.4073336
139.1080548
135.8768684
132.6687317
128.8539227
124.6486528
120.5312963
116.8806357
112.1061488
107.6641443
103.2628379
98.83637058
94.79393064
90.85057407
91.73590057
86.11716076
75.09634408
49.5638429
16.9555431
-19.20852177
-61.37322001
)


101
(
0
-17.90876513
-23.06955757
-23.50604619
-20.58350271
-16.25266713
-15.05203869
-19.62922191
-26.92911168
-33.79833369
-38.88282464
-42.57484475
-46.17158616
-50.097448
-53.54397144
-55.53014966
-55.53794281
-53.75790641
-50.81496829
-46.75354755
-42.04233103
-36.95253543
-31.5545964
-26.4003444
-21.99029276
-18.39586296
-15.28358441
-12.14200229
-8.791638667
-5.178044
-1.642122672
0.9650070483
2.626133722
3.607870365
4.473483979
5.657621856
7.303285303
9.04826645
10.90082919
12.91925028
15.33757
18.3312851
21.86190223
25.64320729
29.3941254
33.04608212
36.9973771
41.45120779
46.41268838
51.60631786
56.82903329
61.92058546
67.02054621
72.18790943
77.45736695
82.71853388
88.05614122
93.48960096
98.72073286
103.6854408
108.2543342
112.8745349
117.4279535
121.7993688
125.7819284
129.3250503
132.4847273
135.1896966
137.2880586
138.8301879
140.0930006
141.3432908
142.4794817
143.0779128
142.4571544
140.2240196
137.2273117
134.1212471
130.9542661
127.0556843
122.5315614
118.6958539
113.5049275
108.2995472
103.0166565
97.38061957
91.43029429
86.6944712
80.86411769
75.45615709
70.61925392
65.69716113
61.33824495
57.27811135
58.38344555
52.81907152
42.28886047
9.087668772
-29.62847094
-66.79624346
-109.3492906
)


101
(
0
-18.76912026
-24.2431506
-24.62508337
-21.42337595
-16.5535457
-14.60771062
-18.55307829
-25.45543657
-32.06201352
-36.89286359
-40.24504017
-43.35872903
-46.87525597
-50.11508516
-52.07154076
-52.16653205
-50.56979571
-47.60340449
-43.82865784
-39.44381186
-34.60176544
-29.62737074
-24.89941778
-20.68625486
-17.13721877
-14.14206835
-11.28284364
-8.250978608
-4.921864894
-1.475553639
1.652130176
3.718431564
5.04803975
6.247706732
7.548576808
9.443655793
11.58726362
13.88425561
16.24164701
18.79088196
21.80596233
25.37794381
29.35571724
33.389098
37.24788497
41.03575426
45.19481582
49.95140373
55.09316009
60.40521753
65.54912491
70.61453251
75.61739521
80.56784562
85.60849925
90.67670221
95.86627693
100.8811718
105.5066
109.6544438
113.4909405
117.1951059
120.6539438
123.7823402
126.3682082
128.3515344
129.7172208
130.4264455
130.4523614
129.9886002
129.2503821
128.2442338
126.5383122
123.6542365
119.4356485
114.5865289
109.2283545
103.4201803
96.82632622
89.83548624
84.14586309
77.07414031
69.64517996
62.60864796
55.77100841
48.17360198
42.30758332
35.87090611
29.65876403
24.76054226
19.73155713
15.60351939
11.82533259
13.52790402
8.662854226
-0.3330679959
-36.31119366
-75.50653034
-110.4001731
-143.6734892
)


101
(
0
-19.50364897
-25.42859672
-25.75324785
-22.28958817
-16.90208337
-14.21324781
-17.5229131
-24.00964687
-30.3474946
-34.94750149
-37.97698307
-40.6619079
-43.74153565
-46.74120194
-48.65257271
-48.87976996
-47.41243785
-44.57994334
-40.84897784
-36.68395419
-32.21896742
-27.76077955
-23.44681744
-19.47412186
-16.04767271
-13.02307472
-10.2631715
-7.457143694
-4.386140392
-1.096081963
2.135606215
4.856524824
6.734483057
8.096097501
9.584120323
11.54042903
14.01088511
16.51380346
19.12433338
21.80443969
24.77195987
28.20777627
32.12571401
36.25471963
40.2786604
44.04623737
47.95522434
52.18548599
57.04448056
62.18270218
67.31331669
72.21181333
76.92302741
81.52528223
85.96236811
90.4817572
95.00482649
99.54331418
103.6594028
107.0893949
109.8979962
112.3853125
114.4972962
116.1754136
117.2899903
117.6708639
117.2303111
115.945619
113.9106905
111.1931378
108.0296903
104.361657
99.76568464
93.89327012
86.97545584
79.87894559
72.27826886
63.99002733
54.74743281
45.06714797
37.35326149
28.8065419
19.55648324
10.86718355
3.238510265
-5.190775005
-11.78042864
-17.98801553
-24.40843717
-28.73845063
-33.24551099
-36.26260041
-39.14117578
-36.18746772
-39.55975385
-45.81340201
-80.33947464
-116.239613
-148.5342521
-178.3658546
)


101
(
0
-20.4565684
-26.60924169
-26.88896332
-23.18393515
-17.30704612
-13.88456057
-16.5305124
-22.57993392
-28.63999957
-33.01701667
-35.76410443
-38.04913814
-40.72434241
-43.44444401
-45.28626798
-45.6652249
-44.28096757
-41.69212444
-38.00004278
-33.94667599
-29.84473039
-25.87979697
-22.08361138
-18.45086367
-15.10925259
-12.08469792
-9.298965051
-6.562909674
-3.720212505
-0.6084262642
2.773410193
5.716756449
8.130198799
9.90797716
11.6050359
13.53457438
15.97819681
18.63764276
21.39284846
24.14870364
27.03065795
30.24278924
33.89878947
37.9068364
41.94598197
45.76886207
49.34650424
53.16888666
57.42811345
62.12771329
67.02316529
71.64667796
75.98917783
80.00393012
83.78080892
87.3510816
90.90344699
94.42622757
97.68881358
100.2088175
101.8169384
102.6458899
102.9757208
102.7440421
101.8338471
100.1004557
97.43070327
93.7317921
89.11083409
83.7479754
77.84856534
71.32745148
63.65581231
54.46584988
44.36238672
34.70189443
25.01695931
14.64376488
3.388441743
-8.475993208
-17.94570685
-27.35368867
-37.48636693
-47.18540171
-55.07918394
-63.11640901
-69.62317999
-74.61803726
-80.28037478
-83.31481872
-86.63207171
-87.75154417
-89.06960897
-84.23069876
-85.47912639
-88.19249604
-119.1046948
-151.2241528
-183.806191
-293.4541741
)


101
(
0
-21.20646105
-27.78450507
-28.02837372
-24.10063576
-17.76396317
-13.61750564
-15.58719816
-21.18087409
-26.95126687
-31.10893965
-33.61252099
-35.52551218
-37.7846531
-40.22382721
-41.98229882
-42.39704231
-41.29414081
-38.78922689
-35.3261406
-31.38657749
-27.45104246
-23.86347304
-20.63050424
-17.41820979
-14.28403547
-11.17787061
-8.282091264
-5.518908166
-2.76083573
0.1437763802
3.215928775
6.42808869
9.22064719
11.42611253
13.24623705
15.2243796
17.56869942
20.13773275
22.84571233
25.57597012
28.3689552
31.34507519
34.64274879
38.2957293
42.15314798
45.90741483
49.34419035
52.66480948
56.21339586
60.26828453
64.59114768
68.81883086
72.62117922
75.98090922
78.84717352
81.2310103
83.50685399
85.59315442
87.49843313
88.68596988
88.82801489
87.89047366
86.03544208
83.45783907
80.0678768
75.80511959
70.50223901
64.07948438
56.61264006
48.33801669
39.59817587
30.2870795
19.78335162
7.55590036
-5.588804102
-17.85625259
-29.45193479
-41.3285204
-53.75808427
-66.68154178
-77.04917088
-86.55240998
-96.40069524
-106.0213419
-113.6298297
-120.1157166
-125.6061354
-128.6792087
-132.6238442
-133.8178237
-135.3580637
-134.236138
-133.5849254
-126.5322255
-125.3865145
-124.4176844
-152.5130752
-183.8754782
-222.0197657
-91.60390721
)


101
(
0
-20.2594684
-28.95272178
-29.16738116
-25.03374367