/*--------------------------------*- C++ -*----------------------------------*\
| =========                 |                                                 |
| \\      /  F ield         | OpenFOAM: The Open Source CFD Toolbox           |
|  \\    /   O peration     | Version:  2.3.1                                 |
|   \\  /    A nd           | Web:      www.OpenFOAM.org                      |
|    \\/     M anipulation  |                                                 |
\*---------------------------------------------------------------------------*/
FoamFile
{
    version     2.0;
    format      ascii;
    class       dictionary;
    location    "constant";
    object      la_i8;
}
// * * * * * * * * * * * * * * * * * * * * * * * * * * * * * * * * * * * * * //

la_i8_table
101
(

101
(
0
0
0
0
0
0
0
0
0
0
0
0
0
0
0
0
0
0
0
0
0
0
0
0
0
0
0
0
0
0
0
0
0
0
0
0
0
0
0
0
0
0
0
0
0
0
0
0
0
0
0
0
0
0
0
0
0
0
0
0
0
0
0
0
0
0
0
0
0
0
0
0
0
0
0
0
0
0
0
0
0
0
0
0
0
0
0
0
0
0
0
0
0
0
0
0
0
0
0
0
-0.09629156941
)


101
(
0
7.001643902
-7.116386271
-19.90657568
-37.88918679
-58.1565062
-77.36497216
-94.19232874
-108.0598294
-118.6324291
-125.1851037
-128.1975498
-128.6335071
-126.2202469
-121.9693608
-116.4938452
-109.9734156
-102.2399356
-94.77254455
-85.62913509
-76.37422424
-67.49370213
-58.59439941
-50.46381517
-42.91296929
-36.48783578
-30.90439489
-26.13554595
-22.11449644
-18.55996843
-15.36545029
-12.68621793
-10.76726683
-9.549045243
-8.92690154
-8.666614576
-7.997566616
-6.705379176
-5.938458124
-5.683396438
-5.826372272
-6.200367549
-6.662103871
-7.14080429
-7.593517281
-8.026743155
-8.465086484
-8.909324843
-9.354206913
-9.776527123
-10.15259836
-10.45935709
-10.70523506
-10.91638887
-11.10834706
-11.27812281
-11.39249085
-11.45229527
-11.4508957
-11.39405508
-11.26731176
-11.07020539
-10.81776833
-10.53118282
-10.22005235
-9.874190649
-9.477708213
-9.034116782
-8.568817371
-8.13537207
-7.801117965
-7.574882974
-7.319353045
-6.856371298
-6.17934935
-5.470197575
-4.939851445
-4.658893035
-4.371411189
-3.845899478
-3.303472114
-2.987464189
-2.697259374
-2.509980309
-1.796454833
-1.596120587
-1.49775142
-1.164399065
-0.9336412912
-0.9230366385
-0.4868505728
-0.4284361835
-0.3528022289
-0.1626014237
0.06475759936
0.08853615045
-0.01683045998
-0.01973281412
-0.02254746775
-0.02681429106
-0.03090933757
)


101
(
0
9.504847865
-4.46238381
-17.66774908
-36.21272831
-56.36873757
-75.23994852
-91.24839579
-104.4569333
-114.4478805
-120.7901454
-123.4351458
-123.4228564
-120.7320079
-116.3469984
-110.7621386
-104.3309458
-97.26768442
-90.09243231
-81.89721812
-72.58114353
-63.50268298
-54.61976087
-46.63419562
-39.59499848
-33.35688941
-28.13110787
-23.78739773
-20.19507794
-16.98378304
-13.72558226
-10.46514325
-7.920440904
-6.55327938
-6.202475231
-6.361264179
-6.268419138
-5.325929957
-4.179131343
-3.373624084
-3.104004109
-3.335172317
-3.815246406
-4.34213881
-4.788906921
-5.161258419
-5.507772327
-5.86199423
-6.236952499
-6.622897639
-6.988426509
-7.286443735
-7.496682448
-7.657493495
-7.81805247
-8.004118781
-8.183207713
-8.324189915
-8.421931426
-8.481122058
-8.487332443
-8.419311115
-8.277366165
-8.092858124
-7.896542556
-7.685062761
-7.431284552
-7.117578424
-6.755936487
-6.403945553
-6.177651345
-6.14696848
-6.194861506
-6.00823171
-5.454613063
-4.746804628
-4.207206993
-3.928759767
-3.801240424
-3.4812611
-2.988150942
-2.748147527
-2.464476831
-2.366778623
-2.068032494
-1.498349764
-1.371073089
-1.278383668
-0.9972738912
-0.814849354
-0.7437212495
-0.4321362211
-0.4179696996
-0.3057081793
0.163917252
0.1325385158
-0.05917545036
-0.06664694779
-0.07377632411
-0.08063391942
-0.08759575208
)


101
(
0
12.28094259
-1.764781037
-15.32021188
-34.30303859
-54.66980278
-73.19094025
-88.47005416
-100.9925779
-110.5954417
-116.7123594
-118.931244
-118.5995907
-115.617598
-110.9983932
-105.4193203
-98.97219367
-92.25397328
-85.3191433
-78.08081828
-69.10206723
-59.39237125
-50.59960412
-42.3918295
-35.69196542
-29.75704237
-24.80561424
-20.76137961
-17.54256363
-14.87373936
-12.02170304
-8.596407824
-5.180311152
-3.253516092
-2.713629972
-3.330554583
-3.955771416
-3.691093094
-2.571710559
-1.244018359
-0.4471706832
-0.3723982437
-0.768361563
-1.341419967
-1.864813554
-2.246765025
-2.539375085
-2.82117346
-3.127240275
-3.465376093
-3.822787589
-4.149316462
-4.391761587
-4.55239122
-4.694697785
-4.869454897
-5.087064221
-5.29980443
-5.488651608
-5.657233218
-5.793189259
-5.874039492
-5.881210826
-5.827846762
-5.74960854
-5.665537119
-5.553856338
-5.394644661
-5.17794809
-4.942493751
-4.81256559
-4.904934965
-5.128385294
-5.133153314
-4.719358495
-4.129310338
-3.766754544
-3.557973475
-3.37341024
-3.142168288
-2.814483867
-2.683503652
-2.397683773
-2.176869451
-2.068026463
-1.795796147
-1.315821602
-1.290549209
-1.168285857
-0.9530006897
-0.8337921471
-0.6792406809
-0.4950269027
-0.404126334
0.1941053236
0.1429194239
-0.1519236535
-0.1593406603
-0.1648610514
-0.1630389278
-0.1552117422
)


101
(
0
14.74904938
0.9844150404
-12.90282483
-32.3344258
-52.96327023
-71.21961725
-85.83341239
-97.69856743
-106.9603576
-112.8660993
-114.9247372
-113.8282065
-110.5832205
-105.6884983
-99.88539606
-93.51322879
-86.97401755
-80.32963854
-73.64045936
-65.41980049
-55.78030623
-46.32341175
-38.07487845
-31.4614142
-25.98150019
-21.29488063
-17.53452525
-14.63178484
-12.45399877
-10.16624635
-7.014046709
-3.391984534
-0.3757856302
0.6031909947
-0.1181562237
-1.28179454
-1.702515478
-0.9027588755
0.5181258316
1.890710042
2.462455605
2.270604596
1.706644673
1.100102605
0.6478878931
0.3509369594
0.12970273
-0.09987584615
-0.3727563807
-0.6899059317
-1.021216114
-1.308147816
-1.511157558
-1.66638148
-1.834875717
-2.054343459
-2.307342599
-2.556351175
-2.807637358
-3.046134769
-3.25093341
-3.40055932
-3.492639247
-3.545906909
-3.581305989
-3.596196569
-3.580844799
-3.520016128
-3.43028975
-3.424357329
-3.645987145
-4.030753395
-4.191882771
-3.87646118
-3.359838164
-3.177574932
-3.200363233
-3.04519501
-2.743630623
-2.524271857
-2.576947804
-2.360718644
-2.108052829
-1.92601746
-1.841408103
-1.559313764
-1.267317104
-1.261910138
-1.061574157
-0.8991344255
-0.8041102108
-0.6166920462
-0.5314063742
0.175833713
0.1288451802
-0.2340663706
-0.2251969627
-0.220664894
-0.2871266463
-0.371922153
)


101
(
0
17.35358006
3.830463328
-10.4148986
-30.30467916
-51.24098412
-69.32724807
-83.31611426
-94.54709311
-103.4436251
-109.1671585
-111.0465314
-109.5127347
-105.907901
-101.0108927
-95.00053358
-88.4506166
-82.02933546
-75.82569191
-69.73451022
-62.05441656
-52.64089703
-42.96680006
-34.46800351
-27.67975508
-22.42425218
-17.89495095
-14.27788589
-11.73569922
-9.960761334
-8.353112993
-5.759569643
-1.817438989
1.738635357
3.549935266
3.374067384
1.821904202
0.5108846559
0.5783773308
1.955408409
3.662844959
4.802138641
5.046096437
4.586103045
3.933412434
3.38879095
3.037829958
2.827928644
2.648282182
2.434885314
2.166043035
1.849276556
1.531775217
1.262905537
1.050918944
0.8422151273
0.6068195213
0.3205003766
0.01856671486
-0.2922308877
-0.6041276954
-0.9037883879
-1.160213093
-1.37587001
-1.558467195
-1.701822484
-1.813794072
-1.902970097
-1.961525094
-2.008230757
-2.114167733
-2.438008044
-2.95259087
-3.259788681
-3.041952997
-2.566502093
-2.466014551
-2.69382696
-2.721290668
-2.378071001
-2.111000105
-2.332865921
-2.261206552
-2.065034572
-1.859803365
-1.768678565
-1.62568984
-1.412049459
-1.313751793
-1.204277929
-1.054953304
-0.9026363309
-0.7704350765
-0.6789026033
0.1578301199
0.1215593971
-0.3304521242
-0.4005950824
-0.4652357231
-0.4388459194
-0.3776624567
)


101
(
0
20.22517121
6.714603911
-7.857128801
-28.21108626
-49.5051897
-67.48481179
-80.91998327
-91.54100086
-100.051952
-105.703787
-107.3956582
-105.5922759
-101.5713401
-96.50158092
-90.45558375
-83.66901466
-77.32103243
-70.97882627
-65.65129311
-58.75053238
-49.51271505
-39.76079779
-30.66923268
-23.65411326
-18.57582609
-14.51402983
-11.11365291
-8.586208701
-7.068435892
-6.033043277
-4.472601013
-1.310676755
2.906126142
5.759634563
6.281073258
4.786699282
3.006265287
2.324638954
3.139345287
4.924101412
6.508564318
7.192236944
6.989293401
6.301319239
5.617771815
5.143154784
4.853298449
4.632971795
4.39291582
4.09034859
3.739122068
3.355356067
2.98413707
2.646566984
2.335297482
2.021944453
1.669777589
1.298517209
0.9346496813
0.5715702947
0.2106297775
-0.09912318398
-0.3700464321
-0.6206162724
-0.8268207398
-0.9740109976
-1.08333824
-1.166449486
-1.259102245
-1.414772605
-1.767090447
-2.31339856
-2.679941954
-2.508660905
-2.039894444
-1.936879361
-2.224103004
-2.420971256
-2.171464775
-1.797114036
-2.03357145
-2.099553324
-2.007657439
-1.839240749
-1.765249609
-1.631836484
-1.524154338
-1.326309184
-1.328162619
-1.184416251
-1.048782751
-0.9119780112
-0.8053879993
0.1508759334
0.04288290525
-0.5037655356
-0.5298122662
-0.5390300872
-0.4285506792
-0.2816602721
)


101
(
0
22.8077084
9.65948857
-5.22732902
-26.04937904
-47.73432349
-65.70351502
-78.64989484
-88.68119179
-96.8425336
-102.3966288
-104.0671902
-101.9506666
-97.51557201
-92.11525803
-86.04228318
-79.18365666
-72.66247976
-66.73472931
-61.24286446
-55.40387465
-47.24969298
-37.15809952
-27.67661335
-20.42612242
-15.3481398
-11.51996152
-8.397561856
-6.012008411
-4.585086527
-3.89812133
-2.897525156
-0.5561700152
3.119564196
6.821094053
8.3774318
7.558829946
5.483880932
3.897134016
4.056586302
5.475856887
7.256514073
8.349781861
8.400563355
7.688155005
6.750929656
5.979614236
5.455636307
5.067501801
4.7030133
4.259878132
3.789288588
3.299998967
2.814017305
2.35832244
1.957842573
1.576509399
1.197588837
0.8223297513
0.4888984807
0.184632211
-0.1108031515
-0.344247461
-0.5344864344
-0.7062351726
-0.8490511788
-0.9173609722
-0.9332604881
-0.9104816103
-0.9158469805
-1.015268021
-1.305332506
-1.78805672
-2.112082278
-1.915961629
-1.412486547
-1.272907531
-1.536403421
-1.794795096
-1.682490972
-1.333784622
-1.523965452
-1.627774204
-1.632150369
-1.533708019
-1.495049813
-1.431797796
-1.407548742
-1.266370696
-1.25488875
-1.190795711
-1.057546937
-1.009870019
-0.8734415684
0.1215118722
0.01905257338
-0.5512411183
-0.4971121275
-0.3415568291
0.3200083186
1.267542331
)


101
(
0
25.50930127
12.68829465
-2.527514721
-23.82063769
-45.92921724
-63.9618586
-76.48473372
-85.94124864
-93.75268456
-99.18385034
-100.888051
-98.6208331
-94.09782272
-88.37273086
-82.05603412
-75.19890986
-68.54048479
-62.4740097
-57.66518344
-52.28005521
-44.50224209
-34.95111404
-25.31132474
-17.45669541
-12.15302225
-8.550141937
-5.701383115
-3.481632116
-2.117503425
-1.664814164
-1.415173489
-0.02929562895
3.066298855
6.877069108
9.382155635
9.355972322
7.390899619
5.353716541
4.557749173
5.165519343
6.767614408
7.934201074
8.15970639
7.460606017
6.2877432
5.149100865
4.284190393
3.641935361
3.133542417
2.641386149
2.138867271
1.630349933
1.195429918
0.80287559
0.485578287
0.2431809059
0.03551220969
-0.1470746558
-0.2702234881
-0.3426553566
-0.3866747755
-0.3533867448
-0.2766910736
-0.1950955538
-0.1289980681
-0.02320957116
0.1441341777
0.3656625935
0.568424017
0.6367968857
0.4745896604
0.08641195458
-0.1693133225
0.07493449324
0.6207820629
0.7878484083
0.5204147679
0.2138688465
0.224083476
0.4661825103
0.2129811747
0.05158314664
-0.07552566801
-0.1313285317
-0.213811455
-0.331406781
-0.3912234084
-0.4789992167
-0.4916101058
-0.6399935244
-0.6305488524
-0.6470164483
-0.5932069412
0.3995442851
0.2043613927
-0.6174227046
-0.1056558831
0.7033078743
2.662137448
5.62791426
)


101
(
0
28.44258607
15.7556607
0.2437563917
-21.5170997
-44.08253303
-62.26055128
-74.43147694
-83.34959229
-90.79329764
-96.16368468
-97.98956505
-95.51123185
-90.74140976
-84.74918026
-78.32429472
-71.50315411
-64.69514735
-58.41720591
-53.73815322
-49.0886277
-42.49807381
-33.26784024
-23.35497444
-14.95628091
-9.429135855
-7.103910983
-3.580608819
-1.521606554
-0.1894625391
0.2035605265
0.1952954361
0.6179352507
2.654282567
5.913513795
8.874018595
9.882163128
8.486025821
5.994467779
4.317633543
4.050227742
4.899596336
5.960680285
6.324719648
5.662078189
4.364895734
2.982189469
1.910430398
1.191679423
0.7247404709
0.3853494663
0.09258673484
-0.1569108175
-0.3191657563
-0.3845665266
-0.3324062611
-0.1912874424
0.01878227371
0.2489995168
0.5155526787
0.8412447783
1.18787534
1.597815737
2.05673421
2.517095122
2.920938722
3.283405335
3.668583107
4.095660744
4.512913744
4.795352683
4.803346114
4.536920012
4.344650697
4.615206196
5.190964822
5.384279279
5.099886687
4.706570133
4.568084641
4.677935485
4.304733349
4.008615853
3.700037983
3.404412268
3.127406773
2.734252245
2.474618615
2.109893757
1.840232781
1.384245964
1.161717546
0.9434135235
0.7493326673
1.628810892
1.199679319
0.08379025825
1.665209298
3.8307619
7.700411428
10.84084535
)


101
(
0
31.14084977
18.88839757
3.084206961
-19.14418266
-42.19537921
-60.58045595
-72.46429616
-80.88850215
-87.93672935
-93.27897836
-95.15041077
-92.79039129
-87.56893746
-81.41004084
-75.04056067
-68.21724788
-61.03274595
-55.20104184
-50.02591066
-45.93590085
-40.36971664
-31.91658999
-22.26180284
-13.37112461
-7.178446056
-3.781077199
-1.663618261
0.04872976103
1.3069804
1.754583422
1.470654859
1.430679932
2.205229388
4.543457183
7.299419089
8.80145064
7.998296187
5.612188342
3.314633794
2.050252742
2.023795414
2.862457272
3.30118117
2.986810414
1.958810365
0.6530564583
-0.4271579976
-0.9433157371
-1.103118226
-1.023318397
-0.8489400119
-0.605354379
-0.2616837431
0.2068628278
0.7966326512
1.47763886
2.223150675
2.983032298
3.755093835
4.548719256
5.351117043
6.174003238
7.03982527
7.910944756
8.710093564
9.397427857
10.01584079
10.63007513
11.23482663
11.73495391
11.95566818
11.84926564
11.73406402
12.02459269
12.61649418
12.84451682
12.58380835
12.16126652
11.88964463
11.83449836
11.35612271
10.90177274
10.36988271
9.772278994
9.316975944
8.634068178
8.019508788
7.390628936
6.705870866
5.937504922
5.321402743
4.735378251
4.146056002
4.789945247
3.975389612
2.332743306
5.637861417
9.964963859
16.75842842
26.65062315
)


101
(
0
33.93639783
22.08340659
5.992969478
-16.69668335
-40.25568866
-58.91876451
-70.59349853
-78.55939129
-85.20909136
-90.50792089
-92.51913342
-90.27051401
-84.8630381
-78.45679577
-72.05582604
-65.13235434
-58.19313779
-51.67701723
-46.94939415
-43.11588202
-37.88885027
-30.60581008
-21.27671992
-12.22387493
-5.468439549
-1.850339225
-0.05965502621
1.214940859
2.266723956
2.829540078
2.458345507
1.704759602
1.649644185
2.685120944
4.62912474
6.188459971
6.249755713
4.304823962
1.638945108
-0.1471071044
-0.7837860971
-0.3890753889
0.2446266693
0.3841719491
-0.138694165
-0.9284028331
-1.563089641
-1.793850571
-1.472904222
-0.8138067947
0.009920374832
0.9021129056
1.860152643
2.928881391
4.092298909
5.354915882
6.664836695
7.979791153
9.273036868
10.54655299
11.7960874
13.0304302
14.27164797
15.52283032
16.72250503
17.78481552
18.69621244
19.51803243
20.29634339
20.99787743
21.46585409
21.59203001
21.61594724
21.95950757
22.58481814
22.87999275
22.69762835
22.32535554
22.04479687
21.87171363
21.32486783
20.81414585
20.12318452
19.21558881
18.59065816
17.73196874
16.76818968
15.74090378
14.79805717
13.57690315
12.58498652
11.54707016
10.59508956
10.82565236
9.495667
7.170477438
13.17467949
20.41795544
28.98926854
36.92844551
)


101
(
0
36.90247276
25.3278043
8.969152645
-14.17528806
-38.25966787
-57.26429938
-68.80207447
-76.33856333
-82.61327173
-87.82949264
-90.05399254
-87.87123675
-82.43116549
-75.98504812
-69.24087746
-62.46493419
-55.5388249
-49.08173444
-43.72932951
-40.17997303
-36.09761166
-29.48988721
-20.68796652
-11.74346285
-4.695527273
-0.5506028343
1.238238043
2.054883399
2.681372527
3.04997578
2.850542579
2.120196941
1.085047342
0.794348031
1.594183977
2.759736263
3.180278126
1.979802034
-0.1448479008
-2.029354888
-3.12817655
-3.076576444
-2.210610288
-1.458144123
-1.120125492
-1.202189471
-1.291593421
-0.9404750552
-0.105376314
1.118252276
2.575417043
4.134932388
5.735314897
7.377908896
9.099089196
10.89557189
12.72545543
14.55251467
16.33458274
18.06343107
19.73625007
21.35485463
22.93902874
24.52681267
26.09290387
27.54944168
28.82265904
29.92520706
30.9080319
31.81079528
32.54153713
32.96519286
33.22746567
33.70644703
34.42240568
34.82959138
34.77734905
34.54508346
34.3831671
34.19412366
33.60283165
33.1533338
32.45206213
31.39851824
30.59469575
29.70216908
28.59427179
27.05130838
25.9512182
24.57278842
23.13477082
21.56609466
20.24871154
20.18324118
18.32942639
15.31965139
23.51151476
32.90794976
42.02305833
53.82512437
)


101
(
0
39.71302212
28.62386321
12.00982036
-11.58045543
-36.20453855
-55.60741191
-67.08468875
-74.23179878
-80.15807444
-85.23094261
-87.63527601
-85.7788706
-80.29946533
-73.60002239
-66.72105584
-60.12237369
-53.17427752
-46.81503573
-41.36837924
-37.60680916
-33.81048979
-28.18831688
-20.22360245
-11.54148402
-4.176791569
0.4291700658
2.15128237
2.488279985
2.622517977
2.801263849
2.512592642
1.463508364
0.3041714531
-0.9006718001
-1.382373738
-1.089355108
-0.5959157566
-0.5410826855
-1.881280445
-3.375494344
-4.35123712
-4.448642648
-3.465937169
-2.17548906
-1.113469428
-0.28601532
0.4450445497
1.264282822
2.613010166
4.392967612
6.406860212
8.525209602
10.68375054
12.8581805
15.06676246
17.32602216
19.59821427
21.86541865
24.08602421
26.23405714
28.29405925
30.27576514
32.18406005
34.06293918
35.94676545
37.76403017
39.43297779
40.88378806
42.14545827
43.27569479
44.26703593
45.01169041
45.59668168
46.3186103
47.19101479
47.73856868
47.87087283
47.82339095
47.8684925
47.79928098
47.19969115
46.83381596
46.27899622
45.24564281
44.28715394
43.4528508
42.33786434
40.61160429
39.24982556
37.81058656
36.14253505
34.21757894
32.5402871
32.26375708
29.97502866
26.04901096
35.28576539
45.18980053
52.08038834
62.28721724
)


101
(
0
42.59103788
31.97031697
15.11366506
-8.910551442
-34.08143182
-53.94253136
-65.4303674
-72.24351812
-77.80039093
-82.74675862
-85.39384865
-83.75301592
-78.402118
-71.46694703
-64.65794648
-57.90954198
-51.34821655
-44.6136767
-39.24478174
-35.26104703
-32.01120212
-27.16344793
-20.03782209
-11.64100158
-4.233023109
0.6796698417
2.557431628
2.551729393
2.079646483
1.820878329
1.678727177
0.8792471052
-0.6687174993
-2.33506786
-3.840457866
-4.382883597
-4.13962134
-3.428942193
-3.522510605
-3.904692044
-4.632578384
-4.567928459
-3.654311932
-1.966096224
-0.1095755769
1.488995026
2.911267493
4.454681291
6.210518708
8.342619823
10.85040768
13.42475897
16.02266051
18.64062553
21.24716962
23.88459698
26.52663177
29.15378948
31.74204443
34.26081781
36.67306841
38.98283246
41.20019523
43.35020461
45.47663675
47.59995815
49.61753533
51.45089677
53.03995899
54.4236887
55.65460389
56.6745347
57.57410378
58.60599371
59.71892732
60.44008935
60.71141388
60.83965337
61.10948557
61.25308014
60.71190568
60.36312861
60.00881238
59.10487602
58.00527649
57.23943755
56.1238054
54.51327278
52.88712264
51.46475196
49.57816613
47.76279109
45.71002388
45.47152567
42.65765092
38.25624235
46.97369382
54.89545411
56.14629209
43.20513352
)


101
(
0
45.56176563
35.37071805
18.27739886
-6.167756857
-31.88915989
-52.26041276
-63.83177116
-70.36881972
-75.55942988
-80.38227725
-83.19972807
-81.89982569
-76.70784102
-69.65938961
-62.91659383
-56.09110924
-49.52495583
-43.27722139
-37.44550254
-33.21877778
-30.20182572
-25.95500915
-19.90290496
-12.10481467
-4.619684219
0.5667336805
2.804359274
2.559661802
1.438405584
0.5241345065
0.05125212525
-0.4266275109
-1.581904337
-3.369524903
-5.407812138
-6.74354573
-6.789950005
-5.904336478
-4.878237522
-4.31057464
-3.972992521
-3.586180581
-2.601159981
-0.9124583293
1.255037445
3.561309096
5.772532069
7.816709876
10.05453635
12.51329798
15.24770038
18.1894794
21.13502044
24.07202895
27.0032333
29.9339555
32.85580463
35.76381962
38.64095637
41.45615236
44.17111613
46.76307847
49.25413282
51.64751118
53.96346104
56.28095328
58.55725615
60.69912763
62.59899339
64.22952471
65.65599926
66.84642874
67.92744209
69.1794758
70.54413525
71.46196804
71.80312227
71.9768308
72.32979888
72.66105754
72.25192848
71.80754152
71.49359231
70.79743531
69.56151954
68.67122808
67.58994807
66.07590683
64.25481269
62.87166948
60.67032016
59.0845888
56.97410616
56.76599961
53.93496582
49.64837749
54.46584312
56.91873866
51.23115534
51.01152402
)


101
(
0
48.4702234
38.81352577
21.4974803
-3.357430347
-29.63414412
-50.57849239
-62.26350497
-68.57572714
-73.43118152
-78.08763798
-81.07131549
-80.18150638
-75.20927739
-68.17268795
-61.04371547
-54.61634473
-48.114302
-41.8803479
-36.24335978
-31.80626895
-28.27714228
-24.89532283
-19.50504173
-12.64161775
-5.472035793
-0.09029782642
2.436982078
2.230395801
0.5604563335
-1.112234158
-1.941233073
-2.189652409
-2.774704374
-4.275186641
-6.27149621
-7.92441908
-8.831677292
-8.30115376
-6.255274872
-4.495573099
-2.937580511
-1.909367376
-0.9356136819
0.5656397855
2.866301299
5.554611435
8.286998414
10.9531394
13.53070756
16.2164359
19.17858626
22.30818842
25.48745009
28.64791909
31.78823094
34.94020794
38.05848192
41.14479622
44.2070486
47.22921515
50.16484739
52.96999148
55.66197011
58.22105816
60.67762707
63.07383187
65.44907961
67.74509466
69.8181812
71.60816697
73.12763192
74.36450654
75.41732253
76.62066058
78.06488535
79.08759421
79.45558361
79.46373143
79.60686973
79.89151015
79.5369263
78.91020798
78.3233106
77.66613657
76.35933129
75.07323041
73.91146946
72.44251891
70.50144918
68.98352604
66.70612413
64.98458929
63.04197678
62.8799591
60.17627859
55.53446476
54.33068131
49.03938862
36.03044382
15.94076233
)


101
(
0
51.41363104
42.2764939
24.77133666
-0.4748754291
-27.30103404
-48.87143705
-60.73598231
-66.88447585
-71.42128856
-75.89065872
-79.04124671
-78.50108647
-73.82251111
-66.89913249
-59.63187988
-53.15676986
-46.98329379
-41.00142667
-35.20451716
-30.66633194
-27.18817386
-23.71143871
-19.16794466
-13.20655583
-6.717363568
-1.167185825
1.829773494
1.864859148
-0.1729527794
-2.621381982
-3.934993982
-4.122493527
-4.076418663
-4.766260443
-6.513673947
-8.634395252
-9.86570287
-9.515015795
-7.642414423
-4.951234688
-2.298074855
-0.3103322964
1.074996752
2.439246918
4.34565423
7.07006136
10.15836476
13.22870477
16.2259124
19.11414772
22.11320232
25.32561926
28.63680288
31.93646872
35.19858158
38.43984798
41.66016757
44.82930393
47.95568207
51.05086149
54.07857982
56.98579902
59.75571499
62.36700838
64.8425559
67.1872554
69.46474036
71.68395451
73.72057012
75.46141728
76.87559635
77.96972761
78.77051888
79.58710235
80.69952753
81.58649612
81.81220754
81.49051537
81.09466824
80.90047083
80.26356758
79.35554686
78.1976233
77.19119425
75.75631594
73.93949069
72.35340012
70.83483474
68.73952276
66.94476439
64.74782759
62.72091829
60.97207044
60.93310043
58.27511301
53.58789649
44.77288795
30.99054797
12.07274089
-8.313245877
)


101
(
0
54.3832081
45.78371801
28.09406643
2.473333171
-24.89243225
-47.00404985
-59.23483055
-65.27642253
-69.53476447
-73.80367596
-77.04651611
-76.93200282
-72.66533972
-65.79212713
-58.49992896
-51.92554502
-45.97516242
-40.43738814
-34.7640273
-30.03297019
-26.36499125
-22.66369483
-18.780764
-13.53454836
-7.771607365
-2.575283692
0.625108655
1.141547418
-0.7825433408
-3.747616778
-5.765622278
-6.062909328
-5.913732825
-5.66917849
-6.71642638
-8.435709171
-9.992688803
-10.59276722
-8.975890443
-5.803351107
-2.39600243
0.7896176094
2.849605737
4.038474457
5.614442246
7.910749634
10.98049185
14.36807645
17.61336112
20.71714053
23.77794941
26.91806416
30.20832943
33.52136663
36.80562398
40.06692437
43.26971217
46.39649201
49.43954176
52.44339047
55.38980201
58.22697287
60.8989721
63.37468973
65.67673238
67.78811661
69.75556116
71.61548287
73.31230514
74.68795661
75.71120664
76.38699746
76.68040182
76.81063191
77.13576774
77.38925964
77.13156878
76.30579733
75.14187167
74.00852347
72.61930586
71.18927262
69.29449411
67.48514736
65.70415149
63.40232574
61.11845053
59.36026687
57.04927526
54.91769652
52.88703943
50.67024354
48.97122099
49.18838747
46.53520659
41.88904122
26.02098283
5.382986223
-16.71441859
-42.94923475
)


101
(
0
57.3558172
49.34429131
31.46184739
5.480863821
-22.40957381
-45.16323803
-57.73349489
-63.7229758
-67.7237169
-71.77904389
-75.11569749
-75.36927223
-71.50696829
-64.90163099
-57.54916602
-50.86403789
-45.0325682
-39.50054488
-34.59114277
-29.96608075
-25.55252934
-21.75136396
-18.08948774
-13.82874144
-8.92692138
-4.211471294
-1.000738373
0.07626663118
-1.354582399
-4.583462716
-7.104390231
-8.211370893
-7.788612739
-6.923252023
-6.87875704
-8.477262967
-9.926513555
-10.72557312
-9.795130491
-7.068413231
-3.181588203
0.710213704
3.544779821
5.237727008
6.291702255
8.043402169
10.68658022
14.02010022
17.47781711
20.76470078
23.77645131
26.77683803
29.88128537
33.08585694
36.25356262
39.38064154
42.46784313
45.42455409
48.25468947
50.94144996
53.58617997
56.11774923
58.46650899
60.57222773
62.43787408
64.05658334
65.4467415
66.64427795
67.63578128
68.29039319
68.56459327
68.44869648
67.91927405
67.08791454
66.26538929
65.37423739
64.16531525
62.51862974
60.44632027
58.15794677
55.61111276
53.34780779
50.65235246
47.86765023
45.42822836
42.74746925
39.8316088
37.70530397
35.25468086
32.94266252
31.06370316
29.02684859
27.47582396
28.10281146
25.6418455
21.18486019
0.458439347
-23.67128709
-45.79407075
-70.6602985
)


101
(
0
60.35738606
52.89647671
34.86831806
8.550201318
-19.8424802
-43.25327893
-56.24756777
-62.25298178
-66.03582296
-69.8896448
-73.24902648
-73.89344574
-70.46499319
-64.1081502
-56.83583364
-50.14187887
-44.22826838
-39.11733968
-34.14823187
-29.5046522
-25.32835597
-21.46089374
-17.72956059
-13.92364294
-9.836728798
-5.752331519
-2.653914375
-1.328090509
-2.199829593
-4.940044177
-8.366535751
-9.949754894
-9.753768125
-8.976116297
-7.90210998
-8.53755639
-9.688636402
-10.91481414
-10.93757733
-8.706585588
-4.946554682
-0.7718983002
2.897162239
5.164689323
6.253456506
7.176592885
9.060678308
12.0522804
15.46998494
18.88290984
21.86994214
24.68303357
27.46571847
30.28719114
33.18902439
36.03460687
38.83634802
41.46932579
43.89495907
46.10672363
48.17586945
50.1165284
51.85283674
53.3154482
54.44468569
55.25104359
55.74591843
55.94686042
55.87740356
55.44091233
54.57861771
53.29117183
51.59878511
49.54815995
47.33991905
44.97939993
42.39343702
39.56216764
36.45383322
33.05782779
29.26169222
25.9738088
22.55442936
18.96119186
15.80571831
12.90642936
9.737896735
7.370781577
5.06257371
3.008299002
1.444993412
-0.03611272502
-1.026295353
0.2957359552
-1.548798436
-5.357971287
-27.94888586
-51.92838746
-71.72925156
-90.52026572
)


101
(
0
63.03965469
56.47338337
38.30930295
11.66896284
-17.20940684
-41.29280959
-54.73798788
-60.81488236
-64.41934327
-68.06123336
-71.44262027
-72.40513562
-69.4742341
-63.4405495
-56.2907528
-49.5207684
-43.64926158
-38.66997234
-34.11984323
-29.66432701
-25.46918599
-21.3638332
-17.59044479
-14.10075097
-10.56408814
-7.31489193
-4.636171031
-3.192352134
-3.521027088
-5.589992044
-8.698688364
-11.4220589
-12.16838702
-11.12460452
-9.801789835
-9.371852328
-10.55685999
-11.27776259
-11.66000051
-10.37130185
-7.623643864
-3.674018983
0.4559615184
3.334340937
4.788464339
5.261368286
6.409490431
8.357945989
11.45428736
14.7563931
17.77493077
20.3257867
22.67181786
25.00860404
27.31204238
29.66660157
31.9323011
34.08097056
35.94260378
37.46090108
38.6991585
39.74524928
40.54436019
41.03353632
41.12010514
40.78482709
40.0423931
38.91853245
37.45044075
35.58112078
33.25473905
30.48444401
27.33953774
23.87161877
20.17912188
16.25116827
12.12806891
7.931830576
3.731853822
-0.5580505391
-5.316367301
-9.49241559
-13.38507871
-17.30120046
-20.79167061
-23.60299573
-26.44031058
-28.58685905
-30.25837043
-31.44156587
-32.24806325
-32.72508938
-32.62454556
-30.14940192
-30.84103974
-33.38759703
-55.11475552
-76.30584507
-93.05967448
-107.811378
)


101
(
0
66.46378034
60.06314915
41.77746546
14.83706431
-14.49876494
-39.25627286
-53.21858487
-59.42889074
-62.89903529
-66.34597664
-69.7058322
-70.95822785
-68.48060351
-62.85409472
-55.88475246
-49.01687035
-43.2992693
-38.25620297
-34.14137632
-30.07999772
-25.8848555
-21.58702752
-17.54760381
-14.10100215
-11.10466415
-8.504100096
-6.421430143
-5.170503592
-5.046912971
-6.4648874
-9.488872081
-12.18631496
-13.90104613
-13.71071286
-12.69797024
-11.62700151
-11.85147633
-12.58899951
-13.27703955
-12.83208098
-10.89269974
-7.552189292
-3.839231155
-0.4623986362
1.410174877
2.033547269
2.092806201
3.208978805
5.364136451
8.221219417
11.13696279
13.42063866
15.30181847
16.91597964
18.47772285
19.985502
21.47273344
22.83269005
23.92895553
24.57600043
24.76709065
24.59178644
24.12251964
23.29964117
22.02794566
20.25070798
17.97351622
15.23469913
12.097584
8.546361003
4.542958249
0.1084017519
-4.642592712
-9.599165864
-14.70984847
-20.03682727
-25.51726081
-30.93455884
-36.06937439
-40.89241157
-46.01776035
-50.55110961
-54.43346323
-57.99236398
-61.09176169
-63.23986857
-65.05563152
-66.27789189
-66.67858288
-66.36518888
-65.82787894
-64.82979496
-63.17621281
-59.10795055
-58.19139971
-59.04205063
-78.25691171
-95.86770428
-110.6658649
-167.8201626
)


101
(
0
69.1400466
63.66143085
45.26626773
18.04540063
-11.71627273
-37.15166314
-51.67053559
-58.06914095
-61.45305791
-64.72794946
-68.02457603
-69.54298527
-67.55595345
-62.34838034
-55.59604987
-48.86315322
-42.9349164
-38.16198557
-34.12401055
-30.44368465
-26.62902992
-22.36091915
-17.94231271
-14.32452846
-11.51660155
-9.6505618
-8.291429942
-7.461021621
-7.319022161
-8.188737656
-10.14547781
-13.14403305
-15.56529894
-16.49707048
-15.89015101
-15.06524799
-14.87971395
-15.18408451
-15.71746268
-15.68944023
-14.75101822
-12.71319884
-9.898985006
-6.717021092
-4.307440644
-3.362478785
-3.63592748
-3.728036363
-2.847436932
-0.7481443464
1.666505641
3.703141618
5.036445215
5.893291276
6.428669511
6.779137638
7.197370268
7.457970524
7.499798935
7.033372335
5.970488591
4.365655197
2.310781761
-0.1445173734
-3.068484007
-6.528296322
-10.55533415
-15.10271802
-20.06807604
-25.41067939
-31.12832114
-37.20571799
-43.51333597
-49.85212873
-56.1338789
-62.45705089
-68.80739315
-74.94399335
-80.53789191
-85.3635233
-90.09100948
-94.1653019
-97.32098903