/*--------------------------------*- C++ -*----------------------------------*\
| =========                 |                                                 |
| \\      /  F ield         | OpenFOAM: The Open Source CFD Toolbox           |
|  \\    /   O peration     | Version:  2.3.1                                 |
|   \\  /    A nd           | Web:      www.OpenFOAM.org                      |
|    \\/     M anipulation  |                                                 |
\*---------------------------------------------------------------------------*/
FoamFile
{
    version     2.0;
    format      ascii;
    class       dictionary;
    location    "constant";
    object      la_i29;
}
// * * * * * * * * * * * * * * * * * * * * * * * * * * * * * * * * * * * * * //

la_i29_table
101
(

101
(
0
0
0
0
0
0
0
0
0
0
0
0
0
0
0
0
0
0
0
0
0
0
0
0
0
0
0
0
0
0
0
0
0
0
0
0
0
0
0
0
0
0
0
0
0
0
0
0
0
0
0
0
0
0
0
0
0
0
0
0
0
0
0
0
0
0
0
0
0
0
0
0
0
0
0
0
0
0
0
0
0
0
0
0
0
0
0
0
0
0
0
0
0
0
0
0
0
0
0
0
7.353304542e-20
)


101
(
0
-3.508479199e-28
1.244672022e-25
2.460635503e-24
1.784335029e-23
7.10913529e-23
1.950479523e-22
4.788973377e-22
1.035514126e-21
2.064881236e-21
3.868639601e-21
6.996695318e-21
1.207875376e-20
2.08132931e-20
3.527229404e-20
5.848266437e-20
9.495797374e-20
1.5512035e-19
2.397495277e-19
3.742861706e-19
5.654998377e-19
8.20380685e-19
1.175199387e-18
1.645102702e-18
2.239311798e-18
2.965745481e-18
3.830293998e-18
4.828401199e-18
5.955778693e-18
7.197795989e-18
8.538152687e-18
9.965866906e-18
1.139965759e-17
1.289504946e-17
1.445047829e-17
1.372181011e-17
1.872782242e-17
3.315655639e-17
3.790278227e-17
3.92756021e-17
4.045404127e-17
4.14304549e-17
4.211002854e-17
4.257210033e-17
4.284949991e-17
4.293646876e-17
4.280766993e-17
4.249736962e-17
4.20155272e-17
4.137742613e-17
4.05993144e-17
3.968515996e-17
3.865452783e-17
3.712242758e-17
3.550258402e-17
3.404394962e-17
3.266105619e-17
3.117950561e-17
2.9684333e-17
2.817344658e-17
2.658043377e-17
2.50324739e-17
2.347356757e-17
2.177566907e-17
1.992757325e-17
1.840173734e-17
1.690454319e-17
1.544454522e-17
1.390474401e-17
1.254767856e-17
1.125219782e-17
1.002417869e-17
8.869459872e-18
7.478517046e-18
6.841953368e-18
6.485896801e-18
5.593318876e-18
4.67195424e-18
3.869234452e-18
3.167202215e-18
2.556850794e-18
2.00095367e-18
1.521639458e-18
1.219179614e-18
9.935382099e-19
7.466800086e-19
5.266930971e-19
3.510308186e-19
2.242184636e-19
1.498183553e-19
9.177163512e-20
5.042199352e-20
2.446304779e-20
1.093637596e-20
4.436367779e-21
1.50394306e-21
4.071996205e-22
1.368099888e-21
3.919684652e-21
1.017038945e-20
2.35928047e-20
)


101
(
0
-2.086620235e-28
-8.579488097e-29
2.069501185e-26
1.747018619e-25
8.513695505e-25
3.220315251e-24
1.001199862e-23
2.736566337e-23
6.797499086e-23
1.575521102e-22
3.450872666e-22
7.3125443e-22
1.499273338e-21
2.995770374e-21
5.848636048e-21
1.117981364e-20
2.070495748e-20
3.777354971e-20
6.656924088e-20
1.140460181e-19
1.902925743e-19
3.077973548e-19
4.831126848e-19
7.366494576e-19
1.089330924e-18
1.564790255e-18
2.188888569e-18
2.983146203e-18
3.966688356e-18
5.154929957e-18
6.556111668e-18
8.159593648e-18
1.002352606e-17
1.213429713e-17
1.444772981e-17
1.691187358e-17
1.948410872e-17
2.224294306e-17
2.506434753e-17
2.821841496e-17
3.097140388e-17
3.404639422e-17
3.729220066e-17
4.026015211e-17
4.308711282e-17
4.594503807e-17
4.843012879e-17
5.096951664e-17
5.315523059e-17
5.526984417e-17
5.696017847e-17
5.847795191e-17
5.976709407e-17
6.050999164e-17
6.095336715e-17
6.093235984e-17
6.077827912e-17
6.02798312e-17
5.947361005e-17
5.83791348e-17
5.698516477e-17
5.50388224e-17
5.294926418e-17
5.086933131e-17
4.883483461e-17
4.631153152e-17
4.364387804e-17
4.084967126e-17
3.777780041e-17
3.501330009e-17
3.170782053e-17
2.897285869e-17
2.61540646e-17
2.337201112e-17
2.074383921e-17
1.819939344e-17
1.593122647e-17
1.378849027e-17
1.168401052e-17
9.851393325e-18
8.145521638e-18
6.738118162e-18
5.394235115e-18
4.257605051e-18
3.255253905e-18
2.496728337e-18
1.856373131e-18
1.344596984e-18
9.343201282e-19
6.285169235e-19
3.914405436e-19
2.449907785e-19
1.435063926e-19
7.806865737e-20
3.896417457e-20
1.527201756e-20
4.349260303e-20
1.095892419e-19
2.595829848e-19
5.638075254e-19
)


101
(
0
-2.009623153e-28
-1.800320062e-28
1.955815624e-26
1.704827436e-25
8.466939995e-25
3.245156363e-24
1.023473735e-23
2.835481392e-23
7.133308352e-23
1.673929347e-22
3.714011952e-22
7.959709406e-22
1.652193404e-21
3.341161371e-21
6.601092517e-21
1.278096098e-20
2.401708176e-20
4.437523047e-20
7.952084228e-20
1.385677731e-19
2.352825133e-19
3.875739799e-19
6.20192298e-19
9.636657818e-19
1.455060308e-18
2.135901121e-18
3.050466944e-18
4.245264115e-18
5.766613679e-18
7.65629485e-18
9.951533176e-18
1.26738424e-17
1.586836225e-17
1.951301462e-17
2.041607246e-17
2.824647954e-17
3.327000986e-17
3.770036575e-17
4.445838474e-17
5.077558435e-17
5.684237154e-17
6.345818576e-17
7.021508947e-17
7.690777376e-17
8.374547919e-17
9.066023182e-17
9.752999008e-17
1.041104788e-16
1.104182671e-16
1.162890483e-16
1.216624898e-16
1.266377756e-16
1.308775919e-16
1.344430747e-16
1.389093092e-16
1.400566652e-16
1.416096857e-16
1.425332445e-16
1.427101833e-16
1.420522079e-16
1.406055375e-16
1.3809283e-16
1.347497226e-16
1.312246409e-16
1.273378648e-16
1.228855499e-16
1.16324929e-16
1.106164119e-16
1.045132082e-16
9.886845154e-17
9.166504066e-17
8.50345309e-17
7.80008865e-17
7.099700087e-17
6.44107976e-17
5.784049664e-17
5.096817358e-17
4.488298267e-17
3.921130675e-17
3.408815387e-17
2.89187581e-17
2.439139158e-17
2.023351945e-17
1.666617753e-17
1.342014635e-17
1.054221871e-17
8.166691099e-18
6.18959323e-18
4.627086652e-18
3.351352496e-18
2.349986659e-18
1.587309501e-18
1.05338586e-18
6.60190688e-19
3.898906496e-19
1.925489128e-19
4.831182923e-19
1.098825071e-18
2.363487187e-18
4.72365838e-18
)


101
(
0
-1.931803425e-28
-2.671665841e-28
1.842823773e-26
1.660120822e-25
8.401928816e-25
3.265393756e-24
1.043291597e-23
2.926346492e-23
7.447521076e-23
1.767055809e-22
3.962220505e-22
8.574945114e-22
1.797328e-21
3.670214587e-21
7.324257583e-21
1.432229559e-20
2.723609892e-20
5.089498747e-20
9.246206514e-20
1.634330356e-19
2.81664543e-19
4.715609629e-19
7.673063308e-19
1.213200392e-18
1.864819766e-18
2.787629415e-18
4.05592151e-18
5.750474823e-18
7.956903019e-18
1.069935171e-17
1.423418674e-17
1.846353628e-17
2.355368749e-17
2.942475368e-17
3.620432944e-17
4.395921341e-17
5.264759361e-17
6.221415182e-17
7.301467254e-17
8.443245422e-17
9.619415504e-17
1.089830963e-16
1.222306792e-16
1.359315663e-16
1.503443504e-16
1.64920427e-16
1.790142895e-16
1.924155808e-16
2.065574042e-16
2.204208123e-16
2.337066957e-16
2.460099385e-16
2.575674835e-16
2.679435906e-16
2.774180315e-16
2.857042317e-16
2.922966337e-16
2.980766043e-16
3.01128037e-16
3.031495348e-16
3.035115478e-16
3.02076761e-16
2.988427757e-16
2.951370527e-16
2.880393401e-16
2.804369637e-16
2.71387455e-16
2.611639771e-16
2.502202573e-16
2.373340097e-16
2.241923089e-16
2.105259669e-16
1.969079342e-16
1.826294394e-16
1.68542857e-16
1.522132525e-16
1.37975595e-16
1.24147203e-16
1.103911022e-16
9.787527122e-17
8.420205496e-17
7.273112228e-17
6.19249674e-17
5.239928101e-17
4.33262494e-17
3.548915236e-17
2.856761668e-17
2.26759868e-17
1.758664965e-17
1.339326421e-17
1.002278619e-17
7.30218383e-18
5.232435761e-18
3.661212241e-18
2.390148173e-18
1.361143975e-18
3.069779254e-18
6.389071638e-18
1.264839463e-17
2.360602959e-17
)


101
(
0
-1.853586106e-28
-3.472614358e-28
1.730987224e-26
1.613208109e-25
8.320332294e-25
3.278367548e-24
1.060652264e-23
3.010634097e-23
7.746326188e-23
1.857011973e-22
4.204483169e-22
9.179982551e-22
1.940675751e-21
3.996626543e-21
8.044288353e-21
1.586082145e-20
3.046576558e-20
5.747571516e-20
1.056178621e-19
1.889781347e-19
3.29826648e-19
5.598687986e-19
9.241845539e-19
1.483552116e-18
2.316148773e-18
3.516226696e-18
5.199577253e-18
7.496414956e-18
1.054458781e-17
1.44849747e-17
1.945250725e-17
2.55973811e-17
3.319617888e-17
4.212463747e-17
5.262517002e-17
6.482202694e-17
7.870300833e-17
9.431273919e-17
1.118854396e-16
1.309777132e-16
1.516419247e-16
1.739545343e-16
1.977926202e-16
2.229702539e-16
2.492495382e-16
2.760654083e-16
3.028726712e-16
3.298129143e-16
3.577699931e-16
3.85126323e-16
4.121411901e-16
4.374815812e-16
4.617422927e-16
4.852028432e-16
5.071538586e-16
5.26578805e-16
5.433491544e-16
5.632389792e-16
5.755884365e-16
5.791945526e-16
5.872874923e-16
5.879385248e-16
5.882366856e-16
5.878266538e-16
5.80977874e-16
5.721973283e-16
5.607455685e-16
5.413926517e-16
5.308963595e-16
5.082965067e-16
4.850873951e-16
4.585557776e-16
4.337810722e-16
4.073917249e-16
3.799223646e-16
3.508476838e-16
3.239999252e-16
2.935551964e-16
2.651099123e-16
2.373257645e-16
2.117321148e-16
1.855159574e-16
1.619427221e-16
1.392284137e-16
1.192906226e-16
9.973369812e-17
8.346020408e-17
6.796721458e-17
5.461770876e-17
4.401830476e-17
3.420482508e-17
2.637214936e-17
2.012008192e-17
1.488478572e-17
1.048444958e-17
6.693471521e-18
1.370590466e-17
2.630580505e-17
4.920324897e-17
8.733439339e-17
)


101
(
0
-1.775256613e-28
-4.203944393e-28
1.620460645e-26
1.562732716e-25
8.205276036e-25
3.274087263e-24
1.072131878e-23
3.083944188e-23
8.0198647e-23
1.94056607e-22
4.434095158e-22
9.754656663e-22
2.078183481e-21
4.309842959e-21
8.737747033e-21
1.73574922e-20
3.362583654e-20
6.394573113e-20
1.186318927e-19
2.144892801e-19
3.784429674e-19
6.508059416e-19
1.088951851e-18
1.772892442e-18
2.808180821e-18
4.323422911e-18
6.481283113e-18
9.473507886e-18
1.351342076e-17
1.882409715e-17
2.562491414e-17
3.417785222e-17
4.483855456e-17
5.765714563e-17
7.290434154e-17
9.081131416e-17
1.114995408e-16
1.350381623e-16
1.61945388e-16
1.921633984e-16
2.254853023e-16
2.612834961e-16
3.002756173e-16
3.419711009e-16
3.85160132e-16
4.296464899e-16
4.764183933e-16
5.253435244e-16
5.744503818e-16
6.262370146e-16
6.763322469e-16
7.223356178e-16
7.66141075e-16
8.14800209e-16
8.583604077e-16
8.932518429e-16
9.31155622e-16
9.685242399e-16
9.993529776e-16
1.021841341e-15
1.045927245e-15
1.060049621e-15
1.063810165e-15
1.069537149e-15
1.068765759e-15
1.061467854e-15
1.048140253e-15
1.024244769e-15
1.000589785e-15
9.702247735e-16
9.394781373e-16
9.011044084e-16
8.615323735e-16
8.173780993e-16
7.699453071e-16
7.229443904e-16
6.731171209e-16
6.181803572e-16
5.661987923e-16
5.141253659e-16
4.681468824e-16
4.176101585e-16
3.712547863e-16
3.267172125e-16
2.849954511e-16
2.458889841e-16
2.094417011e-16
1.764546956e-16
1.471647912e-16
1.208754077e-16
9.877980462e-17
7.861253291e-17
6.232207372e-17
4.854118068e-17
3.626755534e-17
2.488495519e-17
4.801184539e-17
8.751074162e-17
1.529223764e-16
2.556584405e-16
)


101
(
0
-1.696948677e-28
-4.866837752e-28
1.511720317e-26
1.509982472e-25
8.064145779e-25
3.253585517e-24
1.077412734e-23
3.14528918e-23
8.262275044e-23
2.016607628e-22
4.643817552e-22
1.028478016e-21
2.205529551e-21
4.60278278e-21
9.388809001e-21
1.877113598e-20
3.663508277e-20
7.014782983e-20
1.311682797e-19
2.392351118e-19
4.260370597e-19
7.411845521e-19
1.254744749e-18
2.066786541e-18
3.313795038e-18
5.163490958e-18
7.831325135e-18
1.158199273e-17
1.672121222e-17
2.357476863e-17
3.247086554e-17
4.380865429e-17
5.803499181e-17
7.549573489e-17
9.678026944e-17
1.221215272e-16
1.51607176e-16
1.857702994e-16
2.249852288e-16
2.691025264e-16
3.176896269e-16
3.718982007e-16
4.319540155e-16
4.969061336e-16
5.650212236e-16
6.348794449e-16
7.071540284e-16
7.839610454e-16
8.63440111e-16
9.519342989e-16
1.033156286e-15
1.113254976e-15
1.194189135e-15
1.274629976e-15
1.349882716e-15
1.422747598e-15
1.491259502e-15
1.558039673e-15
1.614330726e-15
1.657391294e-15
1.705668849e-15
1.744652861e-15
1.769521983e-15
1.786173625e-15
1.79331083e-15
1.783340207e-15
1.780623895e-15
1.761760627e-15
1.742492486e-15
1.713302508e-15
1.669803533e-15
1.609321182e-15
1.547252933e-15
1.487852955e-15
1.413920283e-15
1.342106765e-15
1.265025488e-15
1.185833775e-15
1.105340856e-15
1.015358938e-15
9.291897835e-16
8.469656254e-16
7.625019689e-16
6.842555297e-16
6.117592564e-16
5.350159063e-16
4.668359513e-16
4.028966689e-16
3.446050979e-16
2.907986806e-16
2.435861648e-16
2.019304389e-16
1.652347186e-16
1.348628582e-16
1.05411387e-16
7.676102292e-17
1.393859363e-16
2.408556301e-16
3.994665433e-16
6.36386189e-16
)


101
(
0
-1.619048604e-28
-5.461777783e-28
1.403584768e-26
1.454905263e-25
7.907329895e-25
3.225530337e-24
1.079724049e-23
3.197895764e-23
8.48108013e-23
2.086723238e-22
4.839274983e-22
1.078178371e-21
2.325100366e-21
4.877990327e-21
9.999744993e-21
2.009639923e-20
3.94551676e-20
7.596078671e-20
1.429235637e-19
2.625073912e-19
4.71028687e-19
8.274950558e-19
1.414331045e-18
2.350282834e-18
3.802300122e-18
5.986914149e-18
9.18540848e-18
1.374863369e-17
2.009725769e-17
2.869334566e-17
4.002132621e-17
5.466204264e-17
7.307774475e-17
9.626730403e-17
1.24767425e-16
1.585793875e-16
1.979094587e-16
2.44521799e-16
2.98471926e-16
3.603980237e-16
4.313299697e-16
5.094440968e-16
5.950163815e-16
6.87862411e-16
7.869453771e-16
8.902943601e-16
9.960499211e-16
1.115011497e-15
1.238674555e-15
1.36475328e-15
1.485547035e-15
1.614450351e-15
1.731808938e-15
1.858905305e-15
1.994007816e-15
2.109119841e-15
2.22540413e-15
2.334603617e-15
2.432462775e-15
2.515765852e-15
2.603668573e-15
2.665161888e-15
2.720963408e-15
2.763638743e-15
2.801757613e-15
2.821781494e-15
2.837475396e-15
2.833390961e-15
2.794969525e-15
2.761531136e-15
2.698334491e-15
2.650924043e-15
2.584895581e-15
2.498107954e-15
2.399952456e-15
2.303059985e-15
2.188388074e-15
2.068871579e-15
1.947980335e-15
1.829766589e-15
1.685314593e-15
1.564275671e-15
1.421779953e-15
1.303769662e-15
1.173830521e-15
1.050871266e-15
9.353998144e-16
8.246701252e-16
7.213602692e-16
6.239812585e-16
5.379241383e-16
4.580631276e-16
3.849040264e-16
3.239950968e-16
2.625924614e-16
2.016554821e-16
3.459099645e-16
5.669995457e-16
8.860076315e-16
1.324205975e-15
)


101
(
0
-1.541788161e-28
-5.987061654e-28
1.296086281e-26
1.395816909e-25
7.726282359e-25
3.189964389e-24
1.080282622e-23
3.236792825e-23
8.652672585e-23
2.14728378e-22
5.01748413e-22
1.124462722e-21
2.437183146e-21
5.13659859e-21
1.057293314e-20
2.133998108e-20
4.209727376e-20
8.140802114e-20
1.539420762e-19
2.843352266e-19
5.129861465e-19
9.055023233e-19
1.560114007e-18
2.609635551e-18
4.252435073e-18
6.619911451e-18
1.048297578e-17
1.586923279e-17
2.345535282e-17
3.386502411e-17
4.782621678e-17
6.622598879e-17
8.937877298e-17
1.186907358e-16
1.549607009e-16
1.981970078e-16
2.490157353e-16
3.115307986e-16
3.83994683e-16
4.668343727e-16
5.613576657e-16
6.664889589e-16
7.817274835e-16
9.072866906e-16
1.042883901e-15
1.18751966e-15
1.341569263e-15
1.512015563e-15
1.684431454e-15
1.8613011e-15
2.03971889e-15
2.22378072e-15
2.40341125e-15
2.604401348e-15
2.786161191e-15
2.969551005e-15
3.127774366e-15
3.2946949e-15
3.456089201e-15
3.588012528e-15
3.739664156e-15
3.843796849e-15
3.952550384e-15
4.049102909e-15
4.124392544e-15
4.174526509e-15
4.203417252e-15
4.20513353e-15
4.191844429e-15
4.176454205e-15
4.134441838e-15
4.056955771e-15
3.970286544e-15
3.871984389e-15
3.775797014e-15
3.645874467e-15
3.488393624e-15
3.347693062e-15
3.180811498e-15
3.001553718e-15
2.819911007e-15
2.634109397e-15
2.449204953e-15
2.261424131e-15
2.072660417e-15
1.897405825e-15
1.717276299e-15
1.545395187e-15
1.365928084e-15
1.209591269e-15
1.063131699e-15
9.254186811e-16
8.00898459e-16
6.931222574e-16
5.819601981e-16
4.678490222e-16
7.519664438e-16
1.158219333e-15
1.70051142e-15
2.423076276e-15
)


101
(
0
-1.465002734e-28
-6.447908885e-28
1.191706462e-26
1.335939171e-25
7.532375507e-25
3.147217832e-24
1.078093465e-23
3.265390924e-23
8.788588535e-23
2.199952876e-22
5.177159977e-22
1.166664554e-21
2.539737179e-21
5.372471891e-21
1.109357135e-20
2.246977449e-20
4.44970867e-20
8.630152846e-20
1.637227954e-19
3.036167681e-19
5.499582562e-19
9.737397641e-19
1.688595587e-18
2.838695905e-18
4.65628148e-18
7.470513374e-18
1.170671553e-17
1.789434946e-17
2.670476068e-17
3.892409564e-17
5.548669324e-17
7.758966657e-17
1.056350278e-16
1.412735072e-16
1.856724317e-16
2.394709739e-16
3.039113617e-16
3.833004062e-16
4.752476837e-16
5.808384821e-16
7.011993056e-16
8.362314998e-16
9.838573287e-16
1.145701969e-15
1.324331575e-15
1.51897449e-15
1.72838768e-15
1.951219939e-15
2.180037065e-15
2.418650418e-15
2.667321259e-15
2.923988491e-15
3.189073429e-15
3.438543623e-15
3.68072028e-15
3.955863465e-15
4.189497533e-15
4.43615557e-15
4.671119564e-15
4.867464026e-15
5.074154148e-15
5.260950042e-15
5.436264899e-15
5.576405878e-15
5.676033649e-15
5.804700648e-15
5.857862174e-15
5.911272628e-15
5.920677079e-15
5.917441422e-15
5.876793939e-15
5.819221231e-15
5.739540051e-15
5.646137937e-15
5.523160042e-15
5.362802569e-15
5.187278686e-15
5.019475152e-15
4.810154157e-15
4.572431288e-15
4.358023842e-15
4.099777411e-15
3.860621277e-15
3.620392604e-15
3.360273286e-15
3.118004209e-15
2.847175243e-15
2.59739467e-15
2.365382699e-15
2.118193416e-15
1.90022145e-15
1.694703506e-15
1.497411497e-15
1.322785415e-15
1.149692025e-15
9.572864747e-16
1.447399642e-15
2.091336413e-15
2.814282993e-15
3.558251665e-15
)


101
(
0
-1.38919874e-28
-6.840324333e-28
1.090197683e-26
1.275512126e-25
7.329159367e-25
3.0997285e-24
1.07352618e-23
3.281288092e-23
8.892003938e-23
2.245361358e-22
5.31752167e-22
1.204183501e-21
2.631241542e-21
5.582562391e-21
1.155603073e-20
2.345746016e-20
4.657754153e-20
9.048270087e-20
1.720165451e-19
3.202118842e-19
5.824161251e-19
1.036125869e-18
1.80794279e-18
3.064801058e-18
5.066902757e-18
8.176986931e-18
1.288507988e-17
1.980776739e-17
2.975428953e-17
4.36589649e-17
6.258777904e-17
8.796453208e-17
1.20746629e-16
1.626739889e-16
2.152365365e-16
2.798130276e-16
3.583846905e-16
4.551798726e-16
5.666739515e-16
6.956053125e-16
8.429770251e-16
1.009831914e-15
1.194628036e-15
1.400843422e-15
1.62966577e-15
1.874878537e-15
2.136081196e-15
2.417759229e-15
2.710705933e-15
3.018388578e-15
3.336472983e-15
3.672275889e-15
4.015031635e-15
4.318210116e-15
4.686051533e-15
5.027311521e-15
5.367891508e-15
5.669106302e-15
6.002129084e-15
6.284687379e-15
6.565258569e-15
6.823743412e-15
7.057772467e-15
7.284251954e-15
7.438436448e-15
7.587689207e-15
7.710620582e-15
7.803954236e-15
7.857407225e-15
7.882297922e-15
7.863676257e-15
7.83712251e-15
7.767080498e-15
7.667046813e-15
7.511274585e-15
7.345508032e-15
7.187833357e-15
6.947528231e-15
6.714652022e-15
6.461575294e-15
6.192558595e-15
5.896352732e-15
5.611103913e-15
5.290332462e-15
4.957104759e-15
4.663439898e-15
4.334268671e-15
4.005261188e-15
3.70481264e-15
3.366313916e-15
3.074744328e-15
2.783428667e-15
2.528577022e-15
2.270093801e-15
2.012727175e-15
1.718492477e-15
2.413892595e-15
3.216973451e-15
3.915213049e-15
4.483442159e-15
)


101
(
0
-1.314587626e-28
-7.16972435e-28
9.923163022e-27
1.214772795e-25
7.117108573e-25
3.049701848e-24
1.06737088e-23
3.280214098e-23
8.947990022e-23
2.284180717e-22
5.439237102e-22
1.237384691e-21
2.714530407e-21
5.773464041e-21
1.19674989e-20
2.429018261e-20
4.823415578e-20
9.374510208e-20
1.7859849e-19
3.340444231e-19
6.109373792e-19
1.092969298e-18
1.913155871e-18
3.256736751e-18
5.410367494e-18
8.770900224e-18
1.387942845e-17
2.143299661e-17
3.237442327e-17
4.777311477e-17
6.879780199e-17
9.705885052e-17
1.341663268e-16
1.821653741e-16
2.428862384e-16
3.18233877e-16
4.105231438e-16
5.22964038e-16
6.533057523e-16
8.051470472e-16
9.808675867e-16
1.18047792e-15
1.402932896e-15
1.652981374e-15
1.93138434e-15
2.231330087e-15
2.551001646e-15
2.887676667e-15
3.245560045e-15
3.628802642e-15
4.022924426e-15
4.432242015e-15
4.853308187e-15
5.260002529e-15
5.711842853e-15
6.131383554e-15
6.550289995e-15
6.926945726e-15
7.342206076e-15
7.708554958e-15
8.072697888e-15
8.421256587e-15
8.71804078e-15
8.958877439e-15
9.227498681e-15
9.433475789e-15
9.597926949e-15
9.774538402e-15
9.828264965e-15
9.884521186e-15
9.901877456e-15
9.88184398e-15
9.824111112e-15
9.7300232e-15
9.598311379e-15
9.410773493e-15
9.195695868e-15
8.987276108e-15
8.719486282e-15
8.42027359e-15
8.105476893e-15
7.798176677e-15
7.444916116e-15
7.083428693e-15
6.710816837e-15
6.353847019e-15
5.979770865e-15
5.570135849e-15
5.195015463e-15
4.82619893e-15
4.470646289e-15
4.104716527e-15
3.764137222e-15
3.463937086e-15
3.128547392e-15
2.737144484e-15
3.491171512e-15
4.145215339e-15
4.368227262e-15
3.798196376e-15
)


101
(
0
-1.240644684e-28
-7.44067445e-28
8.982192267e-27
1.154349698e-25
6.896514178e-25
2.993294038e-24
1.058399423e-23
3.268953999e-23
8.972292829e-23
2.314592739e-22
5.539095218e-22
1.265238982e-21
2.785044949e-21
5.934072542e-21
1.230809708e-20
2.495787743e-20
4.951256683e-20
9.618075541e-20
1.834414373e-19
3.443636424e-19
6.326017201e-19
1.136823106e-18
1.993650311e-18
3.402155854e-18
5.666903745e-18
9.220986856e-18
1.466477651e-17
2.278270836e-17
3.459384953e-17
5.124251077e-17
7.409470834e-17
1.051295838e-16
1.46329716e-16
1.999076626e-16
2.679987204e-16
3.528436664e-16
4.568724978e-16
5.82634581e-16
7.315725432e-16
9.055390791e-16
1.106444562e-15
1.335291849e-15
1.594229715e-15
1.8860752e-15
2.210396567e-15
2.563186287e-15
2.938458962e-15
3.335116277e-15
3.771754111e-15
4.219820743e-15
4.670462815e-15
5.158717362e-15
5.658775551e-15
6.1433794e-15
6.63233528e-15
7.155863409e-15
7.632584372e-15
8.123498985e-15
8.591562597e-15
9.051638057e-15
9.476805967e-15
9.890946886e-15
1.022568289e-14
1.0545075e-14
1.086685177e-14
1.108839526e-14
1.134002155e-14
1.145988929e-14
1.157751375e-14
1.165154027e-14
1.170580225e-14
1.167147698e-14
1.160087314e-14
1.149991502e-14
1.134161771e-14
1.111920554e-14
1.093307965e-14
1.064968553e-14
1.036815182e-14
1.004705933e-14
9.716032106e-15
9.347876472e-15
8.947229271e-15
8.584364929e-15
8.181882082e-15
7.74886085e-15
7.361061044e-15
6.906639392e-15
6.482268898e-15
6.102593876e-15
5.700456792e-15
5.328404042e-15
4.950696361e-15
4.607886726e-15
4.228122757e-15
3.783253068e-15
4.321889238e-15
4.369024679e-15
3.491585125e-15
8.685451775e-16
)


101
(
0
-1.168212336e-28
-7.655802054e-28
8.080775984e-27
1.094615965e-25
6.673036618e-25
2.931222582e-24
1.046737386e-23
3.247024259e-23
8.966196655e-23
2.331614201e-22
5.621931541e-22
1.287858612e-21
2.840200346e-21
6.056243805e-21
1.256060759e-20
2.547057462e-20
5.053751133e-20
9.819851252e-20
1.88292259e-19
3.537321242e-19
6.49918273e-19
1.166847211e-18
2.046114387e-18
3.496674194e-18
5.830798543e-18
9.517347751e-18
1.520254883e-17
2.373685512e-17
3.619178041e-17
5.375472338e-17
7.796261677e-17
1.111440582e-16
1.556406995e-16
2.137587985e-16
2.879231773e-16
3.80641205e-16
4.94611183e-16
6.327219948e-16
7.968888065e-16
9.883176715e-16
1.213464821e-15
1.47108541e-15
1.761286775e-15
2.084907542e-15
2.446474835e-15
2.848461237e-15
3.271481317e-15
3.723504887e-15
4.222759968e-15
4.719657219e-15
5.219710823e-15
5.782086063e-15
6.336757554e-15
6.882121684e-15
7.437943184e-15
8.016466457e-15
8.57572381e-15
9.10425178e-15
9.623923928e-15
1.016850349e-14
1.06447502e-14
1.104784662e-14
1.139567972e-14
1.177868304e-14
1.207855373e-14
1.2369111e-14
1.253193868e-14
1.268342207e-14
1.280737281e-14
1.283725646e-14
1.286632866e-14
1.280581685e-14
1.268228191e-14
1.253639422e-14
1.232697854e-14
1.211950476e-14
1.184658146e-14
1.148303513e-14
1.119325573e-14
1.079001101e-14
1.038811828e-14
1.001131872e-14
9.560011448e-15
9.095622035e-15
8.684033196e-15
8.274375818e-15
7.828236539e-15
7.412917004e-15
7.000306609e-15
6.619359658e-15
6.244244541e-15
5.865805311e-15
5.511304615e-15
5.182125455e-15
4.827240535e-15
4.38659811e-15
4.118566743e-15
2.832817839e-15
4.922919294e-16
-2.17685834e-15
)


101
(
0
-1.097723487e-28
-7.818137121e-28
7.222332832e-27
1.035219072e-25
6.441435182e-25
2.863532127e-24
1.032432791e-23
3.21509008e-23
8.929465999e-23
2.337627956e-22
5.685495767e-22
1.305131909e-21
2.879298784e-21
6.140430719e-21
1.272882795e-20
2.582620775e-20
5.132267939e-20
9.983144771e-20
1.924175604e-19
3.604908752e-19
6.605932306e-19
1.182914169e-18
2.071760539e-18
3.541590061e-18
5.908796892e-18
9.673677125e-18
1.550229418e-17
2.427000473e-17
3.709607122e-17
5.532813658e-17
8.066153026e-17
1.153204272e-16
1.622495401e-16
2.235984735e-16
3.019938041e-16
4.002584245e-16
5.214650482e-16
6.689163214e-16
8.441639064e-16
1.053157959e-15
1.296898122e-15
1.573776467e-15
1.889027148e-15
2.244955581e-15
2.638366569e-15
3.066138397e-15
3.52707436e-15
4.026720856e-15
4.557863168e-15
5.093440165e-15
5.640150711e-15
6.239531364e-15
6.82803134e-15
7.433279258e-15
8.037333979e-15
8.631652815e-15
9.23601528e-15
9.790456583e-15
1.034363044e-14
1.084697573e-14
1.133721518e-14
1.168779035e-14
1.205325657e-14
1.243266055e-14
1.26340519e-14
1.286062833e-14
1.2992375e-14
1.312421547e-14
1.315691549e-14
1.306747504e-14
1.302022477e-14
1.282371126e-14
1.261695882e-14
1.237634386e-14
1.203419797e-14
1.174317747e-14
1.128712121e-14
1.090488671e-14
1.045342808e-14
9.929369942e-15
9.4817025e-15
9.013328178e-15
8.506488332e-15
8.042369936e-15
7.54053369e-15
7.115106106e-15
6.67336239e-15
6.281961717e-15
5.920857571e-15
5.548994396e-15
5.253048908e-15
4.948532766e-15
4.696086937e-15
4.454179288e-15
4.161842125e-15
3.75653459e-15
2.225094167e-15
-7.823430187e-16
-4.675022024e-15
-1.102227169e-14
)


101
(
0
-1.029300575e-28
-7.747589625e-28
6.408155799e-27
9.766694903e-26
6.202673427e-25
2.790577006e-24
1.015603139e-23
3.180340815e-23
8.876461399e-23
2.333741698e-22
5.724029724e-22
1.316473349e-21
2.90417795e-21
6.193371642e-21
1.283049026e-20
2.603153302e-20
5.174271289e-20
1.007004611e-19
1.947095894e-19
3.631465451e-19
6.628567627e-19
1.186142125e-18
2.074538341e-18
3.549729849e-18
5.932448874e-18
9.724125095e-18
1.558102092e-17
2.438524004e-17
3.730781879e-17
5.585830656e-17
8.186115256e-17
1.173121893e-16
1.655986361e-16
2.286030168e-16
3.092094722e-16
4.106584155e-16
5.365811414e-16
6.912960405e-16
8.767347141e-16
1.095518422e-15
1.349573423e-15
1.644247563e-15
1.978400833e-15
2.351584925e-15
2.760760083e-15
3.207967903e-15
3.702171011e-15
4.216285259e-15
4.759682252e-15
5.324416987e-15
5.897704056e-15
6.493921388e-15
7.105353498e-15
7.718013534e-15
8.30207577e-15
8.891051402e-15
9.506646357e-15
1.002661844e-14
1.052493984e-14
1.098581935e-14
1.140814901e-14
1.168993091e-14
1.201785634e-14
1.219385744e-14
1.23585201e-14
1.247452116e-14
1.244861175e-14
1.240001835e-14
1.219463938e-14
1.197956065e-14
1.172754104e-14
1.135182365e-14
1.096228132e-14
1.053566533e-14
9.99995609e-15
9.380651498e-15
8.84894459e-15
8.243513583e-15
7.589113107e-15
6.945745917e-15
6.378410772e-15
5.721356014e-15
5.14449014e-15
4.601285283e-15
4.092295738e-15
3.63788239e-15
3.217728225e-15
2.859357152e-15
2.564334296e-15
2.275145196e-15
2.103532596e-15
1.948264577e-15
1.834822278e-15
1.766416933e-15
1.631055186e-15
1.401338408e-15
-1.718484087e-15
-6.355478908e-15
-1.108959342e-14
-1.581238884e-14
)


101
(
0
-9.630570013e-29
-7.995043292e-28
5.635954863e-27
9.187831792e-26
5.958029805e-25
2.712812121e-24
9.963871218e-24
3.148190642e-23
8.838406717e-23
2.320080989e-22
5.730577345e-22
1.32042825e-21
2.917261578e-21
6.234863871e-21
1.2935339e-20
2.623125802e-20
5.206221966e-20
1.011269051e-19
1.938160454e-19
3.601801271e-19
6.555164051e-19
1.177216518e-18
2.055076891e-18
3.514088151e-18
5.875394794e-18
9.63163741e-18
1.54186635e-17
2.4122121e-17
3.69750762e-17
5.553613647e-17
8.162689338e-17
1.171634556e-16
1.657908698e-16
2.291394664e-16
3.106271029e-16
4.137717537e-16
5.420354963e-16
6.992209793e-16
8.874809452e-16
1.110455772e-15
1.372687055e-15
1.673619896e-15
2.013150057e-15
2.392796912e-15
2.809876222e-15
3.26450545e-15
3.759710386e-15
4.270124072e-15
4.807986083e-15
5.367273215e-15
5.943331991e-15
6.520324211e-15
7.107121286e-15
7.69264214e-15
8.19559371e-15
8.73425032e-15
9.265076182e-15
9.693738596e-15
1.007930466e-14
1.044689612e-14
1.068881037e-14
1.087093547e-14
1.103529858e-14
1.101079423e-14
1.10135865e-14
1.084558165e-14
1.058864225e-14
1.023422419e-14
9.822289903e-15
9.355096272e-15
8.741220366e-15
8.067684259e-15
7.36826439e-15
6.594775605e-15
5.761385049e-15
4.951727911e-15
4.081951728e-15
3.190174706e-15
2.315421382e-15
1.495533267e-15
6.820159712e-16
-9.834675388e-17
-8.100129857e-16
-1.423445298e-15
-1.993727592e-15
-2.458554309e-15
-2.838870842e-15
-3.123894759e-15
-3.301634997e-15
-3.413429132e-15
-3.420280107e-15
-3.359413884e-15
-3.248050652e-15
-3.113804599e-15
-3.027349091e-15
-2.996127216e-15
-7.361689639e-15
-1.265847139e-14
-1.693978321e-14
-2.105183146e-14
)


101
(
0
-8.990707753e-29
-8.013710011e-28
4.906859175e-27
8.617330643e-26
5.708664682e-25
2.630646084e-24
9.75000011e-24
3.107308027e-23
8.77183719e-23
2.297792605e-22
5.713867205e-22
1.318514755e-21
2.916375069e-21
6.24434768e-21
1.296919071e-20
2.627553175e-20
5.204436524e-20
1.008363825e-19
1.913927175e-19
3.541208078e-19
6.42059384e-19
1.156510417e-18
2.014389847e-18
3.440189094e-18
5.755073804e-18
9.432967239e-18
1.507354444e-17
2.357644043e-17
3.619198907e-17
5.44177994e-17
8.006502694e-17
1.151733533e-16
1.631714747e-16
2.252569699e-16
3.054760641e-16
4.07608715e-16
5.348904231e-16
6.911142686e-16
8.794083244e-16
1.10150827e-15
1.360823114e-15
1.657804497e-15
1.992495765e-15
2.365312578e-15
2.773449626e-15
3.214567538e-15
3.685890554e-15
4.177538259e-15
4.693299183e-15
5.221486397e-15
5.750717575e-15
6.273881604e-15
6.801604427e-15
7.305336576e-15
7.731835913e-15
8.153302542e-15
8.510670021e-15
8.805555287e-15
9.067442813e-15
9.168438338e-15
9.217608823e-15
9.186213634e-15
9.06612272e-15
8.762550332e-15
8.439472833e-15
7.94077387e-15
7.339914961e-15
6.637334091e-15
5.879440848e-15
4.954037831e-15
3.964615386e-15
2.929123366e-15
1.820170561e-15
6.462287183e-16
-5.503484269e-16
-1.766757047e-15
-2.987407468e-15
-4.16358413e-15
-5.294226174e-15
-6.368234344e-15
-7.372231637e-15
-8.287958614e-15
-9.09443943e-15
-9.761963095e-15
-1.033274418e-14
-1.0718655e-14
-1.099740571e-14
-1.114247643e-14
-1.111795712e-14
-1.099782209e-14
-1.076103177e-14
-1.039336424e-14
-1.000451387e-14
-9.584587346e-15
-9.179179737e-15
-8.749281867e-15
-1.338869679e-14
-1.772813927e-14
-2.023145921e-14
-2.002895086e-14
)


101
(
0
-8.374385327e-29
-7.990409472e-28
4.22038435e-27
8.057208231e-26