/*--------------------------------*- C++ -*----------------------------------*\
| =========                 |                                                 |
| \\      /  F ield         | OpenFOAM: The Open Source CFD Toolbox           |
|  \\    /   O peration     | Version:  2.3.1                                 |
|   \\  /    A nd           | Web:      www.OpenFOAM.org                      |
|    \\/     M anipulation  |                                                 |
\*---------------------------------------------------------------------------*/
FoamFile
{
    version     2.0;
    format      ascii;
    class       dictionary;
    location    "constant";
    object      la_i7;
}
// * * * * * * * * * * * * * * * * * * * * * * * * * * * * * * * * * * * * * //

la_i7_table
101
(

101
(
0
0
0
0
0
0
0
0
0
0
0
0
0
0
0
0
0
0
0
0
0
0
0
0
0
0
0
0
0
0
0
0
0
0
0
0
0
0
0
0
0
0
0
0
0
0
0
0
0
0
0
0
0
0
0
0
0
0
0
0
0
0
0
0
0
0
0
0
0
0
0
0
0
0
0
0
0
0
0
0
0
0
0
0
0
0
0
0
0
0
0
0
0
0
0
0
0
0
0
0
-0.0284590067
)


101
(
0
4.247791973
0.5361640204
0.200232911
-0.7433554866
-1.746084007
-1.755253265
-0.6157082939
1.882839439
5.725910527
11.42649984
18.46282059
25.79466343
33.33349269
40.01277405
44.97439485
47.95083681
49.4863527
47.66136808
46.6550625
44.40424617
40.66442829
37.36733532
33.35604749
29.76621912
25.49679999
21.49502689
17.83002489
14.67202925
12.84386153
12.64175824
13.128339
12.50117803
11.06481696
8.358643695
5.171493995
3.51476523
4.13939126
6.060397642
8.037624521
8.516106285
7.62478556
6.084300502
4.262986202
2.91261779
2.280774214
2.206378404
2.480215572
2.89803336
2.92551672
2.353772907
1.099260797
-0.2885281519
-1.271804508
-1.579390785
-1.371283639
-1.118105688
-0.9908008888
-0.9634646029
-0.972842872
-1.101635656
-1.378696766
-1.702156961
-1.920396372
-1.979825281
-1.990408489
-2.111457027
-2.352376239
-2.572801122
-2.47130918
-1.680855571
-0.263372592
0.791432336
0.3132632068
-1.491980712
-2.624134776
-1.820024312
-0.5302151863
-0.2980955384
-0.899742556
-1.141525015
-0.4197223136
-0.4478111792
-0.5647398263
-0.5495885337
-0.2696962415
-0.2068073811
-0.2279190856
-0.1417913363
-0.2089802921
-0.1424323631
-0.01806629945
-0.05695854515
-0.008389999132
0.8657828948
0.6760363015
-0.00460342404
-0.005275650804
-0.006130110213
-0.007437951021
-0.009123201775
)


101
(
0
5.577817262
1.716461205
1.038542636
-0.3174789911
-1.576671269
-1.675951141
-0.2863650329
2.34034419
6.28962264
11.81226992
18.89350703
26.47689423
34.27265573
41.21964576
46.6556843
50.06321085
51.27144222
49.88216704
48.1077984
47.15233761
45.14384179
43.06638949
39.93683047
36.07772505
32.25061775
27.96745365
23.51663928
19.18661319
16.13349491
16.04089995
18.87293753
21.16832413
20.31570365
16.03008992
10.1100167
5.292355409
5.243494488
8.847110682
13.38681721
16.41805383
16.4423903
14.14248279
10.69490473
7.793977623
6.001025911
5.354304655
5.672470691
6.563336504
7.394015592
7.392970512
5.964937487
3.46569323
1.112320059
-0.2059349668
-0.282753969
0.1588641151
0.5005878864
0.6818220645
0.788298663
0.772449858
0.4685828353
-0.1030388946
-0.6702246667
-1.010457267
-1.171750269
-1.379714275
-1.785178921
-2.335738564
-2.693060397
-2.141055342
-0.307561847
1.950283367
2.462752727
0.2816914889
-2.44688649
-2.546388115
-0.7895257771
0.1782411011
-0.43709803
-1.21797564
-0.3941460877
-0.2643686291
-0.3363808401
-0.5472231754
-0.5091817216
-0.1551930746
-0.1245557247
-0.1235707932
-0.1295483657
-0.1577583461
-0.1100257017
-0.01661439916
-0.006068455561
1.617916832
1.280915521
-0.01561482465
-0.01747153405
-0.01964814792
-0.02144534021
-0.02469154284
)


101
(
0
7.044543101
2.921629748
1.926467484
0.1721569823
-1.459506811
-1.629723829
-0.05331433253
2.724659926
6.60581864
11.94793429
19.10696112
26.76721406
34.768167
42.03322169
47.68326666
51.55916653
52.87161361
51.89843247
49.28522224
48.65071405
49.12698676
47.99512985
46.5725276
42.92795793
39.23218696
34.99402755
30.3139608
25.24559927
20.48814263
18.75946574
22.00716864
28.07552563
29.86609908
26.71602316
18.52998034
9.577524214
5.681187973
8.526587753
15.52951492
21.53331176
23.60628262
21.95725152
17.85582347
13.2015055
9.78891668
8.200883907
7.890262642
8.578686115
9.894681509
10.7626406
10.19379102
7.76212411
4.417850456
1.791477791
0.6649248756
0.8099768337
1.209868977
1.508297304
1.717454524
1.826454127
1.685031927
1.178054371
0.4687532681
-0.1546283718
-0.5633384347
-0.9179997539
-1.372044077
-2.001307116
-2.608944747
-2.438479321
-0.7763475145
1.815003913
3.101866546
1.48881468
-1.607772119
-2.559886762
-1.17989702
0.04786233097
-0.2488969653
-1.137916761
-0.3685832019
-0.1937971151
-0.2392411888
-0.3993347952
-0.4904911463
-0.455554057
-0.1086874221
-0.04388147473
-0.1664251677
-0.1543940234
-0.1659003884
-0.01357683108
0.02328225922
2.247738854
1.914281956
-0.03963205987
-0.03867572273
-0.03829625567
-0.0406971398
-0.04256604362
)


101
(
0
8.362487933
4.156374991
2.849709613
0.6974404968
-1.328071787
-1.618640292
0.1023718024
3.012273709
6.785107211
11.9291767
18.88281979
27.06483049
35.21779206
42.81961994
48.96277224
53.1379143
54.77881078
54.09941797
51.39745947
50.23542464
51.54568895
52.94970834
52.70187491
49.90713071
45.91797167
41.75275707
36.93366856
31.42443224
25.3426414
21.58126395
23.46141202
29.98720982
36.56856494
35.59273474
26.93504423
15.46427415
7.708177219
8.025555647
14.31615844
23.26079096
28.53267228
28.39870436
24.46429567
18.78223387
13.64914502
10.34906368
9.164134305
9.526155709
10.54266831
11.83950248
12.27095611
10.86387676
7.687760328
4.312515064
2.056455933
1.367369156
1.514060552
1.746902231
2.006773968
2.197522333
2.19004786
1.855894182
1.257201271
0.5764985622
-0.03743412459
-0.59420767
-1.137404657
-1.755964064
-2.378478924
-2.353345091
-0.8354934132
1.793773311
3.28505556
1.991302931
-0.9170745247
-2.071712633
-1.077751496
-0.07578956586
-0.3180722666
-1.058215473
-0.236194559
-0.1414620763
-0.21150131
-0.4250604362
-0.3939590494
-0.5127932784
-0.3742704722
-0.01037127998
-0.1327704949
-0.1561443552
-0.1614237741
-0.1739773123
0.07571642567
2.956309429
2.586086916
-0.06166143965
-0.05380111961
-0.04903142455
-0.06970633784
-0.09831866554
)


101
(
0
9.750320393
5.43516284
3.809132431
1.259681223
-1.17747567
-1.642973898
0.1990317575
3.22824936
6.918989679
11.84346974
18.61429714
26.95131897
35.32985718
42.87793171
49.39777375
54.14151762
56.12673529
55.39274627
52.40369295
51.03007133
52.70798181
55.43978031
56.64709302
55.19195252
51.45406549
47.61213727
43.07434011
37.01770613
30.03276952
23.97833931
23.46405465
30.88128086
39.40368722
42.25671495
36.65695384
23.67515891
11.11446876
6.468287552
11.36125541
21.0050949
29.30569352
32.33011244
29.3610103
23.51148808
17.29697824
12.54088648
10.09183357
9.475876442
9.975882058
11.21222994
12.16798395
11.6960774
9.519276008
6.299953856
3.678540565
2.154541656
1.820493299
1.826681664
1.991763673
2.193028751
2.239501317
2.016253137
1.568778481
1.024490454
0.3767491357
-0.3436362073
-1.033684488
-1.679024621
-2.224183687
-2.172529193
-0.6787024546
2.01859181
3.574531748
2.269996161
-0.5509283625
-1.575605255
-0.6416167501
0.1434611752
-0.3997350015
-1.159840527
-0.08683061314
0.01121962058
-0.08065810546
-0.3407880326
-0.3254746132
-0.4559817766
-0.4223273402
-0.1253899995
-0.08049925355
-0.0866798814
-0.147309677
-0.1858905409
0.1111821021
3.672313371
3.228414043
-0.0806669372
-0.1088990087
-0.1380955976
-0.1259783503
-0.1029928149
)


101
(
0
11.27313141
6.738118907
4.803907219
1.859560185
-1.009894314
-1.682569038
0.236278758
3.372975458
7.005901069
11.6180484
18.21317422
26.52057622
35.15996946
42.84074307
49.47649033
54.81180508
57.15249928
57.28859336
53.73769316
51.67465689
53.76644532
57.4321336
60.81535632
60.79224199
57.45332031
53.05945599
48.5482992
43.09460797
35.85057687
28.18450516
23.74491155
27.44624945
38.110839
45.36219007
43.24573242
31.12578384
16.63551192
7.701684627
8.2488833
17.0056603
27.09991967
32.71036986
32.107608
26.60446022
19.76147083
14.11896717
10.71652967
9.361751786
9.24642415
9.602778632
10.31578638
10.58280224
9.290693245
6.793038814
4.406443146
2.760942834
2.041960736
1.870905798
1.850981534
1.955886485
2.009165933
1.783250432
1.428852691
1.041541455
0.5371145998
-0.2179594619
-1.070717978
-1.827430527
-2.316205774
-2.137693743
-0.5765398471
2.195096046
3.809964522
2.376209209
-0.5581686264
-1.468600441
-0.4108447727
0.4054283954
-0.3300032857
-1.412423048
-0.1566117712
0.06185931054
0.03228757665
-0.1992197878
-0.1173859141
-0.4257465289
-0.3920308481
-0.3702479699
-0.03445307757
-0.1560392049
-0.1767651841
-0.1963135728
0.1092993942
4.447549061
3.861974873
-0.08684625084
-0.09930463184
-0.1121539237
-0.0872776621
-0.06344823733
)


101
(
0
12.6557641
8.072810445
5.835215199
2.499825584
-0.8115541858
-1.745334571
0.2114063379
3.447438304
7.000091462
11.33212138
17.59623592
25.91237089
34.79533133
42.78463034
49.51541511
55.17311647
58.19889855
58.25356389
55.7039555
52.46065818
53.07298343
58.0592921
62.96686184
64.20921285
61.58491415
57.20813049
52.46337796
47.10277776
40.08737947
31.67120851
25.38950203
25.61366026
33.28099724
43.61822401
46.24377317
38.10687318
22.95183863
9.489516935
6.128505881
11.78098177
22.29199468
30.54533583
32.5700154
28.48275469
21.29196972
14.50240038
10.10032758
8.290333843
8.368964526
8.462089738
8.333271411
8.140202663
7.453610466
5.614287984
3.603285946
2.373295221
1.778417159
1.676375809
1.611247073
1.633334258
1.654367613
1.393959316
1.01035085
0.7226833501
0.4599003338
-0.123845806
-1.032485549
-1.964133838
-2.521899454
-2.228066094
-0.5080366229
2.395703484
4.093756143
2.550700907
-0.6013602204
-1.507535637
-0.2975854228
0.63478165
-0.1173127884
-1.403314153
-0.06670671329
0.16916764
0.07258603129
-0.1723851243
-0.1229354465
-0.2931245292
-0.2758234949
-0.3767681969
-0.1156476577
-0.07408824796
-0.1691025201
-0.1453420882
0.0483824501
5.26149999
4.531628895
-0.1636370185
-0.1247810217
-0.06012866965
0.1642609428
0.4951287368
)


101
(
0
14.10016043
9.447408043
6.90179649
3.178790301
-0.5836879366
-1.816712275
0.1404141234
3.473447997
6.95701379
11.04433723
16.93946744
25.10385607
33.85446192
42.09470245
49.14820016
54.97709701
58.56211869
59.36739442
56.32191384
52.93162181
53.46363867
57.9142873
63.69829963
66.95416738
65.5640698
61.23183389
56.28055314
50.94243133
44.26163927
35.59726581
26.9978196
23.55781876
28.40271445
38.5386899
45.2320164
41.43530631
28.0291026
13.60544466
5.805871877
6.971747266
16.52012004
25.5724222
29.99258167
28.22900842
21.99199501
14.74375179
9.258975742
6.481906524
6.154304961
6.899481818
7.172539895
6.220042078
5.048335403
3.586677261
1.730687662
0.9495606722
0.8014305866
1.0987193
1.301869617
1.433722439
1.464689249
1.207062677
0.7144148089
0.3966018727
0.363307392
0.1383429439
-0.5406711914
-1.541506935
-2.285335236
-2.042014379
-0.1916984183
2.909174466
4.765691223
3.213105617
-0.1615812913
-1.176358107
0.193378656
1.371016287
0.5848945713
-1.006398662
0.3386822212
0.673477765
0.4716967152
0.1707840836
0.1621996919
0.2599180735
-0.01612642215
0.06032480693
-0.03554247366
0.2154810601
-0.006944686327
0.004571087571
0.1406147571
6.171521342
5.283960857
-0.1459524076
0.02516547256
0.2810893576
0.8986034109
1.845227729
)


101
(
0
15.66304519
10.84681757
8.004981744
3.901465637
-0.3222570855
-1.897428421
0.01843870341
3.429564692
6.868735426
10.6687155
16.12123168
24.19694447
32.99505273
41.42545241
48.62263965
54.55215174
58.66826495
60.29876432
57.68083779
53.67467392
52.55232752
56.81539588
63.61851332
68.61881824
68.35640487
60.13365652
58.51374429
53.14114512
46.8198523
38.49319664
29.54741172
22.88364289
23.50194413
30.96044653
39.47249072
41.10915215
32.08973071
17.40924866
6.850819889
4.707957817
10.58639345
19.86739151
26.38463422
26.45573463
21.28711543
13.95740743
7.999924437
4.823153441
3.920478512
4.600289564
5.326642863
5.311526994
3.755175273
1.812491271
0.288283394
-0.6112394766
-0.4904377862
0.2266936675
1.043255483
1.468799811
1.683903537
1.532353169
0.9308598107
0.3726528765
0.3411057471
0.5697452637
0.3999781946
-0.3225404998
-1.145210001
-1.102799875
0.6971402788
3.963372152
6.076478094
4.643645271
1.116625676
-0.109718903
1.229756629
2.691004942
2.184378237
0.3018978839
1.367528289
1.747311145
1.609336461
1.241523649
1.005936737
1.302275982
0.8166182826
0.8445900627
0.6017586979
1.019666088
0.5924836021
0.5202411329
0.5835010554
7.368298657
6.31892001
0.104015506
0.5653766101
1.216001169
2.422655678
3.510779552
)


101
(
0
17.11199903
12.27857375
9.142501034
4.663445263
-0.02867733313
-1.975059591
-0.135814772
3.329944716
6.758958883
10.25777225
15.35636423
23.02306956
32.0819447
40.58704126
47.70697401
53.74998329
58.68042672
60.06923817
58.82753828
54.51977053
52.0835924
55.24934425
61.84259631
68.28314044
70.0715965
66.32615616
60.37830503
54.45221326
48.35572146
40.77336295
31.58087818
23.96330865
20.28883614
24.2655573
32.14607124
36.76012057
32.19937701
20.4339044
9.039604082
3.341536709
5.248008639
13.69822684
20.70356426
23.33592686
20.49171458
13.78850986
6.659881672
3.233056776
1.931346221
2.651472996
3.659012635
4.017739626
3.347982165
1.40652334
-0.3637038139
-1.594896891
-1.468287358
-0.4157356768
0.8192176103
1.777342368
2.303167495
2.417168511
1.855520086
1.053850786
0.698427636
1.031923627
1.458114177
1.353420633
0.817343684
0.7453044527
2.33353098
5.611750281
7.995290731
6.811919967
3.294395248
1.944195068
3.131654558
4.523793785
4.321425235
2.548786591
3.251282463
3.524467749
3.624652058
3.458443885
2.692503434
2.974929656
2.646327734
2.307325296
2.131077775
2.154689502
1.872136746
1.657630302
1.686166861
9.169659286
7.893202843
0.7553528864
1.665737892
2.951150787
5.096868515
8.24488863
)


101
(
0
18.61247146
13.74354508
10.3149335
5.468067616
0.3041245863
-2.048098074
-0.3298550948
3.173759139
6.605187843
9.831234624
14.50261549
21.78087998
30.81168425
39.46688135
46.60205307
52.87220945
57.69048832
60.49707824
59.09769749
54.95045629
52.48516536
53.85312081
60.0962566
67.18023194
70.65947101
67.96728265
61.68782864
55.01878929
48.79403935
42.19306556
33.56583675
24.43959736
18.68461148
18.36803574
23.51506412
29.14990946
29.92414458
22.22279336
10.85457897
3.874102323
3.074821344
8.41076738
15.47850675
19.36036754
17.99040498
13.06165641
7.047014023
1.865543127
0.02914963961
0.4762498939
1.92016032
3.035651162
2.865837511
1.703220451
-0.05896492783
-1.479999862
-1.677168021
-0.5982888841
0.9466445767
2.325421198
3.272703988
3.706604673
3.473145635
2.632640019
1.78674436
1.749778426
2.418570841
3.020811765
3.124415691
3.273834596
4.659096462
7.765608424
10.3476376
9.504505809
6.144646539
4.830018509
6.038671631
7.225418415
6.957127798
5.511688196
6.069609627
5.985227429
6.189175918
6.590916104
5.506868866
5.370544668
5.314929101
5.004115738
4.46203754
4.511215899
4.124440163
3.722095598
3.706283588
11.87548894
10.31348361
2.130859158
3.736397839
5.914171078
8.739176291
11.58561397
)


101
(
0
20.20166021
15.23583369
11.52112762
6.314399319
0.6780808455
-2.109813057
-0.5518146028
2.978761582
6.405189304
9.406793852
13.60108149
20.54893163
29.40025914
37.96479416
45.47334527
51.63818323
56.63771623
59.70143137
59.77167344
55.77541064
51.83425287
52.33827135
57.81616996
64.90129744
69.32196392
68.32658754
62.58415892
55.23603218
48.36630208
41.85426365
34.70122874
26.86234576
18.94936784
14.80809652
16.24923321
20.84735551
23.83172044
20.42678044
12.61286887
5.544420747
1.862021456
3.800586042
9.936111351
14.67496982
15.78451719
12.33404537
6.590682132
2.096593579
-0.4053493963
-0.8876887395
0.07453596584
1.540890966
2.391148243
1.796305798
0.6345751462
-0.4761097979
-1.132746964
-0.351329062
1.422735931
3.141183295
4.429280934
5.29252837
5.567966064
4.949148119
3.886711276
3.216631184
3.559981945
4.520238715
5.350695035
6.055025209
7.475383732
10.32334519
12.9249652
12.41953734
9.354792505
8.194561801
9.59453947
10.75323294
10.2397653
9.060236735
9.917156697
9.434903664
9.352746844
10.09240574
9.418275731
8.653111247
8.5290317
8.780347479
7.687034872
7.501621963
7.337320731
6.822314807
6.837424759
15.62264499
13.79185912
4.518650168
6.578118952
9.467440769
12.72831598
17.1562207
)


101
(
0
21.71596007
16.75611242
12.76008071
7.201855104
1.094107768
-2.154134269
-0.7983769968
2.740307158
6.151415353
8.99375283
12.76140056
19.14232756
27.81943908
36.5324373
44.1674563
50.17688717
55.38552105
58.61226307
59.26426053
56.17064388
52.30420977
51.46367823
55.61585364
62.38707671
67.78373569
68.30314822
62.98516305
55.02864853
47.47045491
41.16713842
34.6869557
26.94909548
19.88973916
13.61837446
10.92003941
12.2216528
15.31807812
17.27080699
12.84613576
7.021489389
2.78381312
1.909333838
5.86460422
10.37547158
12.06034232
10.80885181
7.25750664
2.113426165
-0.6013047272
-1.143294552
-0.6485209934
0.2984962198
1.246281971
1.544933063
1.110847483
0.4819304028
0.02222615935
0.4747400165
2.050663358
3.99280744
5.649733335
6.815907478
7.624660483
7.715701237
6.795362148
5.712650623
5.37252438
6.108886406
7.37585659
8.741580705
10.50206942
13.19786547
15.61484071
15.24330425
12.51357033
11.68422261
13.35927547
14.64022515
13.933206
12.8209669
14.31145543
13.80605254
13.17552135
13.77347359
13.93963373
12.82612295
12.40720439
12.89710134
11.85034252
11.51874189
11.44344198
10.81614265
10.84271216
20.32043878
18.13046141
7.639317687
9.762019188
13.00029714
16.11512641
21.22100305
)


101
(
0
23.26782328
18.30475035
14.03109571
8.131456935
1.5573262
-2.178426193
-1.062092944
2.454234128
5.877706239
8.560744072
11.86049808
17.79733212
26.14195663
34.98071924
42.4947819
48.7447383
53.59499355
57.62742778
58.5794533
56.37287071
52.13767579
50.35359136
53.21280741
59.63743138
65.39708032
67.02441327
62.68616519
54.58374656
46.14965026
39.37328947
34.19597323
28.26533684
20.96964628
13.98740668
8.014005521
5.944326733
7.261794896
10.82322362
10.75343085
8.789710181
3.975568725
1.747235273
2.421212814
5.920599838
8.936697587
8.854161234
6.222283015
3.211330527
0.09712096411
-1.566044465
-0.7409226503
-0.1503200968
0.4246504152
1.249525004
1.253043723
1.012902042
0.9973759843
1.416041046
2.812358335
4.806653079
6.744870882
8.141521736
9.285168426
10.12229987
9.991044042
8.893537773
7.992562734
8.079088248
9.302477895
11.16972466
13.44646808
16.30228553
18.57290735
18.02075334
15.32844013
14.83058603
16.97953715
18.51969316
17.67020945
16.33785262
18.33593067
18.37832836
17.36787108
17.43868723
18.32042569
17.41013136
16.71316801
17.15511986
16.56564106
15.98362735
16.09603701
15.29476738
15.27438121
25.59312274
23.04415934
11.16394237
13.03342507
16.18749445
18.45624446
16.51955511
)


101
(
0
24.86943832
19.88286842
15.33286888
9.101589505
2.0678956
-2.177119621
-1.338534846
2.123727583
5.567189974
8.101553843
11.01560918
16.40660393
24.39717003
33.22713255
40.62317421
47.00218176
52.00289361
55.59864959
57.5903308
56.27496353
52.21695271
49.86946828
51.08768421
56.57896954
62.78054117
65.44255879
62.59823345
54.71118448
45.40973655
37.58837909
32.12523057
27.83366922
22.45665881
15.57328831
7.893435107
2.471696171
1.628325049
4.295073567
7.299653616
7.702148361
6.097688565
3.368211536
2.075423572
2.838554851
4.633323511
5.864882772
5.463042077
2.944244636
0.9487241627
-0.5990177703
-1.069385358
-0.3208259978
0.1456314029
0.6833656792
1.267082216
1.483363828
1.510245747
2.067667567
3.269242009
5.312942988
7.394659942
9.028805326
10.36297836
11.63744123
12.4405387
11.99406504
10.95161079
10.47571665
11.20194402
13.20335187
15.97662249
19.2816564
21.7722117
21.0786668
17.94132942
17.2668375
19.85044456
21.95816315
21.18722698
19.42177098
21.35164412
22.11072764
21.30671516
20.72652782
21.86367136
21.64532433
20.7802174
21.02499208
20.99123506
20.00539575
20.46252358
19.54961769
19.38243384
30.63319813
27.81875998
14.67053336
15.55423021
18.04986732
19.54594362
24.55370656
)


101
(
0
26.44334467
21.48348135
16.66284008
10.10838003
2.620672085
-2.163042841
-1.610603471
1.771785657
5.221795219
7.656260684
10.20593132
15.00488538
22.59131007
31.27689186
39.07149487
45.02232002
50.05995583
53.8603432
55.91022691
55.36535158
52.69957993
49.39710327
49.83196431
53.83711259
59.69157931
63.19306462
61.62040698
54.60706722
44.71530887
35.53657641
29.549006
26.23021916
22.82784273
16.95443883
9.291593302
2.227961404
-2.967268738
-3.426194306
1.835390896
5.460672859
7.580736539
6.171527321
2.973017106
0.7504693227
1.241181595
2.539915708
3.072078587
2.661404309
1.100647338
-0.4215053246
-0.6214164239
-0.310472589
0.04121271529
0.3428875496
0.868248156
1.801271444
2.217916178
2.610768445
3.47713674
5.231518937
7.381220045
9.288229209
10.7264239
12.18273998
13.51613317
14.04370653
13.3997323
12.61372654
12.85706258
14.64478518
17.71185088
21.47474182
24.54087976
24.21050508
20.52172208
19.04059742
21.38238856
24.12259332
23.92199359
21.93266759
23.24819973
24.2390352
24.15383741
23.12156011
23.87052087
24.52074353
23.83539455
23.56664334
23.87278535
22.84406688
23.26866434
22.71231891
22.3228556
34.48359144
31.47478957
17.02207463
16.92294162
18.51873071
19.32636704
19.48389975
)


101
(
0
28.03827044
23.10072211
18.02097088
11.15554413
3.225336387
-2.120203165
-1.886284088
1.382743163
4.835678609
7.198833188
9.399223868
13.68071537
20.80504918
29.24703956
37.14682023
43.20122924
47.94632122
51.6078939
54.19286998
54.23897316
52.0092342
49.40429864
48.81008246
51.49680689
56.32065231
60.57485685
60.61721941
54.90994719
44.87615383
34.28411228
27.28482914
24.17576977
22.51947489
18.98556494
11.83719838
2.585393905
-4.692681028
-7.182778297
-4.467708754
1.21138823
6.405976917
7.995337658
5.61292934
1.578900866
-1.324075463
-1.127263153
0.1595846348
0.8375055645
0.940958876
-0.02658127686
-0.8335022732
-0.6891874778
-0.2801106605
0.09469856908
0.7184027876
1.474233518
2.343405261
3.031810033
3.689325372
4.825392599
6.737371638
8.804073575
10.34262356
11.69202489
13.18661521
14.31521626
14.45179801
13.76785866
13.63816542
15.06997324
18.19222035
22.2215619
25.84077369
26.32384531
22.76336011
20.21345267
21.42064261
24.1355943
24.73124317
23.14284394
23.95278783
24.41726009
25.05863217
24.08475032
23.96540792
25.03059255
25.1228888
24.09655124
24.50516192
23.81110356
23.89832656
23.83732629
23.32114852
36.40065779
33.24537819
18.12276441
17.16987713
17.93989343
18.51615898
18.15318415
)


101
(
0
29.65025164
24.74317043
19.40469268
12.23879332
3.879624131
-1.957217018
-2.156606365
0.9691953593
4.403991346
6.71687005
8.648636092
12.36065194
18.91789277
27.18351184
35.06087687
41.27247575
45.86522731
49.13363667
51.81961669
52.54445283
51.1103071
49.4261967
48.20727053
50.02925651
53.84259453
57.76844848
58.73212811
54.73201955
45.6397284
34.28651334
25.63353899
22.08979531
20.3497881
19.18014828
13.81923056
5.469518325
-3.554742186
-10.53686395
-10.19596633
-4.126765214
2.785303146
8.594541667
8.675985465
3.299033328
-1.671467781
-4.313743672
-3.717787002
-1.753836319
-0.7829015802
-0.626586636
-0.9496564132
-1.319673383
-1.093808044
-0.8570690701
-0.2410304731
0.9825056207
2.249244454
3.069002919
3.160780353
4.107535011
5.391670115
7.265094976
9.027918837
10.32170349
11.64313988
12.87472203
13.48799327
13.23815176
12.91378647
13.99946306
16.94429381
20.94755287
24.80528586
26.0741305
23.36475121
20.37808244
20.12628065
21.76808353
22.58009307
21.85918291
22.87956227
22.46922825
23.30702548
22.99818567
22.14502922
22.72393043
23.8818675
22.28457141
22.5786191
22.48029769
22.14617083
22.29218162
21.94176402
36.0075554
32.75747906
17.59914468
16.71645696
17.14889572
18.09633231
20.99755272
)


101
(
0
31.26705331
26.41720371
20.81127563
13.35376941
4.581647383
-1.802462334
-2.403965665
0.5513653066
3.962494465
6.246663379
7.923476788
11.13758081
17.15509423
25.03105349
32.92170179
39.30146622
43.87624887
47.34919952
49.27954233
50.21246534
50.40005907
49.44195363
48.42712781
48.9886065
51.6023408
54.95339431
56.34117575
54.05988396
46.66924053
35.15148466
25.40508201
19.50109438
18.10137395
18.20553486
15.76055642
7.429290533
-1.577715717
-9.670257828
-12.63322562
-9.372483745
-1.563720437
6.395002011
9.565829253
6.723926141
-0.5651307499
-5.723882688
-7.282131213
-5.611372875
-3.297998587
-1.765314542
-1.961079287
-2.456181059
-2.711563037
-2.39161508
-2.003546721
-0.9700714601
0.9975798001
2.394226953
3.078342503
2.706101848
3.285789589
4.571056707
6.28039364
7.773221352
8.877833043
9.915620017
10.64060499
10.61356723
10.28704199
11.03973914
13.5596313
17.28084998
20.88786992
22.48278908
20.81868334
18.45172775
17.28095963
17.42268407
17.40258918
17.0692077
19.10452197
18.21276817
18.56149428
19.0421629
18.25749573
17.72079245
19.61588291
18.06200681
18.00827037
18.60302991
18.10277236
18.26718291
18.23666833
33.44640975
30.26707702
15.86490348
16.19830862
16.94125009
18.84672997
20.88646512
)


101
(
0
32.9099157
28.08631343
22.23959772
14.50351837
5.339034501
-1.591724899
-2.640226327
0.1071899545
3.473318298
5.726752047
7.22094488
9.932710638
15.39544858
22.91011482
30.66494133
37.08712835
41.88502583
45.01756948
47.3139933
48.66849391
48.97516374
48.65530907
48.3156642
48.6225423
50.20305176
52.72637763
54.25954764
52.89701485
47.19858841
37.2940673
25.52719958
18.29556498
15.91508898
15.25102412
15.41191486
9.902620973
1.812141456
-7.737920909
-14.32448871
-13.39930734
-6.738525578
1.836485176
8.486917804
8.666510786
2.452917437
-5.943776439
-10.64238372
-10.09677589
-7.344255023
-4.29714238
-3.578024901
-3.843276221
-4.495588991
-5.226675798
-4.980995206
-4.136135664
-1.926987509
0.125655629
1.114608205
0.9592998065
0.4993654728
0.8803609516
1.895739256
3.322363125
4.566207837
5.396773596
5.843773668
5.874064758
5.535351536
6.004672563
8.005620339
11.20400854
14.03003264
15.15846422
14.11819409
12.95799377
11.99977326
11.20736412
9.881044269
8.891785284
11.93734951
11.44199377
10.99312994
11.76504781
11.89526632
10.39132498
12.41117528
11.65295602
11.11987461
12.29575139
12.06930137
12.55668888
12.76530672
29.30354816
26.53724673
13.74050013
16.33866764
17.98083673
21.33934651
25.98888364
)


101
(
0
34.37140997
29.77861184
23.68608878
15.67948888
6.138057374
-1.338729115
-2.839382991
-0.3268540681
2.974981798
5.215309546
6.540095711
8.833197486
13.69865851
20.78715945
28.36327961
34.90473382
39.77615156
42.95293796
44.97288516
46.41713222
47.19844091
47.77351096
48.05510803
48.36156436
49.43658736
50.7823128
51.81677906
51.00827624
46.83400074
38.86257456
28.24346234
18.22932821
13.13987053
12.89809768
13.43697264
11.06702467
2.988447873
-4.534865631
-11.93877453
-14.25294874
-11.54502184
-4.032174008
4.599740986
8.042233844
4.681578948
-4.330151725
-11.13670593
-14.74367149
-12.40964451
-8.701003701
-6.124399222
-6.039400353
-6.983906903
-7.995305555
-9.203016684
-8.895572307
-7.437739583
-4.622433991
-2.674676404
-2.525657796
-3.5518905
-4.06449762
-3.883998895
-3.176037972
-2.069363336
-1.250242746
-0.9620962586
-1.199622116
-1.575594552
-1.371794938
0.3048009178
2.888292833
4.59956221
4.38997007
3.012790286
2.967002412
3.095082315
2.428988507
0.2884193002
-2.007604123
1.360994899
1.963397094
1.048053083
1.441040551
2.670628616
1.102269466
2.831181524
3.499221561
2.620848013
4.247711889
4.56004651
5.965672857
6.397923839
24.43611021
22.52282039
12.05300118
17.7540306
20.74046283
25.91575763
32.50803409
)


101
(
0
36.23833448
31.48148397
25.14877417
16.88333547
6.986945803
-1.027147482
-3.012085244
-0.7664898101
2.447244448
4.66857827
5.869857279
7.783602336
12.11131845
18.70417416
26.04562498
32.72796586
37.54555151
41.01045881
42.75629715
44.00713714
45.21195919
46.58004301
47.83117577
48.61002848
49.24039371
49.82766141
50.07523082
49.19015011
46.30697467
40.17794307
30.16807867
20.56052061
13.12639444
10.5239124
10.07584458
9.607742843
4.853635362
-2.150964989
-9.813673714
-14.40597083
-14.14930943
-8.6338065
-1.320210352
4.969433645
4.801831194
-1.552074848
-11.55194379
-17.18259524
-17.85806144
-14.63236889
-10.45183413
-9.326806171
-9.884653979
-11.72926891
-13.59064765
-14.99795515
-14.59562347
-12.39088172
-9.584249544
-8.291734226
-9.010522917
-10.69369142
-11.49210252
-11.56747781
-11.08732308
-10.53759629
-10.33597634
-10.7864975
-11.50225704
-11.50268153
-9.981647376
-7.67293366
-6.910903069
-8.946974767
-11.81332383
-11.60527717
-10.14610676
-9.944294482
-11.80562207
-15.08135732
-12.07275536
-10.246217
-10.90588854
-11.15162426
-9.267808002
-9.844823544
-8.426797649
-5.987119148
-6.753511393
-4.682294523
-3.749251462
-0.9911272306
-0.09911502033
19.59806063
19.00182273
11.45430915
20.82537315
25.44820013
32.79732939
58.92813369
)


101
(
0
37.71863875
33.19372209
26.62407131
18.10954294
7.88120581
-0.6626930545
-3.146474611
-1.194269395
1.905640313
4.097740958
5.218877388
6.78966046
10.56104768
16.65814667
23.73263058
30.29311345
35.47447852
38.82507705
40.76834412
41.86459356
42.94438975
44.72916793
47.0696718
48.64580585
49.45222144
49.16947647
48.44509427
47.07302895
44.55210047
39.98858302
32.9301374
23.11757439
14.35866059
9.099534883
7.768744762
6.862685717
3.804748764
-1.092189179
-7.210348508
-12.06194007
-14.27860711
-12.73087573
-8.117997037
-1.712187884
1.838669572
-1.00460051
-9.89387469
-18.68668199
-23.11994976
-21.18434491
-16.98263871
-13.96788208
-13.92418537
-15.6751176
-18.6798497
-22.03310152
-23.0333198
-22.25971955
-19.5830727
-17.48226178
-17.38031477
-18.96739555
-20.90541192
-22.02483611
-22.53329863
-22.51704836
-22.694213
-23.4007454
-24.46777932
-24.86709308
-23.44699883
-21.10413231
-20.67376319
-24.14454103
-28.88361889
-29.61050574
-27.57777954
-26.37582463
-27.31322465
-30.48542326
-27.81040864
-25.04940731
-24.81230669
-25.37667222
-23.48555669
-22.31562524
-20.876143
-16.69949474
-16.67995105
-14.04177973
-12.35515212
-8.15445025
-6.410424232
15.11113051
16.32069866
12.27175131
25.76584643
32.30461705
41.65277595
18.93742816
)


101
(
0
36.21012552
34.91445355
28.10869713
19.3527488
8.809562306
-0.2472592142
-3.231604086
-1.596815109
1.367619272
3.525758497
4.57685089
5.883153755
9.171642296
14.73497391
21.49651421
28.03760176
33.23805233
36.93076378
38.92642986
39.70209911
40.96045389
42.95066375
46.00942455
48.62392697
49.85808523
49.32391583
47.7483327
45.48316046
42.67279605
39.12550923
33.84976583
26.56003057
17.23569612