/*--------------------------------*- C++ -*----------------------------------*\
| =========                 |                                                 |
| \\      /  F ield         | OpenFOAM: The Open Source CFD Toolbox           |
|  \\    /   O peration     | Version:  2.3.1                                 |
|   \\  /    A nd           | Web:      www.OpenFOAM.org                      |
|    \\/     M anipulation  |                                                 |
\*---------------------------------------------------------------------------*/
FoamFile
{
    version     2.0;
    format      ascii;
    class       dictionary;
    location    "constant";
    object      la_i27;
}
// * * * * * * * * * * * * * * * * * * * * * * * * * * * * * * * * * * * * * //

la_i27_table
101
(

101
(
0
0
0
0
0
0
0
0
0
0
0
0
0
0
0
0
0
0
0
0
0
0
0
0
0
0
0
0
0
0
0
0
0
0
0
0
0
0
0
0
0
0
0
0
0
0
0
0
0
0
0
0
0
0
0
0
0
0
0
0
0
0
0
0
0
0
0
0
0
0
0
0
0
0
0
0
0
0
0
0
0
0
0
0
0
0
0
0
0
0
0
0
0
0
0
0
0
0
0
0
-0.0009546081795
)


101
(
0
1.226064029e-06
-2.050043194e-05
-0.0001212837099
-0.0005515826775
-0.002201791281
-0.00720329286
-0.0191641469
-0.04316626223
-0.08567622321
-0.1569364143
-0.2651847154
-0.4095583073
-0.6003307246
-0.8376335414
-1.112652103
-1.422649062
-1.788705307
-2.148671124
-2.632769645
-3.160874623
-3.709369321
-4.32963567
-4.97093891
-5.642165054
-6.308408293
-6.994686954
-7.699168055
-8.394964217
-9.041058734
-9.596970703
-10.06916374
-10.52536935
-10.95225916
-11.35765977
-11.7103184
-12.00300622
-12.21315149
-12.14972338
-11.91866972
-11.68442264
-11.47016627
-11.23725763
-10.97552113
-10.63846364
-10.21122655
-9.710464807
-9.156231506
-8.570135078
-8.011659384
-7.510248352
-7.081100719
-6.67169042
-6.229075006
-5.729827302
-5.194872225
-4.679312292
-4.199061316
-3.753912754
-3.338651988
-2.965668914
-2.639371841
-2.347149665
-2.070569367
-1.802528771
-1.555952833
-1.349222233
-1.182833757
-1.03838116
-0.8769015241
-0.6522239038
-0.3710737321
-0.1520502681
-0.1331187691
-0.2908878691
-0.3831701758
-0.2529893083
-0.07064440089
-0.02028729125
-0.07639374243
-0.09650294625
-0.007973583979
-0.007141217832
-0.01787618141
-0.02730791471
0.0004190106427
0.006801172639
-0.0001360045556
0.004288792535
-0.002595054029
-0.003854363582
0.00707016225
0.00114874031
0.0005496730459
0.0381798586
0.03035490353
-0.0001442606336
-0.0001632471839
-0.0001929279736
-0.0002375023691
-0.0003057414504
)


101
(
0
-4.053608561e-07
-4.11234341e-05
-0.0002232022685
-0.000916505563
-0.003455668317
-0.01094586376
-0.028436798
-0.06201555727
-0.1188899783
-0.2070793756
-0.3324957982
-0.4881758152
-0.6757884857
-0.8911223674
-1.12980223
-1.383146753
-1.652558143
-1.933049999
-2.296523066
-2.781913754
-3.310671754
-3.902735303
-4.514083468
-5.128981428
-5.746848962
-6.367887843
-7.017653265
-7.684379298
-8.319284761
-8.847683606
-9.23288478
-9.563852386
-9.948757629
-10.42024356
-10.90012961
-11.30276113
-11.47288809
-11.34413945
-11.02083351
-10.67587865
-10.44433536
-10.30712612
-10.20306794
-10.01995794
-9.72260597
-9.310655471
-8.795706577
-8.209272985
-7.613050805
-7.092250784
-6.71692955
-6.457032403
-6.187949684
-5.819723347
-5.335641631
-4.816953282
-4.329577134
-3.878827397
-3.45649327
-3.071835003
-2.74657541
-2.479300706
-2.237882575
-1.994699446
-1.754397598
-1.543557605
-1.381032903
-1.260358296
-1.137988351
-0.9244600582
-0.5734402322
-0.1893033275
-0.03171843545
-0.213000296
-0.4754423722
-0.437302224
-0.1869330445
-0.03586929112
-0.07975722203
-0.1518599497
-0.04204346424
-0.01602568468
-0.01277649457
-0.03300134997
-0.03519775749
0.003918113766
0.007793286791
0.005198420701
0.002231521708
-0.001597029416
-0.002295184826
0.006327109027
0.002303200797
0.0717593738
0.05813922977
-0.0004822323429
-0.0005467226597
-0.000634073114
-0.0007257641508
-0.0009150488912
)


101
(
0
-1.66271369e-06
-6.011228168e-05
-0.0003166554988
-0.001239000069
-0.004542578691
-0.0142312198
-0.0366527066
-0.07901153726
-0.1487562889
-0.2531197821
-0.3966857533
-0.5652949559
-0.7542418208
-0.9557042683
-1.160203445
-1.366126663
-1.560060834
-1.76387685
-2.007052494
-2.415325351
-2.948725555
-3.502221762
-4.108281254
-4.681425732
-5.253103293
-5.815529384
-6.407273078
-7.036548684
-7.664165361
-8.204660837
-8.568200598
-8.778176864
-9.043632405
-9.464406067
-10.04073551
-10.62941157
-10.96083672
-10.87935502
-10.45920121
-9.986043048
-9.674712823
-9.543952762
-9.531902054
-9.522131967
-9.390323101
-9.094187939
-8.677138665
-8.155251046
-7.556525715
-6.987736143
-6.55927479
-6.324522971
-6.188941171
-5.983530168
-5.630837488
-5.159358419
-4.679423829
-4.227274883
-3.799888492
-3.401695936
-3.053155593
-2.770154721
-2.535025627
-2.313198552
-2.087707803
-1.876770484
-1.699080294
-1.565662095
-1.452096214
-1.263925289
-0.9113925379
-0.4625441361
-0.1871651962
-0.2757976409
-0.5568635928
-0.5953116297
-0.3687017614
-0.1693735344
-0.1579374263
-0.2252284147
-0.1062006706
-0.06351813856
-0.04876597982
-0.04977182402
-0.05107769328
-0.04720557863
-0.003083208754
0.005803778628
-0.005940382461
-0.003922417627
-0.006157872452
0.005965915399
0.004961594604
0.09796492846
0.08819767269
-0.0012959185
-0.001381526955
-0.001522589361
-0.002091641589
-0.002724287238
)


101
(
0
-2.678394577e-06
-7.757593728e-05
-0.0004022257008
-0.001524331987
-0.005482843854
-0.01707808549
-0.04385139849
-0.09409601731
-0.1755185349
-0.2951570094
-0.4551246867
-0.6431469444
-0.838511259
-1.034044547
-1.22027156
-1.386088348
-1.520774709
-1.650713787
-1.802233664
-2.104499905
-2.585946908
-3.150774799
-3.734233842
-4.284746675
-4.808218312
-5.32197553
-5.855985233
-6.442784555
-7.060197287
-7.626561385
-8.021705829
-8.213780011
-8.331420633
-8.658706447
-9.263611508
-9.97710958
-10.49548666
-10.55658649
-10.21166827
-9.615509183
-9.154254903
-8.977723675
-9.009383968
-9.125012619
-9.170743012
-9.056030481
-8.756764516
-8.312163791
-7.790936386
-7.224228867
-6.731832687
-6.424519021
-6.302274491
-6.203606509
-5.992287262
-5.627221111
-5.188320129
-4.755569747
-4.331308681
-3.927345453
-3.561220284
-3.250453989
-2.990640035
-2.761532485
-2.544566461
-2.339809788
-2.151602835
-1.991836786
-1.853690473
-1.657744637
-1.298508295
-0.8188952138
-0.4907283527
-0.5127765779
-0.7431790776
-0.776258499
-0.5665604895
-0.3690558763
-0.3296036961
-0.3567037938
-0.2083927785
-0.1566215507
-0.1302678248
-0.1246650405
-0.09438962038
-0.09077457789
-0.06524362095
-0.01301349832
-0.02154810432
-0.01687407178
-0.01406296976
-0.01418251254
0.004645444933
0.128228804
0.1183069836
-0.002758101665
-0.003171890504
-0.004059075394
-0.00838510313
-0.01395934032
)


101
(
0
-3.420536155e-06
-9.347447508e-05
-0.0004805507029
-0.001775667396
-0.00628768057
-0.01950684647
-0.05008206628
-0.1073303471
-0.1993747359
-0.3331933801
-0.5098620483
-0.7153461054
-0.9213203607
-1.109915609
-1.280363082
-1.419488053
-1.504382954
-1.554902342
-1.610588361
-1.818263763
-2.231052136
-2.768580178
-3.340099913
-3.888096954
-4.386832558
-4.869884624
-5.355779222
-5.890644238
-6.491268568
-7.089191827
-7.548916325
-7.752693061
-7.808003051
-7.99224979
-8.482169306
-9.269147536
-10.03101235
-10.37406373
-10.15037087
-9.570379487
-8.980645046
-8.65395071
-8.677681492
-8.864525324
-9.045041559
-9.091492073
-8.942231547
-8.633308913
-8.213857729
-7.705726077
-7.205037715
-6.837701209
-6.644503339
-6.560461593
-6.414342595
-6.158575077
-5.787153075
-5.392278435
-4.989521799
-4.591553738
-4.221686139
-3.894719926
-3.608080835
-3.349587307
-3.121150693
-2.919161645
-2.729759068
-2.550383097
-2.376205943
-2.149017411
-1.766079166
-1.251780265
-0.8870875624
-0.8797270687
-1.06855131
-1.055003303
-0.8203292895
-0.6165875196
-0.5846607452
-0.5876010172
-0.3812559916
-0.3034968092
-0.2578777554
-0.2391062317
-0.1918584196
-0.168297702
-0.1369419991
-0.08067069118
-0.05685614661
-0.0457529031
-0.0366297713
-0.03420073905
-0.006020980227
0.1494772485
0.1411627568
-0.006779506651
-0.01328789545
-0.02127338242
-0.0324493263
-0.04458151641
)


101
(
0
-3.891770257e-06
-0.0001079663277
-0.0005520845822
-0.001995782733
-0.0069661044
-0.02154989418
-0.05537899921
-0.1187568643
-0.2203156262
-0.3667072675
-0.5594869366
-0.7817295631
-1.001765722
-1.191841415
-1.348395875
-1.468984585
-1.513626481
-1.521089249
-1.478532524
-1.577107167
-1.922004829
-2.416249457
-2.993331627
-3.53612075
-4.012909645
-4.453825044
-4.895731589
-5.38336463
-5.947365803
-6.55430942
-7.09108917
-7.403559602
-7.450787829
-7.502228302
-7.855425652
-8.612341247
-9.489744266
-10.08432063
-10.14028298
-9.673481263
-9.038979358
-8.60671561
-8.529187936
-8.754047993
-9.045180432
-9.216923232
-9.192817647
-8.992986085
-8.681028858
-8.312401528
-7.888556073
-7.490459053
-7.241150843
-7.114443016
-6.975130216
-6.757913412
-6.447787663
-6.087786458
-5.718877486
-5.342743866
-4.97972696
-4.656587748
-4.356719794
-4.071392178
-3.813504535
-3.601316113
-3.416520302
-3.233845972
-3.031674852
-2.76412287
-2.346698703
-1.797559102
-1.399165483
-1.378670486
-1.549687532
-1.489779522
-1.207580116
-0.9669156272
-0.9251373259
-0.9355520753
-0.6750064695
-0.551859864
-0.469930069
-0.4221091308
-0.3435465909
-0.3171407403
-0.2595153406
-0.215017888
-0.1386774692
-0.1256324433
-0.1020417015
-0.08029802322
-0.04235901667
0.1539182793
0.1511723778
-0.019612933
-0.03556913527
-0.05599205562
-0.09307478092
-0.1369310598
)


101
(
0
-4.156628103e-06
-0.0001210831078
-0.0006174076121
-0.002187788613
-0.007530529423
-0.02322615333
-0.05978164601
-0.1284221178
-0.2382118837
-0.395878963
-0.6028713835
-0.8424840596
-1.078403513
-1.277312912
-1.427139797
-1.531000738
-1.553163537
-1.49792023
-1.412098145
-1.389948726
-1.602769488
-2.066797877
-2.627888277
-3.160169367
-3.62773878
-4.049483749
-4.456773539
-4.899068648
-5.424874862
-6.028389486
-6.616351863
-7.035559936
-7.189668169
-7.188468171
-7.380378536
-7.983579106
-8.906005456
-9.756687187
-10.07764239
-9.85488902
-9.269049795
-8.735510967
-8.539485068
-8.721085861
-9.100916165
-9.427337645
-9.542677194
-9.430910116
-9.151161795
-8.859288055
-8.571171559
-8.270049406
-8.003297256
-7.845477875
-7.702642038
-7.475559614
-7.180458267
-6.836642169
-6.492467684
-6.14246019
-5.797556496
-5.490438628
-5.202131338
-4.907132396
-4.61636403
-4.375120482
-4.186842502
-4.014980835
-3.8089587
-3.511261149
-3.053951996
-2.465189976
-2.031869498
-1.999376853
-2.169068597
-2.076787694
-1.7419515
-1.453149843
-1.38031414
-1.382142477
-1.075305826
-0.9145048764
-0.8056744792
-0.7267786308
-0.6223241187
-0.5488909873
-0.4628970243
-0.4009481288
-0.3090571738
-0.2461546817
-0.2176006867
-0.1693453745
-0.1298999841
0.1230447603
0.1325235796
-0.05679969766
-0.09357422343
-0.1401189089
-0.2199647494
-0.3197281499
)


101
(
0
-4.213769829e-06
-0.0001328256458
-0.0006768589951
-0.002353966797
-0.00798971586
-0.02456499821
-0.06334268992
-0.1364125907
-0.2532498621
-0.4208152893
-0.6406641937
-0.896105899
-1.145429652
-1.354018506
-1.504951517
-1.595191347
-1.59943618
-1.514151938
-1.345099778
-1.23902654
-1.368924453
-1.739034031
-2.260198997
-2.799864425
-3.267226345
-3.670572342
-4.04945154
-4.447343318
-4.923717125
-5.500128916
-6.121119336
-6.644336007
-6.921349363
-6.969503425
-7.051163732
-7.488340126
-8.342364382
-9.278444847
-9.880931936
-9.969390162
-9.525265698
-9.014202115
-8.724082677
-8.800636052
-9.168020716
-9.594056087
-9.861913008
-9.889628686
-9.699245007
-9.404290902
-9.137099688
-8.965038116
-8.800615316
-8.653840343
-8.539144183
-8.309538623
-8.007945549
-7.657645403
-7.315827424
-6.98083429
-6.658269772
-6.372371311
-6.11623928
-5.839870712
-5.530163011
-5.247040071
-5.027530873
-4.858740624
-4.669721618
-4.371251074
-3.887012992
-3.257273716
-2.782112247
-2.726786804
-2.900614251
-2.795255577
-2.407750977
-2.051092467
-1.945233107
-1.952065907
-1.608520368
-1.395490926
-1.259207783
-1.143989139
-1.010192494
-0.866395307
-0.7829772307
-0.6606266006
-0.5725028509
-0.4530610101
-0.4116027297
-0.3406796146
-0.2760190852
0.04135217465
0.06578159212
-0.1365287853
-0.2102464616
-0.3002294345
-0.4304010965
-0.603809929
)


101
(
0
-4.076540204e-06
-0.0001433297451
-0.0007309656054
-0.002497324735
-0.008353925808
-0.02559019583
-0.06610543
-0.1427706396
-0.2654960188
-0.4412108295
-0.6717935206
-0.942709458
-1.208993066
-1.429968445
-1.584071533
-1.665864585
-1.658988001
-1.556043923
-1.341403256
-1.142284599
-1.138527547
-1.426881817
-1.911599736
-2.445754041
-2.903815436
-3.15138379
-3.639079365
-4.005636739
-4.43537432
-4.971683508
-5.59531386
-6.193215365
-6.608226068
-6.778233688
-6.845013056
-7.108823624
-7.789812232
-8.750506953
-9.541550098
-9.873399657
-9.715872065
-9.273554108
-8.919074818
-8.923646791
-9.265851236
-9.760038404
-10.14025307
-10.27551057
-10.19791319
-9.969297732
-9.723160553
-9.528957519
-9.463509657
-9.425304485
-9.335331616
-9.17256921
-8.895948927
-8.550268254
-8.187118688
-7.859323435
-7.54985158
-7.281729143
-7.066664841
-6.844909473
-6.556556274
-6.233151071
-5.958261079
-5.756297932
-5.575793542
-5.30132798
-4.821869658
-4.16481531
-3.641788457
-3.548934336
-3.720573251
-3.622344164
-3.21385613
-2.788357767
-2.606850684
-2.612396888
-2.272098231
-2.013712406
-1.828738392
-1.672272747
-1.522500039
-1.311446861
-1.215855839
-1.057063773
-0.9339616859
-0.7522009196
-0.6865311676
-0.6007987451
-0.4998986718
-0.1222249741
-0.07678968463
-0.2657047046
-0.407356199
-0.5674947248
-0.7453211024
-0.8381187734
)


101
(
0
-3.764756728e-06
-0.000152557862
-0.0007799227489
-0.002619559733
-0.008631482497
-0.02633013792
-0.06812948804
-0.147586234
-0.2750608889
-0.4572851815
-0.6973220352
-0.9802964551
-1.265125368
-1.499835733
-1.657450266
-1.735447295
-1.731574526
-1.590511299
-1.365434382
-1.091799005
-0.9696017074
-1.146153672
-1.552785554
-2.06965476
-2.54069656
-2.910789557
-3.238636854
-3.57154334
-3.957987891
-4.446561114
-5.044844837
-5.679054336
-6.203354893
-6.510113947
-6.63973024
-6.824760027
-7.335793193
-8.182210945
-9.055700617
-9.629317386
-9.763083216
-9.465185961
-9.159265131
-9.06382598
-9.297591883
-9.796868425
-10.3339906
-10.57735215
-10.6156527
-10.45645987
-10.24995893
-10.08787868
-10.00824885
-10.03778203
-10.04061536
-9.976983479
-9.762810897
-9.44083073
-9.088563029
-8.753269187
-8.453215001
-8.192844017
-8.007969114
-7.848646096
-7.630233821
-7.321359941
-6.993571232
-6.727452716
-6.517254939
-6.261342692
-5.813947336
-5.159857364
-4.598808445
-4.458638646
-4.609131696
-4.51237609
-4.109282623
-3.670535623
-3.418292145
-3.371635405
-3.046177648
-2.767307818
-2.512753071
-2.288362747
-2.160511902
-1.907574806
-1.741427466
-1.585798172
-1.399822923
-1.206570827
-1.08336578
-0.9665417554
-0.8187003164
-0.3784487637
-0.3199993731
-0.5123298939
-0.6926298499
-0.9080833548
-1.200091614
-1.648754192
)


101
(
0
-3.296517021e-06
-0.0001605933879
-0.0008241373438
-0.002723153169
-0.008832318055
-0.02680921005
-0.06945932952
-0.1509420669
-0.2820365872
-0.4692289211
-0.7163684093
-1.009974603
-1.310049977
-1.560286764
-1.725747402
-1.807138356
-1.790821796
-1.663550124
-1.394632617
-1.06647329
-0.873645987
-0.9175759191
-1.240993873
-1.710743737
-2.176994707
-2.538683514
-2.838485932
-3.137671437
-3.483473858
-3.924898669
-4.477336683
-5.108868801
-5.703775813
-6.141833819
-6.388308962
-6.573368775
-6.919146126
-7.601428142
-8.483895111
-9.182581049
-9.528820453
-9.487573946
-9.266069635
-9.166269907
-9.358759878
-9.786750056
-10.30224162
-10.75817504
-10.93454694
-10.88678059
-10.71972089
-10.55749034
-10.49749229
-10.5227016
-10.59570433
-10.62316483
-10.51199412
-10.25451591
-9.932109361
-9.610180599
-9.316701468
-9.065873706
-8.883769299
-8.767789397
-8.645319587
-8.416888419
-8.092086037
-7.764752675
-7.492561429
-7.221206436
-6.811515673
-6.192830719
-5.616100349
-5.429989766
-5.547114622
-5.43592715
-5.026065072
-4.603710645
-4.342959292
-4.226636658
-3.889925997
-3.631035211
-3.329886599
-2.997201472
-2.872461094
-2.633072772
-2.386571657
-2.175797594
-2.00100885
-1.740004247
-1.5860932
-1.433492212
-1.265498555
-0.744822678
-0.6507422295
-0.8356205777
-1.128335327
-1.443435143
-1.742149322
-1.956809738
)


101
(
0
-2.685152911e-06
-0.0001674597132
-0.0008638438303
-0.002809904479
-0.008964842156
-0.02705347478
-0.07015340016
-0.1529461661
-0.2865302562
-0.4772211335
-0.729219042
-1.031879476
-1.344887589
-1.608646979
-1.789127027
-1.872381096
-1.855073658
-1.719487089
-1.460955931
-1.089198072
-0.7838604737
-0.7288399033
-0.9565430124
-1.356531827
-1.788983827
-2.153460147
-2.439617458
-2.703765745
-3.004555991
-3.391210361
-3.895180356
-4.499742006
-5.111952309
-5.640385039
-6.00977637
-6.259447097
-6.549525192
-7.074098849
-7.825683855
-8.571393081
-9.119865786
-9.332336803
-9.255998901
-9.188398375
-9.295034264
-9.673314604
-10.21575911
-10.68809294
-11.00226574
-11.12331293
-11.08265214
-10.96400932
-10.87825874
-10.91278969
-10.99639253
-11.06506889
-11.07236898
-10.91746615
-10.63979273
-10.3459784
-10.07468176
-9.828711432
-9.63471187
-9.535320811
-9.480172681
-9.368300009
-9.123205701
-8.789815585
-8.458740772
-8.141412948
-7.747213152
-7.181904999
-6.62327783
-6.407114924
-6.487194648
-6.353116495
-5.921354842
-5.504197663
-5.273401658
-5.112572719
-4.716150761
-4.489725935
-4.202772272
-3.802062859
-3.601142981
-3.411502482
-3.144390816
-2.806837521
-2.670129193
-2.415314121
-2.176765348
-1.97040714
-1.78419115
-1.200655784
-1.070424681
-1.265424845
-1.607127706
-1.960884155
-2.26552378
-2.65467138
)


101
(
0
-1.936086816e-06
-0.0001731859131
-0.0008992715293
-0.002881528331
-0.009036951423
-0.02708836512
-0.07026631523
-0.1536723244
-0.2886763229
-0.4814700432
-0.7365444742
-1.044662398
-1.368869133
-1.649028621
-1.842955547
-1.930271271
-1.917992066
-1.778344264
-1.513346812
-1.128777219
-0.7687422659
-0.6034197969
-0.7181698678
-1.037561593
-1.431788505
-1.78234337
-2.038240637
-2.26129018
-2.517835928
-2.855551025
-3.298009391
-3.846499578
-4.45245692
-5.020860827
-5.488733906
-5.840482338
-6.14795972
-6.526080138
-7.138590957
-7.853180694
-8.480329347
-8.892216725
-9.007779334
-9.031106998
-9.170912165
-9.47010082
-9.910668841
-10.46927617
-10.86787117
-11.08249191
-11.16992461
-11.17197567
-11.14285168
-11.15594627
-11.23023521
-11.31703048
-11.37372657
-11.32212893
-11.1357485
-10.88621064
-10.63851835
-10.41658252
-10.21325646
-10.07794333
-10.04934837
-10.02919727
-9.908915971
-9.646348979
-9.303673699
-8.939418003
-8.531169854
-8.011305397
-7.503120409
-7.295073832
-7.349062934
-7.181476767
-6.724460776
-6.30000371
-6.103102146
-5.942858707
-5.461782742
-5.228283231
-5.002001673
-4.605377458
-4.287664185
-4.130908841
-3.880679275
-3.490771926
-3.314911219
-3.067737171
-2.782367322
-2.547844634
-2.339555094
-1.688538583
-1.541213508
-1.722275396
-2.078770051
-2.4204501
-2.670189929
-3.053324068
)


101
(
0
-1.070511196e-06
-0.0001778200993
-0.0009306496465
-0.002939720827
-0.009056668327
-0.02693771162
-0.06985422173
-0.1532199838
-0.288679669
-0.4821274401
-0.737981586
-1.049848095
-1.382402685
-1.677708338
-1.882979759
-1.98315491
-1.968070417
-1.845590147
-1.576801982
-1.187402749
-0.7664187146
-0.5079290767
-0.513169051
-0.7525394863
-1.086354192
-1.402150551
-1.630856742
-1.812283248
-2.01713989
-2.2990931
-2.690096748
-3.180364284
-3.735453776
-4.304163144
-4.823550804
-5.25954841
-5.627177844
-5.969175124
-6.438781395
-7.014937155
-7.684823662
-8.209305504
-8.539708986
-8.684097816
-8.816442869
-9.100461814
-9.525577193
-9.975692499
-10.43937461
-10.80066992
-10.94701816
-11.05790685
-11.12485662
-11.14608656
-11.22841084
-11.32987763
-11.40156854
-11.41568831
-11.31317903
-11.12457275
-10.91063217
-10.72178148
-10.53281695
-10.35886261
-10.28190169
-10.30441414
-10.29206761
-10.15036148
-9.858560352
-9.47661782
-9.041107802
-8.531747936
-8.070272349
-7.914736027
-7.992593851
-7.805722189
-7.307423714
-6.864809216
-6.699279863
-6.589088646
-6.062645791
-5.76369357
-5.591258897
-5.26289094
-4.85330454
-4.681255953
-4.455078229
-4.081559435
-3.831695483
-3.614792903
-3.283245207
-3.083209856
-2.840704559
-2.145205845
-1.977359334
-2.195866264
-2.550879389
-2.824733456
-2.93325033
-2.281174916
)


101
(
0
-1.010648938e-07
-0.0001814039659
-0.0009581319255
-0.002985787433
-0.009030723052
-0.02662549206
-0.06897471032
-0.151687196
-0.2866635338
-0.4794126536
-0.7343627838
-1.04698825
-1.38534485
-1.692980344
-1.910547556
-2.022719147
-2.018013438
-1.889053178
-1.640649874
-1.257088131
-0.8016616747
-0.4682857974
-0.3549354974
-0.4958536431
-0.772241606
-1.044988825
-1.248577359
-1.380357981
-1.520820532
-1.732822211
-2.052816509
-2.483708331
-2.983796984
-3.514021948
-4.032978514
-4.51655133
-4.937142102
-5.301498442
-5.674460533
-6.148971921
-6.705209365
-7.271053127
-7.725754538
-8.039843938
-8.277047882
-8.536966263
-8.874455473
-9.320794055
-9.728275715
-10.10909289
-10.40712702
-10.57676983
-10.71702103
-10.81120845
-10.88167368
-10.97719567
-11.08369287
-11.13031485
-11.09864563
-10.96234535
-10.79131447
-10.63125892
-10.4689464
-10.28718076
-10.14125921
-10.12339199
-10.16265675
-10.12358017
-9.932083337
-9.579182853
-9.125522628
-8.594839001
-8.131655075
-8.018820578
-8.183957872
-8.052340704
-7.529076558
-7.037821092
-6.878105572
-6.848008764
-6.368129224
-6.003373609
-5.823578498
-5.601065777
-5.171461652
-4.93455742
-4.746316089
-4.41745849
-4.111230353
-3.965124422
-3.580827328
-3.425291628
-3.191486519
-2.460709878
-2.330870431
-2.633817469
-2.882896926
-2.991121732
-2.990620684
-3.31879407
)


101
(
0
9.671531351e-07
-0.000183838292
-0.0009817991404
-0.003020732208
-0.008964793277
-0.02617135783
-0.06768663825
-0.1491915114
-0.2827855421
-0.4736767042
-0.7259513812
-1.036635653
-1.377879782
-1.69461864
-1.930481242
-2.048964373
-2.054258616
-1.936744767
-1.691385232
-1.316722449
-0.8724301691
-0.4600022149
-0.2601570573
-0.2857261528
-0.4793687989
-0.700998282
-0.8640443716
-0.950764252
-1.019637624
-1.148916361
-1.39402497
-1.758979529
-2.196267796
-2.665644662
-3.147212317
-3.624790107
-4.088050535
-4.50761079
-4.829079507
-5.183276027
-5.593613455
-6.098322038
-6.632498705
-7.090247168
-7.408374546
-7.68671427
-8.001965971
-8.349275826
-8.737948382
-9.115564298
-9.409959265
-9.65463984
-9.85332495
-10.00845004
-10.11150096
-10.16429885
-10.25376218
-10.33657861
-10.36361946
-10.29115868
-10.15551799
-10.00973206
-9.873132166
-9.703406889
-9.522658181
-9.416497771
-9.431761525
-9.452579831
-9.346724305
-9.055478545
-8.608656343
-8.059624387
-7.549587493
-7.407216
-7.663815079
-7.668306814
-7.2130253
-6.677184275
-6.468305017
-6.490630019
-6.134162067
-5.789180654
-5.554045271
-5.429736813
-5.086914837
-4.77515297
-4.61365234
-4.389131417
-4.086361985
-3.987751702
-3.645467367
-3.464992283
-3.295216227
-2.566693559
-2.503040367
-2.861464712
-2.988876809
-2.899215011
-2.842695218
-2.401799707
)


101
(
0
2.115959772e-06
-0.0001853864294
-0.001001875916
-0.003046011856
-0.008865796552
-0.02559939596
-0.06604023734
-0.1458175273
-0.2772082903
-0.4651307057
-0.7130506867
-1.019713152
-1.360813643
-1.683738786
-1.932784104
-2.066529035
-2.078088791
-1.967558499
-1.740751358
-1.378676558
-0.9254336879
-0.4930605108
-0.203280483
-0.1214785314
-0.2110233138
-0.3794919734
-0.5080546212
-0.5489115403
-0.5396894459
-0.5712391896
-0.7279142595
-1.012912466
-1.379986542
-1.778932681
-2.186429994
-2.615209589
-3.062908065
-3.489890103
-3.840519353
-4.112670102
-4.389967478
-4.753182052
-5.228737963
-5.740821053
-6.187370431
-6.504668924
-6.783045175
-7.08259691
-7.374250251
-7.694845777
-8.003912344
-8.256197697
-8.473240595
-8.645073959
-8.75161456
-8.817841668
-8.864142923
-8.915481896
-8.957751819
-8.945713971
-8.845843515
-8.703309151
-8.574208855
-8.429992756
-8.239175869
-8.070537651
-8.000089414
-8.013495841
-7.959183798
-7.727760067
-7.306268713
-6.76229825
-6.211828485
-5.98110634
-6.231712807
-6.394613445
-6.121676796
-5.637040502
-5.365894767
-5.367475082
-5.124041478
-4.913309706
-4.651107044
-4.578696112
-4.412438636
-4.112463508
-3.928913614
-3.875265733
-3.637949673
-3.570305624
-3.359525122
-3.16207821
-3.085448055
-2.411321242
-2.430148792
-2.85747295
-2.856994454
-2.594069418
-2.652739907
-2.264347333
)


101
(
0
3.335959226e-06
-0.0001859074879
-0.001018409825
-0.003062329686
-0.008738772129
-0.02494330154
-0.06409131326
-0.1416908356
-0.2701025367
-0.4540136115
-0.696270973
-0.9964593454
-1.333889166
-1.660889961
-1.920238181
-2.069363006
-2.092201889
-1.985869574
-1.770021445
-1.428247327
-0.9851274138
-0.5476283179
-0.1872998681
-0.01600572442
-0.004446185988
-0.0851338751
-0.155747848
-0.1561915765
-0.08505735064
-0.01718202582
-0.06282056751
-0.2542879386
-0.5177659153
-0.8438288068
-1.162561298
-1.50426306
-1.882510639
-2.29293726
-2.649184176
-2.881783782
-3.054813395
-3.232729572
-3.558256211
-4.053500571
-4.534275467
-4.925360165
-5.192636105
-5.404747865
-5.636342909
-5.858136504
-6.078212765
-6.309519199
-6.508832567
-6.683165526
-6.777220527
-6.777867432
-6.755675723
-6.760117995
-6.813192895
-6.783943682
-6.713754143
-6.573085041
-6.411271924
-6.260219179
-6.072282648
-5.873403156
-5.728893089
-5.673621622
-5.625934391
-5.430906389
-5.040663055
-4.526103026
-3.977021825
-3.667326069
-3.820658408
-4.057963621
-4.004875622
-3.712109497
-3.475724823
-3.421336187
-3.214352966
-3.198467271
-3.014575063
-2.955643398
-2.979775594
-2.850745725
-2.648400727
-2.786998452
-2.683888388
-2.659594059
-2.64605645
-2.530918889
-2.547569155
-1.978236077
-2.091852595
-2.586074098
-2.56166254
-2.287404137
-2.794442087
-3.225895703
)


101
(
0
4.618002912e-06
-0.000185551165
-0.001031445338
-0.003070382453
-0.00858995516
-0.0241983624
-0.06189530568
-0.1369190572
-0.2616803505
-0.4406699753
-0.675959032
-0.9678442456
-1.299189259
-1.625945032
-1.893933317
-2.058006009
-2.095013542
-2.007910445
-1.789163473
-1.459589869
-1.057081233
-0.6176858786
-0.2207583555
0.04945782135
0.1660624779
0.178277328
0.1801512933
0.2226761328
0.3441871531
0.513277752
0.5801500957
0.5276494432
0.3654623165
0.1379023404
-0.08888464469
-0.3070354107
-0.5784126271
-0.8970018691
-1.217322847
-1.439819628
-1.526074522
-1.557858591
-1.684311118
-1.997178452
-2.465677972
-2.868419241
-3.139901244
-3.293380841
-3.405126032
-3.502102773
-3.63393536
-3.768074568
-3.909656179
-4.017285507
-4.079485785
-4.034319082
-3.884789686
-3.764934484
-3.692068498
-3.698535584
-3.615769803
-3.465984396
-3.259742229
-3.04200158
-2.829531295
-2.603589346
-2.399942833
-2.275490999
-2.191090629
-2.00768119
-1.653803123
-1.183160906
-0.6926136318
-0.3710495774
-0.4195825356
-0.611224639
-0.7163296234
-0.6826031999
-0.6450237754
-0.6377800203
-0.4055413951
-0.5658181112
-0.595891429
-0.5969471066
-0.7662053496
-0.9438651565
-0.8308096532
-1.144665553
-1.266320479
-1.341049179
-1.554014594
-1.628954317
-1.775446792
-1.350230628
-1.578287511
-2.148313113
-2.326504949
-2.379393043
-3.871072463
-5.686242665
)


101
(
0
5.985562361e-06
-0.0001840160631
-0.001041146229
-0.003071118682
-0.0084194554
-0.0233920615
-0.05949662372
-0.1315986416
-0.2520897407
-0.4252825277
-0.6525752122
-0.9343016645
-1.256790303
-1.580687231
-1.853602456
-2.029542796
-2.084524257
-2.00672479
-1.811281711
-1.506212314
-1.110366902
-0.6739837547
-0.261691566
0.0693067392
0.2823542781
0.3926822513
0.4727082501
0.5844309367
0.763293856
0.9965810173
1.220331255
1.29511969
1.261661493
1.178660338
1.048546702
0.9573268028
0.8287852383
0.6516502851
0.4254058414
0.2524780125
0.2222386775
0.3121517148
0.4078367152
0.3326277894
0.04677536973
-0.3413565933
-0.6060334758
-0.6812075369
-0.6673750129
-0.6030936755
-0.5803089823
-0.5612879035
-0.569968568
-0.6145529489
-0.5873237861
-0.4574117236
-0.1786606791
0.115484055
0.334641966
0.4702330126
0.5890933174
0.7750130157
1.015788148
1.316604841
1.623394664
1.90821878
2.157865208
2.354440236
2.495612135
2.690519711
3.009597244
3.419615891
3.793543057
4.01722322
3.991506266
3.878282456
3.718217967
3.52971973
3.262338605
3.030027522
3.209757415
2.916190884
2.568515422
2.349963684
2.046937398
1.501771646
1.355267097
0.8715697396
0.4198647564
0.1400912048
-0.3199242256
-0.6341038382
-0.9938819201
-0.7646754895
-1.135887122
-1.820017066
-2.587653273
-3.513200877
-6.735100255
-10.25450084
)


101
(
0
7.351071648e-06
-0.000181887564
-0.001047483998
-0.003064687345
-0.008233955549
-0.02253720364
-0.05694689169
-0.1258485729
-0.2415410054
-0.4082266915
-0.6265460666
-0.896838155
-1.208011524
-1.52573659
-1.800524243
-1.98774223
-2.058237244
-1.997987918
-1.813833305
-1.525349416
-1.15052169
-0.7335661611
-0.3125549442
0.06526295069
0.3541633364
0.5713336202
0.746693388
0.935593299
1.178578887
1.474997478
1.788302551
2.047893198
2.189460432
2.23391519
2.250202326
2.285502783
2.334447212
2.324857166
2.266648511
2.203792673
2.23352018
2.426896854
2.716685698
2.917579071
2.908341479
2.693366252
2.526166036
2.470751329
2.637333978
2.875245529
3.127019499
3.33583688
3.519249924
3.671475674
3.783804781
4.024578247
4.401196501
4.91846142
5.386366851
5.720667227
5.966504399
6.246820881
6.565247265
6.935017167
7.345075629
7.738285255
8.072428243
8.327839868
8.533003047
8.743019657
9.044575843
9.380046429
9.589907149
9.588338662
9.424062022
9.305696821
9.117681412
8.77049492
8.179160544
7.52696533
7.450697803
6.991260714
6.265034124
5.624593441
5.065915758
4.143196197
3.570216297
2.872931346
1.989563938
1.378778726
0.599911336
0.04012534267
-0.623738035
-0.650148844
-1.217284775
-2.067804814
-4.004452982
-6.573986935
-12.47192467
-19.27915371
)


101
(
0
8.694003303e-06
-0.0001788062813
-0.001050585217
-0.003051842493
-0.008036094661
-0.02164987882
-0.05428538027
-0.1197605087
-0.230198368
-0.3897274461
-0.5983119085
-0.8560154738
-1.154089876
-1.462573836
-1.736020165
-1.932546765
-2.016003663
-1.977888744
-1.806718623
-1.53038324
-1.178411371
-0.7843677375
-0.3746188806
0.02684169583
0.3852790116
0.6919987256
0.9679778626
1.249909514
1.562501307
1.931246224
2.363384545
2.742083035
3.070460535
3.30795351
3.509393301
3.692506544
3.908405875
4.102389422
4.258349412
4.373935115
4.531879879
4.837977376
5.282675517
5.761701103
6.087008674
6.197674112
6.163056804
6.26367169
6.546822178
6.98299956
7.498693609
7.962215197
8.41067438
8.80125999