/*--------------------------------*- C++ -*----------------------------------*\
| =========                 |                                                 |
| \\      /  F ield         | OpenFOAM: The Open Source CFD Toolbox           |
|  \\    /   O peration     | Version:  2.3.1                                 |
|   \\  /    A nd           | Web:      www.OpenFOAM.org                      |
|    \\/     M anipulation  |                                                 |
\*---------------------------------------------------------------------------*/
FoamFile
{
    version     2.0;
    format      ascii;
    class       dictionary;
    location    "constant";
    object      la_i13;
}
// * * * * * * * * * * * * * * * * * * * * * * * * * * * * * * * * * * * * * //

la_i13_table
101
(

101
(
0
0
0
0
0
0
0
0
0
0
0
0
0
0
0
0
0
0
0
0
0
0
0
0
0
0
0
0
0
0
0
0
0
0
0
0
0
0
0
0
0
0
0
0
0
0
0
0
0
0
0
0
0
0
0
0
0
0
0
0
0
0
0
0
0
0
0
0
0
0
0
0
0
0
0
0
0
0
0
0
0
0
0
0
0
0
0
0
0
0
0
0
0
0
0
0
0
0
0
0
-3.662240094e-11
)


101
(
0
0.001884331134
0.0007804014004
-0.000751842066
-0.001444102826
0.0001217965807
0.0001270245174
0.0001704493566
7.470535112e-05
0.0002395904178
-3.460245362e-05
-0.0002092678204
0.0001160694901
-0.0001128522137
6.304060863e-05
-9.772388399e-05
0.0002006722276
0.0001084979987
2.354402005e-05
-0.0001091920183
-0.0001746203944
-0.0002741397871
-0.0002044163514
-9.772082715e-06
0.0002090806791
0.0001425019411
-5.709956605e-06
-0.0001843531653
-0.0002835174097
-0.0004370434233
-0.0004586434413
-0.000390095703
-0.0003061419963
-0.0001680833683
-0.0001161557105
-0.0001274244755
-0.0001582223574
-1.656153576e-05
6.587500341e-05
5.72592447e-05
-0.0001573907899
-0.0005508904452
-0.0008848697721
-0.0009544782703
-0.0008384653744
-0.0007986164178
-0.0009618786083
-0.001065716548
-0.001063022181
-0.0008377095472
-0.0005811932471
-0.0005817432994
-0.0009093384397
-0.001394541737
-0.001750094716
-0.001794181111
-0.001649193732
-0.001440926267
-0.001295972559
-0.001130684321
-0.0008144027321
-0.0004262407344
2.487315949e-05
0.0004202717322
0.000679741697
0.0006803362191
0.0007670352487
0.001466710388
0.002477703311
0.00255511439
0.001254629968
-0.0001477749809
-0.000490532301
-0.0001045470591
0.0005150727491
0.001404367819
0.00178866758
0.0008146259128
-0.001092894594
-0.003988887722
-0.004499348136
-0.001305677747
0.0002340181455
-0.001656589539
-0.002676058067
-0.0002509042863
-0.001739992727
0.004417335967
-0.003691820273
-0.0008885930037
-0.0006922597887
0.004266316975
-0.001485610091
0.0002949822574
0.0002659455741
0.0002829217688
4.372162019e-09
0
0
0
9.251374167e-12
)


101
(
0
0.01348342316
0.002029002349
-0.00111826947
-0.000682212759
-0.0005548311278
-0.0006380863016
-0.0002799630044
-0.0001481903507
-0.0005233280461
-0.0002221620559
0.0003895110626
0.0001141942348
0.0002259940029
-0.0002644368582
2.969385933e-05
-1.472188531e-05
0.0002782554727
9.91301805e-05
-7.689269988e-05
-0.0002841936206
-0.0003375766123
-0.0001636389135
6.82984731e-05
0.0002467973815
0.000443762718
0.0001228082833
-0.000199036888
-0.0007039043743
-0.00096631
-0.0009919251063
-0.0009762401299
-0.0007822028329
-0.0005999910164
-0.0004477840741
-0.0004222730592
-0.0004343303493
-0.0004192709824
-2.473102659e-05
0.0001565014871
-7.688303444e-05
-0.0008142081313
-0.001603564777
-0.002014182536
-0.001939871736
-0.001795504469
-0.001830078089
-0.002274188789
-0.002495760752
-0.002309484093
-0.001806322175
-0.001425982908
-0.001631139531
-0.002367676317
-0.003288630636
-0.003842233096
-0.003957446859
-0.003744667015
-0.003585769863
-0.003348972202
-0.002876413022
-0.002030578891
-0.0009814085799
7.102658414e-05
0.0009145205602
0.001192211235
0.001008599018
0.001441491536
0.003187722201
0.004891497868
0.004252103527
0.001590714676
-0.0004027034426
-0.0007296922587
-0.0003525804084
0.0008089600625
0.002234829381
0.001780802505
0.000901526061
-0.000801832091
-0.002159136405
-0.002238994776
0.0008851617544
0.000486194443
0.0006980407118
-0.0005046314764
-0.0003726580299
0.002659338306
-0.002217526008
0.001452167742
0.0001425367737
-0.002350253097
0.002359832707
-0.001133723369
0.001207635285
0.0004991894849
-7.318546153e-09
0
0
0
5.06463692e-11
)


101
(
0
0.009007983183
0.00448195644
-0.001605344861
-0.002913103379
0.0001788075646
-0.0005195333023
-0.0004777176677
-6.194664263e-05
-0.0001156415878
-0.000412839523
-0.0002114503153
6.102801016e-05
-7.972324286e-05
-0.0001435905646
-0.0001696134474
0.0002825068062
0.000206473051
0.0002167840437
-0.0001773602505
-0.000340946581
-0.0006630178388
-0.0006555385636
-0.0002934328123
0.0002902963866
0.0003637745308
0.0003073960992
-0.0003374183553
-0.0009405227966
-0.001372300357
-0.001703034067
-0.001756003732
-0.00152462269
-0.001239023821
-0.001035319871
-0.0009976403327
-0.001169924119
-0.001090741138
-0.0006948619933
-0.0001874973047
-8.598675743e-05
-0.0007774682434
-0.002070968672
-0.003134074739
-0.003459631558
-0.00319555052
-0.003109457027
-0.00346905076
-0.004092647994
-0.004346874474
-0.003986553944
-0.00328060407
-0.002972477065
-0.003479879545
-0.00462050697
-0.005862977631
-0.006636524784
-0.006960287044
-0.007037052995
-0.007071813263
-0.006771252117
-0.005781974077
-0.004159879132
-0.002225176352
-0.0004139265322
0.0007850910787
0.001010205175
0.0008762651383
0.00201107245
0.004584805264
0.005930453451
0.003932343784
0.0005577289744
-0.001129746775
-0.001472913495
-0.000862102674
0.001191612079
0.001315685939
-0.0002161767541
-0.001406051288
-0.0009553100064
-0.001043111906
-0.00135732125
-0.002102130969
-0.0018125026
0.0001356308992
0.003868057805
0.0007193747213
-0.001198427485
0.003932820196
0.00166026216
-0.00274246667
-0.001918156028
0.002212312307
0.000287268287
-0.0009730483671
-6.479153271e-09
0
0
0
1.368785135e-10
)


101
(
0
0.009443728779
0.005005401547
-0.002203332306
-0.002019238478
-0.001046469571
-0.0001084948399
-0.0004512867499
-4.436649474e-06
-0.0005115017307
-0.0004861795861
-9.243310097e-05
0.0004749935522
0.000104175023
-0.0002011067905
-0.0002390137081
1.977227014e-05
0.0002455540963
0.0001337227096
3.597571478e-05
-0.0005615173994
-0.0008673941689
-0.0009972003589
-0.0006134837675
7.862910095e-06
0.000599001764
0.0003988925513
-0.0002860981356
-0.0010925602
-0.001937605975
-0.00255459063
-0.002675652114
-0.002604565029
-0.002289624452
-0.002030502761
-0.001938596584
-0.002178031024
-0.002323499201
-0.002086416772
-0.001313331353
-0.0005987239669
-0.0008929274811
-0.002292395778
-0.004072153005
-0.005169824166
-0.005260552003
-0.004936272846
-0.005039565865
-0.005801239281
-0.006711016237
-0.006963870462
-0.0064585206
-0.005742836935
-0.005635698545
-0.006419659465
-0.00786663546
-0.009384996386
-0.01050128369
-0.01129180387
-0.01189822246
-0.01227793307
-0.01185053044
-0.01024337452
-0.007764902541
-0.005058842268
-0.002699114358
-0.001111626357
-0.0004755704079
0.0001748900312
0.002292388421
0.004906336742
0.004900504616
0.001773027959
-0.001148503512
-0.00249060546
-0.003161033839
-0.001629420763
0.0003574451117
0.000129963537
-0.0002193053366
0.002321647748
0.003094792675
0.001724747571
0.002085560674
0.001742460097
0.00312013732
0.008423779199
0.000752494296
0.005075335241
0.001915847262
-0.001293173317
-0.0003123891121
0.002168752812
0.005716838835
-0.00120453641
-0.001355575345
3.929231785e-08
0
0
0
2.701456658e-10
)


101
(
0
0.0143189046
0.006707298824
-0.001811254459
-0.003969428129
0.0003590042396
-0.0005158640567
-0.0006366745477
-0.0006266068504
-0.0002783994881
-0.0005034727853
-1.72985473e-05
0.0003064159173
0.0001122721745
-0.0004736332799
-0.0004011147083
3.037923792e-05
0.0004034617971
0.0003277865524
-4.448600975e-05
-0.0004564154113
-0.00118338181
-0.001500107616
-0.001140334085
-0.0003461601689
0.0001937748464
0.0003016012022
-0.0001831532007
-0.001305869495
-0.002518860184
-0.003379047632
-0.003949708122
-0.003983823703
-0.003726880316
-0.003422826304
-0.00337253885
-0.003621027399
-0.004061760467
-0.004065771283
-0.003241173605
-0.002146454341
-0.001646895008
-0.002661036209
-0.004871870778
-0.006977068478
-0.007876640267
-0.007710244503
-0.007405161001
-0.007827586633
-0.009021632244
-0.01013771866
-0.01045773369
-0.009960644392
-0.00938710577
-0.009497743662
-0.01050551737
-0.0121556527
-0.01394076039
-0.01548087324
-0.01680642204
-0.01792205761
-0.01850306709
-0.01779907547
-0.01565503086
-0.01283452539
-0.01007581053
-0.007402148914
-0.004942945535
-0.002964103737
-0.0008977262933
0.002153109299
0.004427717187
0.003433356037
0.0006674761153
-0.001274960081
-0.003105141569
-0.003679897979
-0.001496530786
0.0004014071514
0.001290641151
0.004315980472
0.005848017846
0.005440970481
0.005283502188
0.00346920384
0.001316534474
0.0079254346
0.002584702885
-0.003923426486
0.0004749672358
-0.001640722134
-0.001640313971
-0.0002980662169
-0.002622612995
-0.003434120541
0.002285017486
4.929010409e-08
0
0
0
4.634631031e-10
)


101
(
0
0.01615508423
0.009407235619
-0.001608675424
-0.004547899402
-0.001417758388
-0.001165213063
-0.000955252464
-0.0001651389375
-0.0007404409748
-0.001078227549
-0.0004460753613
0.0002661550454
0.0002368673544
-0.0001944775337
-0.0005892181464
-0.0001921881105
0.0002694874899
0.0003605347081
-6.465784789e-05
-0.0006728886196
-0.001325546147
-0.001778437865
-0.001803233756
-0.001202190882
-0.0002415812793
0.0002205371069
-0.0003528778157
-0.001596017906
-0.003082151309
-0.004501826027
-0.005368765048
-0.005695228892
-0.005550607824
-0.005247567664
-0.005171161886
-0.005508601139
-0.00626289275
-0.006723464922
-0.006285600186
-0.004840081149
-0.00348847272
-0.003655518202
-0.005676169711
-0.008601638551
-0.01077579888
-0.01132447871
-0.01087458651
-0.01069648495
-0.01148372247
-0.01305868925
-0.01435262679
-0.01477637896
-0.01442824587
-0.01399486878
-0.01423235179
-0.01530021658
-0.01699337736
-0.01889322299
-0.02055695342
-0.02197062307
-0.02304909577
-0.02325734017
-0.02196813833
-0.01973762076
-0.01765224311
-0.01546069006
-0.01202848147
-0.007956325997
-0.00474319696
-0.001460439936
0.002962706615
0.005856015219
0.005592945419
0.004469579342
0.00255488816
-0.0003551050695
-0.0009136374354
0.0008450195812
0.00308644533
0.005613795388
0.006129180852
0.00720497113
0.006483975916
0.0007464346392
-0.002025000835
-0.004089666501
-0.003201807207
-0.003849338857
0.00224625399
-0.00305959089
0.006340428586
0.0007741565319
-0.004266594002
0.001922064808
-0.002130738884
1.129545966e-07
0
0
0
7.072614418e-10
)


101
(
0
0.01563235222
0.0130072557
-0.003626266004
-0.006168234967
-0.0006722983225
-0.0006321686632
-0.001000714698
-0.0003287912798
-0.0008422845466
-0.0008994550186
-0.0003673090135
0.0004355976192
0.0004077012435
-0.0005417067368
-0.0007301868597
-0.0004298657198
4.562983683e-05
0.0001452345762
-5.379331853e-05
-0.0007191541273
-0.001560641056
-0.002363890858
-0.002616466522
-0.00201809132
-0.000910082749
-0.000370545169
-0.0006263238554
-0.001844016415
-0.003647182234
-0.005466694586
-0.006987731519
-0.00768817151
-0.007772023955
-0.007532836773
-0.007381857312
-0.007782591428
-0.008694657082
-0.009703111364
-0.009848771061
-0.008674408714
-0.006831313037
-0.005860011384
-0.007033457167
-0.01013715947
-0.01347969977
-0.01539512679
-0.01544153054
-0.01464335932
-0.01455529
-0.01564135247
-0.01742093038
-0.01885148888
-0.01929907212
-0.01894561857
-0.01853629024
-0.01860079335
-0.01947192939
-0.02089945616
-0.02230775723
-0.02319972225
-0.02360388627
-0.02340374324
-0.0220797009
-0.01987616257
-0.01832707831
-0.01766932449
-0.01528201973
-0.01017442848
-0.005857137656
-0.003552090164
0.0008734590175
0.007572425239
0.01175707433
0.01308219885
0.01295931566
0.01026588991
0.006296993175
0.003828564161
0.004703247516
0.006426841926
0.005916866778
0.004953090463
0.00454353539
-0.00290686795
-0.007378452475
-0.003756047632
-0.001918495856
-0.004648119612
0.003362633273
-0.001944992569
0.004741464994
0.003467700604
-0.001823275146
0.008195319014
-0.0007081418321
8.31266662e-08
0
0
0
1.028435207e-09
)


101
(
0
0.01887126198
0.01194081247
-0.001685848933
-0.005718086145
-0.0005881606376
-0.0009298444864
-0.0004554015894
-0.0003839395412
-0.0004218223823
-0.001338278222
-0.000814876343
0.0001947657851
0.0001911836289
-0.0004384903017
-0.001008897032
-0.0007352042376
-0.000110203658
0.0001072718654
-0.0001834487679
-0.0008512752829
-0.00169218617
-0.002764891225
-0.003467173651
-0.003209030906
-0.002255003428
-0.001305369355
-0.001148665719
-0.002184212503
-0.004221779424
-0.006591989147
-0.00862125179
-0.009892015732
-0.01040436386
-0.0102630646
-0.01012739637
-0.01039713567
-0.01142963592
-0.01276115209
-0.01371889179
-0.01330309125
-0.01141364493
-0.00949848908
-0.009419031128
-0.01191217787
-0.01586560331
-0.01916426118
-0.02038880301
-0.01967417321
-0.01843003455
-0.01820613305
-0.01942661303
-0.02117295497
-0.02240813517
-0.022578526
-0.02186546132
-0.02100615334
-0.02058755476
-0.02079149315
-0.02117895456
-0.0209377662
-0.01963649031
-0.01747024877
-0.0142784939
-0.01019365855
-0.007201261315
-0.006937621554
-0.006498211075
-0.001978938193
0.002998851672
0.002776019389
0.002432644802
0.00851278258
0.01572821411
0.01885958098
0.02003851498
0.02042939113
0.01752343375
0.01081933513
0.006587494107
0.005218598123
0.00479432935
-0.0003926311202
-0.004633954202
-0.004713586619
-0.01003990298
-0.004712285263
-0.006124941019
-0.003246304431
-0.001211545645
-0.001094015083
0.004093949666
0.008703687045
0.0003175686918
-0.01064005573
-0.001620669039
2.528422449e-07
0
0
0
1.404781233e-09
)


101
(
0
0.02183410237
0.01460419188
-0.001899195908
-0.007065895695
-0.001698995386
-0.001564767153
-0.002231594841
-0.0005659843812
-0.0009117783594
-0.001614804101
-0.0009977957446
-2.744168166e-06
0.0004432028866
-0.0004571359596
-0.001354519954
-0.001132563711
-0.0004016260852
-5.522715372e-05
-0.0004029046556
-0.0009227239207
-0.001985386626
-0.003219104348
-0.004104906667
-0.00431922337
-0.003586128176
-0.002467151513
-0.002060670926
-0.002929508414
-0.004918782412
-0.007627964014
-0.01027231365
-0.01227694076
-0.01318283194
-0.01333885774
-0.01322969369
-0.01339285141
-0.01424821407
-0.01584867557
-0.01747235461
-0.01793591655
-0.01664805972
-0.01440503486
-0.01308448979
-0.01430723102
-0.01795960881
-0.02220017941
-0.02481655887
-0.0247931878
-0.02297048828
-0.02105859663
-0.02046529305
-0.02139398352
-0.02265056182
-0.02309908041
-0.02228301993
-0.02064875378
-0.01886470269
-0.01744995665
-0.01629351288
-0.01457916097
-0.01138195352
-0.006629772218
-0.0004002610339
0.007126517642
0.01393543842
0.0165655045
0.01595668781
0.01861956564
0.02413275054
0.02244535044
0.01446029281
0.01297675771
0.01773972661
0.01925756046
0.01744146168
0.01858653041
0.02062580173
0.01625518142
0.007975676644
-0.0009499028452
-0.00427450835
-0.01134685992
-0.02250697256
-0.01465703357
-0.01236679072
-0.005786624239
-0.01001951022
-0.002158138277
0.002056925566
0.001307454401
-0.005293210604
-0.00955330229
0.002013277235
-0.007688647727
0.007505582943
-2.535911215e-07
0
0
0
1.853980368e-09
)


101
(
0
0.02209944568
0.01791158346
-0.0022666317
-0.008600853248
-0.002718061103
-0.0007696734889
-0.001220008249
-0.0008928255323
-0.001258821022
-0.001661533386
-0.001503732641
-0.000227721031
0.0002234313531
-0.0006269268485
-0.001522137055
-0.001598822219
-0.0009137009298
-0.0005060379171
-0.0005859138073
-0.001362622434
-0.002360547617
-0.003672141632
-0.005099556749
-0.005678437105
-0.005326705867
-0.004214200202
-0.00354677102
-0.003876070538
-0.005724311434
-0.008711736882
-0.01192004005
-0.01454643476
-0.01615546578
-0.01670650994
-0.01660306925
-0.01670407889
-0.01732187884
-0.01876811425
-0.0206520561
-0.02193295193
-0.02166049107
-0.01975061694
-0.0177390632
-0.01752746511
-0.02006077977
-0.02424782083
-0.02779305259
-0.02882869234
-0.02699998338
-0.02369366128
-0.0207927355
-0.01956423794
-0.01967876814
-0.01970994435
-0.01848410362
-0.01593237307
-0.01281963363
-0.00971743989
-0.006864350553
-0.003644892258
0.001065004111
0.00772908904
0.01627284564
0.02671330467
0.03773115727
0.04478662745
0.04512449631
0.04473823099
0.04890554285
0.04793542528
0.03496865747
0.02306570515
0.01985231963
0.01620319827
0.007600658576
0.003208755231
0.006021096298
0.008421566114
0.004358893156
-0.0113723512
-0.02237001961
-0.03002748428
-0.04329526821
-0.03393531532
-0.02534461813
-0.02621243729
-0.0210943898
-0.01109303683
-0.01896355827
-0.004129295136
-0.005005412357
-0.03168760575
-0.0003361818453
0.001384477153
0.01188727409
-1.733724134e-06
-7.734090239e-12
0
0
2.369107611e-09
)


101
(
0
0.02404050022
0.02057477755
-0.001891114898
-0.008900956629
-0.001115417632
-0.002097097658
-0.002081512468
-0.0007395711986
-0.0008540630098
-0.001937886901
-0.001770407301
-0.0005858262559
0.0001213900801
-0.0005368295501
-0.001821014551
-0.001983931029
-0.001492898316
-0.0009112066488
-0.00109173002
-0.001715466658
-0.002674861358
-0.00415705946
-0.005808162069
-0.00710492467
-0.007185760656
-0.006329007693
-0.005346625164
-0.005398288942
-0.006934422845
-0.009812585677
-0.01342132502
-0.01673871187
-0.01900165379
-0.02000234533
-0.02016979485
-0.02015275265
-0.02044115347
-0.02151990773
-0.02320108658
-0.02495417666
-0.02557170685
-0.02448886882
-0.0224241806
-0.02116798898
-0.02216832152
-0.02531525648
-0.02885358854
-0.03055001565
-0.02913653383
-0.02499088388
-0.01993495565
-0.0158971733
-0.01367251272
-0.0122931314
-0.01016188869
-0.006518513649
-0.001904070425
0.00272003032
0.007093434486
0.01156007427
0.01713563189
0.02448771372
0.03348548658
0.04415185882
0.05644230761
0.0669980175
0.06976623256
0.06613687372
0.06507018093
0.06340507278
0.04991144726
0.03126827341
0.01959626265
0.01060390075
-0.00325573085
-0.01467011869
-0.01824981436
-0.0149376386
-0.009773365689
-0.02383581903
-0.04216162507
-0.05074390478
-0.0550353964
-0.03363431114
-0.01280539671
-0.05233888857
-0.008317347131
-0.04828358755
-0.04292336379
-0.03406465722
-0.01582431083
-0.0541693238
-0.01059531721
-0.01397922786
0.006371464785
-2.703125193e-06
-4.225017334e-11
0
0
2.953257012e-09
)


101
(
0
0.02738126464
0.02263156474
-0.001700987428
-0.01006150684
-0.00324153466
-0.001331144083
-0.002308443611
-0.0008880421086
-0.001022684366
-0.002400807673
-0.002296750278
-0.0008276640643
8.828452376e-06
-0.0008210153549
-0.002004610041
-0.002758089685
-0.002200605417
-0.001611322369
-0.001614769482
-0.002286502456
-0.003290095799
-0.004799765705
-0.006641974923
-0.008259897667
-0.009009004605
-0.008692438053
-0.007716995602
-0.007301951756
-0.008372684087
-0.01111345043
-0.0149418475
-0.0187506802
-0.02160624932
-0.02314875142
-0.02363585888
-0.02358070461
-0.02368829063
-0.02412410235
-0.02523494267
-0.02671967941
-0.02778444105
-0.02751885491
-0.02596766959
-0.02423440855
-0.02393963089
-0.02548811874
-0.02794782636
-0.02933178325
-0.02806363603
-0.02352091821
-0.01690679899
-0.01015166618
-0.005011707482
-0.001536272427
0.001989639546
0.006845259689
0.01286710385
0.01897992466
0.02435589162
0.02927595827
0.034837579
0.04178211212
0.04963788872
0.05770338489
0.06656843603
0.07595402636
0.08032442391
0.07506290216
0.06672357297
0.06007140144
0.04688940629
0.02705274452
0.01122856728
0.0002635431825
-0.01318796465
-0.02550302574
-0.0348912536
-0.03882537905
-0.03036224899
-0.03635994694
-0.0547553772
-0.06081187265
-0.04756364429
-0.003794255649
0.05234710858
-0.04539438009
0.09052720716
-0.08007801184
-0.02592617982
-0.03509736598
-0.04992631567
-0.04300701175
-0.05876263555
-0.05270662518
-0.03744877326
-1.069099284e-05
-1.323506535e-14
0
0
3.595720975e-09
)


101
(
0
0.03004694948
0.02295582068
-1.544698473e-05
-0.01075991077
-0.002337971656
-0.002194231681
-0.002336723618
-0.001620570694
-0.001474651518
-0.002425759173
-0.002765416089
-0.001603902172
-0.0002778373281
-0.0007208357798
-0.002587808538
-0.003412398915
-0.002969581926
-0.002337643494
-0.002391576592
-0.002929128719
-0.004075302159
-0.005528803254
-0.007484312493
-0.009602561492
-0.01101172175
-0.01119358643
-0.01045686772
-0.009827297974
-0.01034078886
-0.0126995562
-0.01648780293
-0.02056764601
-0.02393344437
-0.02588411609
-0.02664080625
-0.02675276355
-0.02655271603
-0.02647433081
-0.02669132387
-0.02739406431
-0.02808524458
-0.02815873354
-0.02708833453
-0.02544767681
-0.02433714177
-0.02435406678
-0.02515406573
-0.02524915937
-0.02316794019
-0.01817770859
-0.01055885846
-0.001899704432
0.005930298509
0.01191905955
0.01689638031
0.02262487687
0.02958882887
0.03670157499
0.04248434598
0.04682923991
0.05097405236
0.05629912521
0.06223819405
0.06665980032
0.06888307711
0.07132514271
0.07326051697
0.06796548931
0.05485359683
0.04128244743
0.02678837172
0.00891040332
-0.006233482725
-0.01521294289
-0.02364433317
-0.03063706493
-0.03906590969
-0.05012898129
-0.04683874753
-0.04600607268
-0.05611170515
-0.05037193613
-0.0142505132
0.03492492528
0.1090803977
-0.02848692959
0.1645291884
-0.05896288953
0.0365902258
0.076457852
-0.06336444586
0.08628668967
-0.03541728921
-0.074306913
-0.1134187092
-2.708725588e-05
-1.916113181e-10
0
0
4.322451635e-09
)


101
(
0
0.02888444268
0.02831903719
-0.001808612607
-0.01161946887
-0.00440024236
-0.001545978635
-0.003100989196
-0.001523799579
-0.001377674459
-0.002814463292
-0.003352741208
-0.001985997714
-0.0007625878433
-0.001158350409
-0.002675431608
-0.003898406963
-0.003946431076
-0.003355871095
-0.003172834959
-0.003898873026
-0.004940238007
-0.006462506508
-0.008467807941
-0.010712808
-0.0127438865
-0.01366828471
-0.01347699725
-0.01270982097
-0.01278204881
-0.01454335364
-0.0180169978
-0.02228160484
-0.02586066679
-0.02807148591
-0.02896242378
-0.02902310601
-0.02880097068
-0.02829401211
-0.02764069489
-0.02701737478
-0.02663831617
-0.02614916647
-0.02518434057
-0.02371751606
-0.0222316866
-0.02124493622
-0.02033877632
-0.01858379393
-0.01486855027
-0.008713195639
-0.0003653589073
0.009415113627
0.01893089482
0.02686158224
0.03319455406
0.03918280611
0.04602584415
0.05304111309
0.05845651224
0.06119669654
0.06237000859
0.06431669447
0.06758831856
0.06916311675
0.06533799176
0.05789396431
0.05236526367
0.04632728104
0.03313830248
0.01565937436
-0.0005511304067
-0.0152980759
-0.02677240182
-0.03181302879
-0.03429985742
-0.03532919594
-0.03928553073
-0.05204291372
-0.05509066684
-0.04940216701
-0.04479026325
-0.01914854133
0.03850960162
0.0682328319
0.09398512626
-0.03896081507
0.06531848919
-0.03335047627
0.03375888986
0.173752754
-0.07749555337
0.2376432359
0.1322049477
0.094513331
-0.1668755016
-6.618889354e-05
-1.251847202e-09
0
0
5.153620063e-09
)


101
(
0
0.03257155812
0.0296648407
0.001664996553
-0.01320413271
-0.003637671393
-0.002485373017
-0.003022600494
-0.002144185698
-0.001674523882
-0.003005397089
-0.003740992927
-0.00292143141
-0.001349078802
-0.001465961806
-0.003107266973
-0.004815408197
-0.005075190746
-0.004567147567
-0.004342585179
-0.004899459133
-0.006152403203
-0.007564814695
-0.009556122106
-0.0119371691
-0.01437261366
-0.01603250534
-0.01632056175
-0.01586624743
-0.01548021361
-0.0167127062
-0.01975638185
-0.02378006923
-0.02752996689
-0.02976785555
-0.03044470565
-0.03034425755
-0.02992081712
-0.02917764454
-0.02780576512
-0.02579631863
-0.02372217333
-0.02182252501
-0.02004156198
-0.01833041787
-0.01671634652
-0.01520789867
-0.01322630629
-0.009821456371
-0.004143953939
0.00378353261
0.01333138303
0.02357079428
0.0334961514
0.04214449992
0.04902075798
0.05475933333
0.06025054298
0.06571154867
0.06959688233
0.06999432671
0.06708102917
0.06382315039
0.0629626857
0.06257951072
0.05611333211
0.04096124716
0.02555027164
0.01620112964
0.006215166615
-0.009649134795
-0.02575380516
-0.03710420528
-0.04373784976
-0.04474247387
-0.04282176065
-0.040512733
-0.04154477285
-0.05200549419
-0.05669309157
-0.04465408045
-0.02180895581
0.02370758152
0.09005718085
0.08174403271
0.04627313755
-0.05002300131
-0.06648407271
0.02374044156
0.006165885882
0.009459724959
-0.08481056178
0.08396743414
0.1619871229
0.2334715816
-0.02038458213
-0.0001877531558
-1.386703281e-09
0
0
6.014299884e-09
)


101
(
0
0.03521096376
0.03255444143
0.0009876591563
-0.01372183903
-0.005213356847
-0.002744176749
-0.003602124504
-0.002176920307
-0.001545668319
-0.003218959451
-0.004446342677
-0.003655316051
-0.002083134843
-0.001639877732
-0.003601483471
-0.005520386018
-0.006279351204
-0.005770908318
-0.005535229453
-0.006201320652
-0.007410745879
-0.008970668819
-0.01084607291
-0.01329189054
-0.0159194834
-0.01810138823
-0.01926102791
-0.01906982398
-0.01852285554
-0.01896508039
-0.02135889264
-0.02519343971
-0.0288281
-0.03084208515
-0.03110638344
-0.03039889328
-0.02953570302
-0.02850581071
-0.02663249685
-0.02360228856
-0.01964684957
-0.01564146878
-0.01215384693
-0.009426772302
-0.007408940895
-0.005690125035
-0.003383988226
0.0008642169795
0.007945012917
0.01766758802
0.02869765821
0.03938054503
0.04877734038
0.05651870911
0.06265557245
0.06719882985
0.07060500736
0.07322120064
0.07426750613
0.07178365262
0.06476899991
0.05552230628
0.04884076861
0.04621638285
0.04062125702
0.02343077473
0.000186992447
-0.01460746253
-0.02105967876
-0.03070220241
-0.04380521569
-0.05236920869
-0.05498091508
-0.053120829
-0.04872211874
-0.04480051085
-0.04437891863
-0.05045026881
-0.05085163591
-0.03024726613
0.008498710777
0.06399856741
0.1202366269
0.06708365867
-0.006129566139
-0.06278705298
-0.1400603409
0.0732668142
0.1278806395
-0.1362136652
-0.005652048745
-0.1011719465
0.01579354787
0.01942914908
0.3653261696
-0.000284921367
-5.248019426e-09
0
0
6.990766635e-09
)


101
(
0
0.03469118724
0.03628167952
0.0008665878266
-0.01435248139
-0.005068334195
-0.002475996802
-0.004260497553
-0.002807793207
-0.002230261634
-0.003637860877
-0.005133588471
-0.004524084852
-0.002743059111
-0.002411023417
-0.003987258154
-0.00635137565
-0.007432920669
-0.007363498606
-0.007146726619
-0.007602999864
-0.008915270349
-0.01056673885
-0.01246538975
-0.01473610521
-0.01733194802
-0.019910925
-0.02162571658
-0.02198153925
-0.02146358346
-0.02134451698
-0.02289319993
-0.02617091868
-0.0296255466
-0.03142512886
-0.03097030275
-0.02918400542
-0.0273231036
-0.02574042422
-0.02368506546
-0.01997323636
-0.01453618138
-0.00824523902
-0.002366261571
0.002260279961
0.005330535395
0.007218546087
0.009287431178
0.01325439596
0.0205447284
0.03108336727
0.04329496864
0.05459945882
0.06307396627
0.06865870552
0.07224698546
0.07449000479
0.07530749372
0.07459904299
0.07200204656
0.06642858164
0.05612325409
0.04186145838
0.02889239795
0.02278453822
0.01950331025
0.006205774048
-0.01924378348
-0.03968921099
-0.04477656389
-0.04649790871
-0.05413316861
-0.0608236185
-0.06181011586
-0.0590625225
-0.05381992367
-0.04792366852
-0.04421675704
-0.04292343093
-0.0337059198
-0.005187925934
0.03885797244
0.08820247555
0.1181669851
0.03734803499
-0.05598412395
-0.07286551
-0.116360575
0.03555211344
0.2198425413
-0.1481392415
0.1619842785
-0.1813719301
-0.04464818902
-0.1315553419
0.4705453719
-0.0003421149964
-2.670228029e-09
0
0
8.043180951e-09
)


101
(
0
0.03968139003
0.03569672934
0.004644931907
-0.01563955641
-0.006661362232
-0.003694454463
-0.004450051067
-0.003310295086
-0.002525604534
-0.003899190217
-0.005421360537
-0.005303596645
-0.003886862949
-0.003134851368
-0.00450954681
-0.007088041448
-0.008862792957
-0.008983452239
-0.008770496819
-0.009300222394
-0.01053890244
-0.01227800639
-0.0141707218
-0.01627746646
-0.01879152744
-0.02143539629
-0.02354426387
-0.02445566086
-0.02410945291
-0.02340850333
-0.02403622303
-0.02650209031
-0.02967862108
-0.03125255844
-0.03010677456
-0.02680344338
-0.02343877767
-0.02086480849
-0.01833759884
-0.0144544106
-0.008175543622
-0.0001113213407
0.008373645834
0.0155371463
0.02023992825
0.02270252138
0.02430062518
0.02705259253
0.03292319889
0.04265717467
0.05478780573
0.06628004767
0.07407506351
0.07706603457
0.07686384988
0.07536335417
0.07308313739
0.06917897861
0.06316129295
0.05467957603
0.04242446094
0.02555028793
0.007870727371
-0.002620452532
-0.004243423853
-0.01015611728
-0.03138074852
-0.05519045334
-0.06225675921
-0.05830273345
-0.05942224122
-0.06451697836
-0.06606975442
-0.06414542965
-0.05895890504
-0.0498504538
-0.03926995013
-0.0268463541
-0.003603697292
0.02988363493
0.06244840634
0.0889550662
0.08643166133
0.005723061749
-0.0965659002
-0.08783191971
-0.01199904278
0.01458389673
0.1082630003
-0.1374427341
0.2996051616
-0.1500143857
0.0003612863764
-0.1141234362
0.1815948698
-0.0002602025016
-1.225621949e-10
0
0
9.20366393e-09
)


101
(
0
0.03937125938
0.04167956012
0.003921122248
-0.01647122301
-0.007377468067
-0.002765612923
-0.005021197842
-0.003864009476
-0.002816985562
-0.003946109027
-0.006230194988
-0.006601556603
-0.004998662502
-0.004017319244
-0.005171226348
-0.007971199252
-0.01013041185
-0.01088505343
-0.01078969866
-0.01106842998
-0.01237047518
-0.01419410467
-0.01611877642
-0.01811533903
-0.02031951083
-0.02258554688
-0.02485799335
-0.02629497999
-0.02611577399
-0.02503782615
-0.02457415054
-0.0260649163
-0.02864616602
-0.03011883152
-0.02826814799
-0.02360617207
-0.01806620793
-0.01366079414
-0.01038350812
-0.006461089166
-0.0002111296035
0.008822960186
0.01930277985
0.02893953063
0.03590565845
0.03941272819
0.0404971898
0.04144217331
0.04472296434
0.0516627325
0.06169917918
0.07219506473
0.07912477407
0.08009739787
0.07591475986
0.06971421154
0.06348940344
0.05679235411
0.04837860114
0.03803229056
0.02526477351
0.008639958042
-0.01063407042
-0.02482220369
-0.02682243617
-0.02514643615
-0.03728964453
-0.06039059507
-0.07196727318
-0.06738537429
-0.06360058404
-0.06677123452
-0.06918699224
-0.06779856644
-0.0618555856
-0.04826718965
-0.02874961738
-0.004507324093
0.03359123739
0.0699195116
0.07624742757
0.0673872822
0.03664896483
-0.02522922855
-0.1133828962
-0.09927790048
0.07314311728
0.100812876
-0.06670782111
-0.1549273501
0.2968925038
-0.02143640383
0.03238992032
-0.03194718153
-0.1393021475
-8.818188244e-05
1.358653493e-11
0
0
1.035234882e-08
)


101
(
0
0.04331894895
0.04523739218
0.006063820853
-0.01735406289
-0.007376898849
-0.003990991043
-0.005463483053
-0.004648338668
-0.003302619374
-0.004699716446
-0.006735666268
-0.007339498436
-0.006200960385
-0.005087990625
-0.006105128751
-0.008863810038