/*--------------------------------*- C++ -*----------------------------------*\
| =========                 |                                                 |
| \\      /  F ield         | OpenFOAM: The Open Source CFD Toolbox           |
|  \\    /   O peration     | Version:  2.3.1                                 |
|   \\  /    A nd           | Web:      www.OpenFOAM.org                      |
|    \\/     M anipulation  |                                                 |
\*---------------------------------------------------------------------------*/
FoamFile
{
    version     2.0;
    format      ascii;
    class       dictionary;
    location    "constant";
    object      la_r16;
}
// * * * * * * * * * * * * * * * * * * * * * * * * * * * * * * * * * * * * * //

la_r16_table
101
(

101
(
1.761966124e-14
-7.52698651e-08
-7.088598248e-06
-7.274816538e-05
-0.000314948404
-0.0008762799847
-0.001889273782
-0.003424176608
-0.00550899038
-0.008102521541
-0.01112699096
-0.01444443517
-0.01792140207
-0.02131914288
-0.0244745061
-0.02721462342
-0.02936091027
-0.03077162052
-0.03147760699
-0.03136637476
-0.03056814556
-0.02915728263
-0.02729511921
-0.02511390084
-0.02273594873
-0.0202898263
-0.01788187686
-0.0155763607
-0.0134485682
-0.01151071739
-0.009780722497
-0.008240693631
-0.006835452575
-0.005737477067
-0.00476689142
-0.003940097477
-0.003064231553
-0.002230481557
-0.001819866979
-0.001493621882
-0.001227620077
-0.0009920914851
-0.0008028419486
-0.0006467321479
-0.0005139918749
-0.0004080470713
-0.0003201149436
-0.0002507862751
-0.0001944334851
-0.0001503620131
-0.0001150112354
-8.730695163e-05
-6.572965057e-05
-4.902337968e-05
-3.60593568e-05
-2.608512347e-05
-1.897551491e-05
-1.340382269e-05
-9.453954198e-06
-6.524754594e-06
-4.502606571e-06
-3.01827574e-06
-1.980110947e-06
-1.278864251e-06
-8.167875634e-07
-5.035286263e-07
-3.016200477e-07
-1.768105896e-07
-1.019305457e-07
-5.607134322e-08
-3.021298461e-08
-1.555303161e-08
-7.886933305e-09
-3.850514981e-09
-1.88510237e-09
-8.683366453e-10
-3.512476223e-10
-1.377100121e-10
-5.082856542e-11
-1.760358816e-11
-5.094343477e-12
-1.53967244e-12
-3.805024381e-13
-4.048510673e-14
3.149546844e-14
1.346437056e-14
5.079378564e-15
1.649381776e-15
4.48523718e-16
6.726702065e-16
1.922495797e-16
3.688307312e-17
7.222113397e-18
3.165223975e-18
9.891947335e-19
5.683931401e-20
-2.142699668e-25
1.858882173e-42
1.31804834e-35
1.384117607e-35
-2.414598055e-43
)


101
(
8.731304788e-15
-7.109639994e-09
-6.61253844e-06
-7.188212165e-05
-0.0003190193799
-0.0008979808174
-0.001942982596
-0.003562476519
-0.005798453109
-0.008634067129
-0.01200549171
-0.01578864061
-0.01984884083
-0.02394589754
-0.02788373636
-0.03146532874
-0.03446855093
-0.03664485315
-0.03809858063
-0.03849731076
-0.03804926659
-0.03687035771
-0.03497707558
-0.03255665187
-0.02980115772
-0.02687127136
-0.02390501601
-0.02100521016
-0.01826766684
-0.0157402736
-0.01345598754
-0.01141212592
-0.009553965635
-0.008008643786
-0.006684751446
-0.005559097729
-0.004622089534
-0.003923975597
-0.003295517804
-0.002716272552
-0.002221189512
-0.001796078156
-0.001445538748
-0.001160564781
-0.0009250320069
-0.0007339927001
-0.00057833763
-0.0004532143077
-0.0003527043992
-0.0002729703063
-0.0002098007829
-0.0001600943565
-0.000121295261
-9.10600529e-05
-6.759714259e-05
-4.953595219e-05
-3.608334741e-05
-2.599244299e-05
-1.852603003e-05
-1.30457116e-05
-9.093655859e-06
-6.251329953e-06
-4.221095465e-06
-2.800342549e-06
-1.823295323e-06
-1.166128406e-06
-7.292888114e-07
-4.458104927e-07
-2.659220721e-07
-1.530147562e-07
-8.499592324e-08
-4.574497226e-08
-2.405402285e-08
-1.189162024e-08
-5.435493293e-09
-2.337690852e-09
-9.002251094e-10
-3.11167682e-10
-9.149764494e-11
-1.434424361e-11
7.384105436e-12
9.775568174e-12
5.767956513e-12
3.033586755e-12
1.377884673e-12
4.558418449e-13
9.77673176e-14
6.645553226e-15
8.702345578e-15
3.234374205e-15
4.694992403e-16
6.869305969e-17
1.889421055e-18
1.87897293e-18
-1.931858478e-18
-7.620511341e-19
-1.169107353e-19
-3.686935728e-19
-1.087588834e-18
-6.508099635e-18
-7.635686396e-18
)


101
(
5.892682115e-16
6.10182641e-08
-6.003260047e-06
-6.902482499e-05
-0.0003103573636
-0.0008771068466
-0.001899001414
-0.003489328625
-0.005692126713
-0.008496524311
-0.01184522764
-0.01562482082
-0.01970855187
-0.02387450003
-0.02793049964
-0.03168404901
-0.03491911803
-0.03738882482
-0.03914028365
-0.0399035582
-0.03978030687
-0.03888666265
-0.03725647265
-0.03502775332
-0.03238301895
-0.02948894328
-0.02648976267
-0.02350169848
-0.02063005426
-0.01794047065
-0.01547804727
-0.01325631042
-0.01123928466
-0.009499074322
-0.007994001146
-0.006703702874
-0.005623027986
-0.004750739044
-0.004032159241
-0.00339155723
-0.002817660438
-0.002312643059
-0.001885169156
-0.001531294886
-0.001239047775
-0.0009997576227
-0.0008035249861
-0.0006429393702
-0.0005117280431
-0.0004052313143
-0.0003191873946
-0.0002501760471
-0.0001952146383
-0.0001514895741
-0.000116672271
-8.909901606e-05
-6.750984602e-05
-5.08004516e-05
-3.794593375e-05
-2.80990828e-05
-2.066605006e-05
-1.50610473e-05
-1.084772354e-05
-7.729101872e-06
-5.434965178e-06
-3.766491825e-06
-2.569972411e-06
-1.725685735e-06
-1.144516629e-06
-7.40438944e-07
-4.65943865e-07
-2.853251201e-07
-1.724116097e-07
-1.010698241e-07
-5.672773631e-08
-3.042994686e-08
-1.552278047e-08
-7.589303154e-09
-3.614552897e-09
-1.665561719e-09
-7.169447688e-10
-2.636250496e-10
-8.914581874e-11
-2.350547987e-11
-1.017219915e-12
2.898935406e-12
1.891342952e-12
2.179287465e-13
5.827634677e-14
7.614322721e-14
2.535595215e-14
-3.202510447e-16
-2.179449945e-15
-1.100478651e-15
-5.00152097e-16
-1.603702376e-16
-2.19793158e-17
-1.535876157e-16
-6.578933476e-16
-5.615019895e-15
4.762788847e-13
)


101
(
-6.836635883e-15
1.263188408e-07
-5.361366874e-06
-6.553073132e-05
-0.0002977991669
-0.0008444801348
-0.001831282308
-0.003370426652
-0.00550893336
-0.008241713464
-0.01151965643
-0.01524123891
-0.01929028687
-0.02346492641
-0.0275812837
-0.03145389418
-0.03487572775
-0.03760962361
-0.03964683842
-0.0407734779
-0.04100989217
-0.04044897561
-0.03913988955
-0.03718436313
-0.03474255131
-0.03197829389
-0.02903765399
-0.02604466202
-0.02311293609
-0.02032179357
-0.01772841509
-0.01536167436
-0.01320396727
-0.01130415503
-0.009632936223
-0.008167869955
-0.006937577028
-0.005892368197
-0.005027450925
-0.004292204778
-0.003637825131
-0.003050355952
-0.002538654368
-0.002102694172
-0.001736115635
-0.001431948844
-0.001179231396
-0.0009691423382
-0.0007935748107
-0.0006474422739
-0.0005258322248
-0.0004254740617
-0.0003433235178
-0.0002761782335
-0.0002210848913
-0.0001760446964
-0.0001392565306
-0.0001095229935
-8.564795224e-05
-6.645175289e-05
-5.129989442e-05
-3.93608406e-05
-2.99426238e-05
-2.261072362e-05
-1.690392624e-05
-1.246381163e-05
-9.081471505e-06
-6.522357338e-06
-4.648026293e-06
-3.267548128e-06
-2.245552342e-06
-1.510783417e-06
-1.001626168e-06
-6.524935975e-07
-4.141362681e-07
-2.553776182e-07
-1.517284876e-07
-8.752211575e-08
-4.897439853e-08
-2.694934058e-08
-1.449285749e-08
-7.310315695e-09
-3.531038143e-09
-1.647964909e-09
-7.057441713e-10
-2.735803889e-10
-9.348401025e-11
-3.849770266e-11
-1.732895097e-11
-6.103894515e-12
-1.566681761e-12
-6.533480604e-13
-2.687074458e-13
-1.147449567e-13
-4.932836046e-14
-1.489726669e-14
-2.21358907e-15
-3.085802641e-14
-1.456351868e-13
-1.225047979e-12
-2.908526869e-12
)


101
(
-1.357638137e-14
1.876173728e-07
-4.727233634e-06
-6.189722244e-05
-0.000284277106
-0.0008092014974
-0.001758984841
-0.003243673893
-0.005313618586
-0.007969445388
-0.01117016338
-0.01482550489
-0.01882963223
-0.02299941329
-0.02716033498
-0.03113464575
-0.03472476569
-0.03770455812
-0.04002258265
-0.04150195363
-0.04211072761
-0.04191008633
-0.04095363441
-0.03931842447
-0.03713977655
-0.03457177172
-0.03175755423
-0.02882410811
-0.02589085959
-0.02304759033
-0.02036194371
-0.0178764056
-0.01558985472
-0.01354898404
-0.01172505449
-0.01011216348
-0.008704144718
-0.007482088765
-0.006445903775
-0.005569249209
-0.004804284672
-0.004117733888
-0.003508310221
-0.002974194491
-0.002512462472
-0.002120600051
-0.001788942727
-0.001508582251
-0.001269424821
-0.001065611791
-0.0008911007339
-0.0007425012925
-0.0006171583242
-0.0005120933784
-0.0004235639303
-0.0003485743419
-0.0002856656891
-0.0002329718214
-0.0001891699021
-0.0001523770898
-0.000122140514
-9.750730529e-05
-7.728516087e-05
-6.096232075e-05
-4.777919414e-05
-3.698288466e-05
-2.832447803e-05
-2.14622108e-05
-1.612709443e-05
-1.20465111e-05
-8.824690441e-06
-6.364798164e-06
-4.521183611e-06
-3.174341156e-06
-2.190961915e-06
-1.484567728e-06
-9.778509197e-07
-6.29435985e-07
-3.941610392e-07
-2.424749424e-07
-1.471012465e-07
-8.642539942e-08
-4.863799963e-08
-2.686085532e-08
-1.423930742e-08
-7.132484384e-09
-3.328734027e-09
-1.543402029e-09
-7.33373842e-10
-3.386406181e-10
-1.335657892e-10
-5.409042736e-11
-2.252459969e-11
-8.755271859e-12
-3.719142256e-12
-1.189006264e-12
-2.20690935e-13
-2.847442069e-12
-1.285825022e-11
-1.098538601e-10
-2.576673657e-10
)


101
(
-1.965974186e-14
2.444706414e-07
-4.116716183e-06
-5.830507438e-05
-0.0002707560183
-0.0007739408648
-0.001687059763
-0.003117752427
-0.005119453831
-0.007698162726
-0.01082054029
-0.01440675734
-0.01836085157
-0.02251711952
-0.02671127199
-0.03077401953
-0.0345177535
-0.03772810405
-0.04032285683
-0.04214808977
-0.0431393164
-0.04332506193
-0.04275418402
-0.0414847426
-0.03962759616
-0.03732248597
-0.03470484588
-0.03189961897
-0.0290286353
-0.02618903562
-0.02345844082
-0.02088759899
-0.01849122466
-0.0163259075
-0.01436069494
-0.01259947803
-0.01102632214
-0.009625518444
-0.008403823032
-0.007354602071
-0.006442208344
-0.005628125649
-0.004900317363
-0.004249593012
-0.003671391131
-0.003166771073
-0.002729647884
-0.002354042894
-0.002028542901
-0.001745298128
-0.001496833265
-0.0012789751
-0.00108974141
-0.0009271903557
-0.0007875654376
-0.0006661284051
-0.000561197891
-0.0004709372381
-0.0003941323343
-0.0003275983715
-0.0002707345118
-0.000223237595
-0.0001828450834
-0.0001491698279
-0.0001212771812
-9.77488343e-05
-7.80730826e-05
-6.178741108e-05
-4.839249224e-05
-3.785994444e-05
-2.92269678e-05
-2.228958095e-05
-1.675484535e-05
-1.246234445e-05
-9.149111395e-06
-6.629532347e-06
-4.732284993e-06
-3.312140008e-06
-2.256120404e-06
-1.511178249e-06
-9.966778587e-07
-6.519260539e-07
-4.10635234e-07
-2.536471139e-07
-1.529225541e-07
-8.894243523e-08
-4.905295211e-08
-2.635928621e-08
-1.404332102e-08
-7.394535154e-09
-3.619206061e-09
-1.672605548e-09
-8.037212972e-10
-3.601840815e-10
-1.634673891e-10
-5.914729536e-11
-1.367872419e-11
-1.622149962e-10
-6.735549926e-10
-4.714795948e-09
-8.645366343e-09
)


101
(
-2.511623099e-14
2.967635237e-07
-3.535746648e-06
-5.481865286e-05
-0.000257548178
-0.0007394703337
-0.001616774181
-0.002994649775
-0.004929225863
-0.007431501736
-0.01047535142
-0.01399069573
-0.01789106896
-0.02202709717
-0.02624543892
-0.03038601846
-0.034271755
-0.03770059825
-0.04056926828
-0.04273756462
-0.04412110246
-0.04471849392
-0.04456756636
-0.04370944004
-0.04223132735
-0.04025615921
-0.03790787988
-0.0353044213
-0.03256582833
-0.02979319858
-0.02707239037
-0.0244616606
-0.0219860385
-0.01971772195
-0.01762819481
-0.01572626478
-0.01399693887
-0.01242339898
-0.01101371478
-0.009774388598
-0.008684805812
-0.007710555658
-0.006837299486
-0.006048005029
-0.005331914858
-0.004690207041
-0.00411985895
-0.003620935025
-0.003182726863
-0.002794895955
-0.002449051203
-0.002138287191
-0.001861241874
-0.001617225533
-0.001404316246
-0.001215405099
-0.00104798625
-0.0009006386793
-0.0007720018856
-0.0006582592887
-0.0005589338191
-0.0004736389716
-0.0003992846652
-0.0003350747807
-0.0002804467351
-0.0002335147669
-0.000193020347
-0.0001584239733
-0.0001288355229
-0.0001042967616
-8.386732456e-05
-6.688877895e-05
-5.279412802e-05
-4.123970508e-05
-3.185207238e-05
-2.43231483e-05
-1.842701392e-05
-1.375017103e-05
-1.005816967e-05
-7.231957869e-06
-5.11441864e-06
-3.598613457e-06
-2.47853397e-06
-1.667098862e-06
-1.106632701e-06
-7.144642867e-07
-4.461450574e-07
-2.685480409e-07
-1.605240303e-07
-9.426289252e-08
-5.317172818e-08
-2.825948129e-08
-1.525613548e-08
-7.895118687e-09
-4.002551267e-09
-1.745830588e-09
-5.063567639e-10
-4.934135125e-09
-1.843487897e-08
-1.042754707e-07
-2.009115826e-07
)


101
(
-2.997509253e-14
3.445295125e-07
-2.986232541e-06
-5.145959286e-05
-0.0002447501374
-0.0007060031556
-0.001548438982
-0.00287481153
-0.004743555434
-0.007170328356
-0.01013585552
-0.01357923597
-0.0174231915
-0.02153372966
-0.02576901602
-0.02997886545
-0.03399725256
-0.03763486388
-0.04077515678
-0.04328597501
-0.04507104395
-0.0461032894
-0.04640581021
-0.04600339391
-0.04495993517
-0.04338034373
-0.04137492206
-0.0390505173
-0.03652065607
-0.03388627431
-0.03123923741
-0.02864508264
-0.02613482144
-0.02379569996
-0.0216070722
-0.01958291424
-0.017711239
-0.01597635579
-0.01438690524
-0.01295324912
-0.0116691965
-0.01050746576
-0.009460748851
-0.008508545826
-0.007633314023
-0.006833298986
-0.006104667532
-0.005453217154
-0.004873075114
-0.004352726031
-0.003882846374
-0.003452745336
-0.003062136406
-0.002710494797
-0.002397561186
-0.002115799528
-0.001862012759
-0.00163356988
-0.00142997266
-0.00124587262
-0.001081354822
-0.0009371198971
-0.0008088236993
-0.0006959637783
-0.0005971265492
-0.000510650093
-0.0004341110454
-0.0003673938791
-0.0003086131845
-0.0002579000556
-0.0002146097
-0.0001772583052
-0.0001454155431
-0.000118251368
-9.532949448e-05
-7.604099594e-05
-6.027561438e-05
-4.731444481e-05
-3.669923189e-05
-2.803124302e-05
-2.10658878e-05
-1.565904807e-05
-1.1563337e-05
-8.339341418e-06
-5.955618435e-06
-4.169995352e-06
-2.855371382e-06
-1.890123499e-06
-1.241256325e-06
-7.989613491e-07
-5.000935614e-07
-2.993262665e-07
-1.806615804e-07
-1.05646623e-07
-6.014070461e-08
-3.113910401e-08
-1.128498697e-08
-8.330846529e-08
-2.774810254e-07
-1.298405592e-06
-2.765817312e-06
)


101
(
-3.426528369e-14
3.878696346e-07
-2.468447815e-06
-4.823389152e-05
-0.0002323875183
-0.0006735886617
-0.001482116196
-0.002758323918
-0.004562597739
-0.006914942414
-0.009802634197
-0.01317346744
-0.01695907773
-0.02104001252
-0.02528634161
-0.02955833517
-0.03370147969
-0.03753950858
-0.04094883961
-0.04380224587
-0.04599670391
-0.04748399612
-0.0482706246
-0.0483657527
-0.04780985891
-0.04668891278
-0.04509881857
-0.0431328348
-0.04089337428
-0.03847631249
-0.03597636364
-0.03346634306
-0.03098144489
-0.02861894698
-0.02636832011
-0.02425131488
-0.02225976737
-0.02038206702
-0.01863060192
-0.01701192229
-0.01553089519
-0.01417005764
-0.01292853589
-0.01178935349
-0.01073349823
-0.009756124393
-0.008849182317
-0.00802134545
-0.007273167311
-0.006592563969
-0.005968640871
-0.005391823766
-0.004860857572
-0.00437110167
-0.003929014755
-0.00352736718
-0.003158411154
-0.002820034404
-0.002514356306
-0.002233457069
-0.001977101536
-0.001747928443
-0.001538598209
-0.001351735597
-0.001184802204
-0.001036716108
-0.0009040590831
-0.0007849132947
-0.0006776285291
-0.0005810242964
-0.000496775952
-0.0004220131267
-0.0003576858643
-0.0003013657099
-0.0002517214751
-0.0002085184559
-0.0001715819861
-0.0001401321861
-0.0001135586474
-9.083093081e-05
-7.192669642e-05
-5.620518715e-05
-4.377463965e-05
-3.349011801e-05
-2.536852751e-05
-1.885054147e-05
-1.390705946e-05
-9.960628309e-06
-7.054818638e-06
-4.917808291e-06
-3.345134516e-06
-2.220441235e-06
-1.463428583e-06
-9.457708142e-07
-5.935520493e-07
-3.466839287e-07
-1.567275504e-07
-8.803936307e-07
-2.59621869e-06
-9.866161481e-06
-2.125498984e-05
)


101
(
-3.801545257e-14
4.269159978e-07
-1.982002056e-06
-4.514185419e-05
-0.000220462676
-0.0006422278759
-0.001417801275
-0.002645183589
-0.004386392067
-0.006665489149
-0.009476043737
-0.01277412959
-0.01650003493
-0.02054809297
-0.02480050302
-0.02912843747
-0.03338924701
-0.03741993211
-0.04109478999
-0.0442901734
-0.04689976642
-0.04885866283
-0.05015595382
-0.05078661441
-0.05076806468
-0.050166244
-0.04906188633
-0.0475334736
-0.04566899838
-0.04355429196
-0.04128219996
-0.03893204002
-0.03654440977
-0.03422206657
-0.03196015521
-0.02979281179
-0.02771894045
-0.02573154129
-0.02384923151
-0.02207059553
-0.02040461283
-0.0188442285
-0.01739926715
-0.0160579134
-0.01480574287
-0.01363755439
-0.01253881363
-0.01151978325
-0.01058161436
-0.009714445443
-0.008910863785
-0.008164081658
-0.007467837123
-0.006815086082
-0.006214549652
-0.005659392983
-0.005146570825
-0.004664520514
-0.004225413092
-0.003818443534
-0.003438271624
-0.003093857011
-0.002773587306
-0.002482085936
-0.002216504423
-0.001975595512
-0.001758126113
-0.001558273412
-0.0013755319
-0.001208453071
-0.001058664561
-0.0009231948223
-0.0008016010547
-0.0006933603564
-0.0005965801448
-0.000510392459
-0.0004333219038
-0.0003655832095
-0.0003072593516
-0.000255396151
-0.0002100878219
-0.0001717531913
-0.0001392756649
-0.0001122108009
-8.900730083e-05
-6.960555934e-05
-5.435287643e-05
-4.150422349e-05
-3.13017622e-05
-2.324747567e-05
-1.693068611e-05
-1.215515792e-05
-8.631900182e-06
-6.06318598e-06
-4.159068162e-06
-2.671020882e-06
-1.424977936e-06
-6.353442462e-06
-1.661750988e-05
-5.102301481e-05
-0.0001227695376
)


101
(
-4.125390075e-14
4.618147878e-07
-1.526242902e-06
-4.218175159e-05
-0.0002089704792
-0.0006119076748
-0.001355471006
-0.002535360883
-0.004214939079
-0.006422050515
-0.00915631854
-0.01238173076
-0.01604697012
-0.02005945865
-0.02431360147
-0.02869178536
-0.03306344204
-0.03727897868
-0.04121443285
-0.04474953184
-0.04777716228
-0.05022009824
-0.0520504171
-0.05324965888
-0.05381429768
-0.05378894239
-0.05323774624
-0.05222398162
-0.05081954316
-0.04909650731
-0.04713995846
-0.04503189406
-0.04282051073
-0.04061555742
-0.03841056143
-0.03625175399
-0.03414981549
-0.03210332223
-0.03013326753
-0.02823291922
-0.02641258336
-0.02467090412
-0.02303392349
-0.02149290391
-0.02004214225
-0.01868155373
-0.01738696978
-0.01616698118
-0.01502268086
-0.01395143851
-0.01294851882
-0.01201126327
-0.01113054988
-0.01029499154
-0.009503584059
-0.008768012642
-0.008083343879
-0.007430364074
-0.006826042741
-0.006262368891
-0.005725777619
-0.005228812929
-0.004764659051
-0.004333193298
-0.003931836225
-0.003558225369
-0.003221178669
-0.002906880029
-0.002617432906
-0.00234651762
-0.00209748546
-0.001867008794
-0.001657593061
-0.001467050597
-0.001293546248
-0.001133967893
-0.0009884985778
-0.0008580620692
-0.0007413132239
-0.0006357783618
-0.0005405242897
-0.0004577516741
-0.0003842641402
-0.0003214395274
-0.000265806101
-0.0002166310572
-0.0001763307691
-0.000141374049
-0.0001121024799
-8.810369267e-05
-6.772849287e-05
-5.17948431e-05
-3.917804428e-05
-2.93355488e-05
-2.164339839e-05
-1.5166659e-05
-9.268788313e-06
-3.286230693e-05
-7.684962044e-05
-0.0001978703785
-0.0003770894903
)


101
(
-4.40086081e-14
4.927181366e-07
-1.100401423e-06
-3.93510864e-05
-0.0001979033026
-0.0005826104993
-0.001295095741
-0.002428814945
-0.004048216891
-0.006184663838
-0.008843598064
-0.01199659977
-0.01560047333
-0.01957507791
-0.02382697002
-0.02824992061
-0.0327255077
-0.03711758936
-0.04130697157
-0.04517728504
-0.04862238017
-0.05155697753
-0.05393774731
-0.05573255961
-0.05692076604
-0.05752467691
-0.05758957529
-0.05716358261
-0.05630271922
-0.0550629685
-0.05351627556
-0.05174137725
-0.0497933512
-0.04779442923
-0.04573178816
-0.04365929331
-0.0415996786
-0.03955855069
-0.03755864428
-0.03559109542
-0.03366807634
-0.03178859219
-0.02999352369
-0.02827968634
-0.0266488728
-0.02510908699
-0.0236277819
-0.02220949445
-0.02085767532
-0.01957720067
-0.01836403594
-0.01722101955
-0.01614131757
-0.01510517153
-0.01410439933
-0.01317760166
-0.01229265863
-0.01144314653
-0.01063830599
-0.009889239084
-0.009167929803
-0.008485492557
-0.007839427342
-0.007227187124
-0.00665421737
-0.00611196252
-0.005606834179
-0.005138310173
-0.004701233226
-0.004286947045
-0.003900316908
-0.003535413862
-0.003196538341
-0.002882049402
-0.002590525558
-0.002317467379
-0.002065598117
-0.001836498057
-0.001621685035
-0.001425662353
-0.001246321568
-0.001084239742
-0.0009377439229
-0.0008078342123
-0.0006895527835
-0.0005816494489
-0.0004893553466
-0.0004085379287
-0.0003375529299
-0.0002764452248
-0.0002223924354
-0.0001788453832
-0.0001420489985
-0.0001122680482
-8.758541304e-05
-6.564212927e-05
-4.471164344e-05
-0.0001300276875
-0.0002738138971
-0.0006070581534
-0.001094235713
)


101
(
-4.630710981e-14
5.197808585e-07
-7.03670992e-07
-3.664710028e-05
-0.0001872527396
-0.000554317374
-0.001236642924
-0.002325498075
-0.003886188934
-0.005953333378
-0.008537945292
-0.01161892199
-0.01516088665
-0.01909550903
-0.02334133686
-0.0278035577
-0.03237584934
-0.03693540723
-0.0413701614
-0.04556859248
-0.0494264577
-0.05285449263
-0.05579633498
-0.05820602261
-0.06004908819
-0.06132646802
-0.06206416535
-0.06229467926
-0.06205895835
-0.06139541203
-0.06035873524
-0.05901940023
-0.05743602764
-0.0557436508
-0.05392321371
-0.05203237321
-0.05010237324
-0.04814573376
-0.04618899472
-0.04423115307
-0.04227961659
-0.04033049552
-0.03843393337
-0.03659699065
-0.03482469826
-0.03313460428
-0.03149571943
-0.02990737015
-0.02836892085
-0.02689500141
-0.0254768173
-0.02412703012
-0.02284596888
-0.0216055346
-0.02039664265
-0.01925847494
-0.01816295747
-0.01709237626
-0.01606638695
-0.01510212404
-0.01417102039
-0.01327384239
-0.01241539438
-0.01158728651
-0.01079570989
-0.01005160524
-0.009339752926
-0.008668632531
-0.008039604055
-0.007432950193
-0.006862663572
-0.006319920367
-0.005800003052
-0.005309959002
-0.004848694751
-0.004414968521
-0.004006689025
-0.003625128835
-0.003267705795
-0.002931005437
-0.002614867438
-0.002324795206
-0.002058743067
-0.00181241064
-0.001588424427
-0.001380135158
-0.001191095529
-0.001024040665
-0.0008719804597
-0.0007377570161
-0.0006173484558
-0.0005154499076
-0.0004254602471
-0.0003493310414
-0.0002854342946
-0.0002256741299
-0.0001670772797
-0.000411349875
-0.000785859228
-0.001531638791
-0.002478044341
)


101
(
-4.817650939e-14
5.431588863e-07
-3.35224318e-07
-3.406693556e-05
-0.0001770101421
-0.0005270088007
-0.001180078133
-0.002225356932
-0.003728807909
-0.005728041577
-0.008239362141
-0.0112487686
-0.01472835778
-0.01862098095
-0.02285694431
-0.02735276032
-0.03201413018
-0.03673133473
-0.04140103377
-0.04591774935
-0.05017910267
-0.05409550784
-0.0576005986
-0.0606360713
-0.06315644291
-0.06514233924
-0.06660124689
-0.06755008223
-0.06801637409
-0.06802041584
-0.06759670306
-0.06680339416
-0.06569939446
-0.06442794978
-0.06296240894
-0.06136291008
-0.05966634448
-0.05789214664
-0.05607307167
-0.05422165739
-0.0523394009
-0.05041551861
-0.04850303221
-0.04661800974
-0.04476739311
-0.04297864252
-0.04123068454
-0.03952194039
-0.03784659168
-0.03622725192
-0.0346318095
-0.03309025602
-0.03162851149
-0.030199433
-0.02879076149
-0.02743323677
-0.02613800675
-0.02484489311
-0.02359576385
-0.0223991439
-0.02124802803
-0.02011239771
-0.01900880143
-0.01793586009
-0.0169054726
-0.01591514194
-0.01495311898
-0.01403869743
-0.01315596174
-0.01231355666
-0.01150743391
-0.0107398427
-0.009984897287
-0.009260320064
-0.00856603941
-0.007902183612
-0.007275543988
-0.006688269095
-0.006117753008
-0.005579133962
-0.005060239141
-0.00457896337
-0.004125661786
-0.003696642664
-0.003303433901
-0.002935320973
-0.002587021928
-0.002272977176
-0.001982148266
-0.001720667915
-0.001481109837
-0.001271890762
-0.001080805469
-0.0009162982619
-0.0007726513365
-0.0006364897779
-0.000498767722
-0.001070120859
-0.001884249826
-0.003319658233
-0.005195043818
)


101
(
-4.964356295e-14
5.630073452e-07
5.78079549e-09
-3.160769949e-05
-0.0001671667831
-0.0005006650536
-0.001125365854
-0.002128333912
-0.003576015031
-0.00550875104
-0.007947808686
-0.01088612136
-0.01430289264
-0.01815150022
-0.02237371774
-0.02689716522
-0.0316394367
-0.0365035957
-0.04139588617
-0.0462182418
-0.05086945352
-0.05526264754
-0.05932470349
-0.06298758955
-0.0661985571
-0.06891930595
-0.07113879807
-0.07285769969
-0.07409218739
-0.07484770666
-0.07513933403
-0.07500719532
-0.0745028459
-0.0737753596
-0.07278872029
-0.07160524131
-0.07026494725
-0.06879361731
-0.06723311664
-0.06560730877
-0.06391557863
-0.06214046416
-0.0603310531
-0.05850438391
-0.05667036222
-0.05486672351
-0.05308275329
-0.05132252941
-0.04958361139
-0.04788574239
-0.04617344845
-0.04449205539
-0.04289908258
-0.04132086223
-0.03975311567
-0.03821941106
-0.03674517502
-0.0352643129
-0.03379137443
-0.03236629184
-0.03099714861
-0.02962730027
-0.02825353819
-0.02691900468
-0.02563431007
-0.02435891761
-0.0231263716
-0.02190837687
-0.02074542334
-0.01961428499
-0.01851064742
-0.01745814186
-0.01641264601
-0.01539540599
-0.01440096212
-0.01342666305
-0.01251317388
-0.01163090323
-0.01077354164
-0.009957223532
-0.009145895262
-0.008381208361
-0.007660329418
-0.006965659202
-0.006301470031
-0.005685410784
-0.005108406172
-0.004555005387
-0.004048637888
-0.003585069712
-0.003145823928
-0.002761811226
-0.002394593615
-0.002075412018
-0.001794186935
-0.001521610895
-0.001237325128
-0.002368402551
-0.003887416068
-0.00639313191
-0.01034552114
)


101
(
-5.073454178e-14
5.794810048e-07
3.202014555e-07
-2.926649383e-05
-0.0001577139374
-0.0004752663309
-0.00107246998
-0.002034368263
-0.003427742199
-0.005295408342
-0.007663225755
-0.01053089062
-0.01388439091
-0.01768693676
-0.02189141602
-0.02643621686
-0.03125049311
-0.03624976881
-0.04135013152
-0.0464615697
-0.05148480286
-0.05633761388
-0.06094385038
-0.06522689104
-0.06913163687
-0.07260431492
-0.07561403824
-0.07814355334
-0.08019947021
-0.08177792292
-0.08288071625
-0.08352647657
-0.08374589841
-0.08369179708
-0.08331602691
-0.08268572334
-0.08184211112
-0.08081551857
-0.07965857048
-0.07840196107
-0.0770496346
-0.07557053179
-0.07401062794
-0.07238560198
-0.07070631422
-0.06901340625
-0.06730274605
-0.06559616378
-0.0638880643
-0.06220136474
-0.06048247388
-0.0587606279
-0.05710757592
-0.05546067401
-0.05380927709
-0.05216784762
-0.05057260916
-0.04896484621
-0.04731698966
-0.04569623659
-0.04410406138
-0.0425246278
-0.04089974031
-0.03932435034
-0.03777706706
-0.036206495
-0.03466368301
-0.03313006251
-0.03165869672
-0.03018713532
-0.02872949535
-0.0273330205
-0.02592316669
-0.02455617475
-0.0231999574
-0.02182446786
-0.02051554698
-0.01922933556
-0.01800794916
-0.01679710508
-0.01559274073
-0.0144461307
-0.01332538256
-0.01225916825
-0.01123198327
-0.01023024648
-0.009303851772
-0.008406428599
-0.007561115484
-0.006787175115
-0.006034569694
-0.005369411865
-0.004738892942
-0.004170499908
-0.003670735468
-0.003173253477
-0.002648953894
-0.00466276082
-0.007283344671
-0.01143432443
-0.01601883917
)


101
(
-5.147521826e-14
5.927341699e-07
6.089245046e-07
-2.704041472e-05
-0.0001486429121
-0.0004507928663
-0.001021354092
-0.001943396782
-0.003283911876
-0.005087944588
-0.007385541383
-0.01018293922
-0.01347267365
-0.01722706623
-0.02140968332
-0.02596925943
-0.03084588389
-0.03596712898
-0.04125890222
-0.04663866822
-0.05201213077
-0.0573022077
-0.06243398108
-0.06732156268
-0.07191223333
-0.07614313375
-0.0799619633
-0.0833315603
-0.08625099979
-0.08871129829
-0.09070560561
-0.09223461925
-0.09330158776
-0.09405387991
-0.09442918998
-0.09450301737
-0.09431578891
-0.09389580288
-0.09330626947
-0.09258729651
-0.09173973814
-0.09072773226
-0.0895984472
-0.08835291578
-0.086998282
-0.08558234258
-0.08411079803
-0.08261900467
-0.08107106799
-0.07952540148
-0.07794823135
-0.07633915019
-0.07474645898
-0.07316061273
-0.07153640389
-0.06986371243
-0.06825218028
-0.06662324112
-0.06489039658
-0.06313487602
-0.06139270597
-0.05965308323
-0.05785212506
-0.0560925054
-0.0542632774
-0.05246551006
-0.05062417035
-0.04875097783
-0.04692645918
-0.04507034149
-0.04323846884
-0.04142920254
-0.03960191899
-0.03780964413
-0.036015626
-0.03417340219
-0.03231546365
-0.03054873466
-0.02880247863
-0.02707026655
-0.02537471604
-0.02370903457
-0.02201127043
-0.02042450159
-0.01887631742
-0.01735345986
-0.01590218646
-0.01451910845
-0.01316699564
-0.01191999578
-0.01071614016
-0.009608572893
-0.008590880388
-0.007639355024
-0.006804531174
-0.005971560593
-0.005090554083
-0.008427386927
-0.01273187551
-0.01963720112
-0.02823575771
)


101
(
-5.189084356e-14
6.029219203e-07
8.725509186e-07
-2.492654487e-05
-0.0001399449984
-0.0004272248601
-0.0009719814783
-0.001855354318
-0.003144434522
-0.004886268588
-0.007114674112
-0.0098421088
-0.01306751569
-0.01677158393
-0.02092802457
-0.02549545751
-0.03042406035
-0.03565294787
-0.04111785783
-0.04674196504
-0.05244033571
-0.05814061247
-0.06377258275
-0.06924109312
-0.07449768326
-0.07947903475
-0.08411346049
-0.08834199365
-0.09215726724
-0.09554712863
-0.09849585276
-0.1009931526
-0.103022552
-0.1047130225
-0.1059830797
-0.1069213641
-0.1075665588
-0.1079342846
-0.1080901418
-0.1080873268
-0.1079311249
-0.1075863521
-0.1070890164
-0.1064301572
-0.1056109269
-0.1046847803
-0.1036653307
-0.1025930808
-0.1014085159
-0.1001946452
-0.09894390665
-0.09764523239
-0.09630899552
-0.09496188089
-0.09355078586
-0.09201023646
-0.09052411171
-0.08899049913
-0.08733241111
-0.08558439316
-0.0838047444
-0.08199666699
-0.08014629881
-0.07828825904
-0.07627504387
-0.07431448914
-0.07218916909
-0.07001177726
-0.06782918171
-0.06564952235
-0.0634256242
-0.06114502122
-0.05884549448
-0.05654113264
-0.05418526899
-0.05179053178
-0.04939334661
-0.04694624559
-0.04451784825
-0.04211772249
-0.03979037024
-0.03738544911
-0.03497658991
-0.03264440108
-0.03037611683
-0.02811806317
-0.02588855703
-0.02381068549
-0.02173997026
-0.01979669267
-0.01797330278
-0.01619523579
-0.01459079449
-0.01310200573
-0.01173925368
-0.01040284569
-0.008990453958
-0.01438855214
-0.02144504545
-0.03317818744
-0.04923215153
)


101
(
-5.200612231e-14
6.101995109e-07
1.112190366e-06
-2.292198055e-05
-0.0001316115673
-0.0004045427248
-0.0009243157692
-0.001770175687
-0.003009211199
-0.004690262564
-0.006850536515
-0.009508244166
-0.01266868849
-0.01632014738
-0.02044581121
-0.0250136876
-0.02998312833
-0.03530417298
-0.04092266298
-0.046766517
-0.0527619447
-0.05884152728
-0.06494011344