/*--------------------------------*- C++ -*----------------------------------*\
| =========                 |                                                 |
| \\      /  F ield         | OpenFOAM: The Open Source CFD Toolbox           |
|  \\    /   O peration     | Version:  2.3.1                                 |
|   \\  /    A nd           | Web:      www.OpenFOAM.org                      |
|    \\/     M anipulation  |                                                 |
\*---------------------------------------------------------------------------*/
FoamFile
{
    version     2.0;
    format      ascii;
    class       dictionary;
    location    "constant";
    object      la_r13;
}
// * * * * * * * * * * * * * * * * * * * * * * * * * * * * * * * * * * * * * //

la_r13_table
101
(

101
(
-2.626163813e-07
-7.048675719e-05
-5.894048212e-05
7.31980112e-05
6.27311687e-05
7.759822891e-05
9.395408191e-05
3.045362884e-05
4.140620033e-05
-2.370246055e-06
1.364373366e-06
5.672178953e-06
7.778835263e-05
6.243791211e-06
-3.672541827e-06
-3.560514558e-06
-1.958731431e-06
-1.058037078e-06
-1.321162908e-06
-2.138222072e-06
-2.736827948e-06
-2.355887381e-06
-4.041966163e-05
-4.99685099e-06
-3.49347645e-07
-2.138348252e-09
-2.754211686e-07
-4.942991738e-07
-5.15910768e-07
-3.879780283e-07
-2.169153215e-07
-8.705301105e-08
-2.529361256e-08
-9.858297684e-09
-5.482001527e-09
-4.160975456e-07
-3.428163427e-06
-1.409137341e-06
-7.989365977e-08
-1.189259123e-05
-3.533845583e-06
-4.125984171e-07
8.736401804e-06
1.407361109e-07
-5.128176531e-06
-1.762741172e-06
-7.121776063e-07
-2.957035828e-07
-5.899335786e-08
1.012431317e-07
2.28069874e-07
3.602800041e-07
4.708271442e-07
4.24664242e-06
5.028855795e-06
2.290516613e-06
4.287278195e-06
4.598342763e-06
4.847947097e-06
4.364365329e-06
5.268917669e-06
5.511113329e-06
4.448644333e-06
5.79580627e-06
3.376418467e-06
3.57961214e-06
1.000946452e-06
3.106278495e-06
-2.324603978e-06
-1.456383333e-06
-8.589600485e-07
-2.871450997e-06
-1.264844293e-06
-1.874848784e-06
-3.168011001e-06
-2.660871567e-06
-4.421841301e-06
-3.187577028e-06
-3.195793196e-06
-2.645948944e-06
-2.238232809e-06
-2.413968286e-06
-2.38668803e-06
-2.38413002e-06
-2.35148645e-06
-1.630095337e-06
-1.423406453e-06
-8.749269684e-07
-4.218372216e-07
-3.564007074e-07
-2.412477866e-07
-1.236461842e-07
-4.22039904e-09
5.022151763e-10
2.528938784e-10
-3.631066133e-09
-6.033568289e-22
0
0
0
0
)


101
(
-2.627808303e-07
-6.894521362e-05
-5.883748368e-05
7.009016624e-05
6.2417112e-05
7.596556769e-05
9.2042327e-05
3.206689603e-05
4.016568459e-05
-4.966583041e-07
1.000986522e-06
5.095321814e-06
7.174255956e-05
1.088191786e-05
-2.505057012e-06
-3.52942518e-06
-2.145529042e-06
-1.095057147e-06
-1.14469544e-06
-1.877629875e-06
-2.574425508e-06
-2.703840867e-06
-3.768658582e-05
-9.050071985e-06
-1.491626016e-06
-1.367136431e-07
-2.275937431e-07
-5.302711023e-07
-6.894323725e-07
-6.430202718e-07
-4.628639748e-07
-2.571871227e-07
-1.079738802e-07
-4.763448981e-08
-5.96237595e-08
1.898202399e-06
2.068408123e-06
6.832689133e-07
1.682053489e-07
1.692836794e-06
6.373607419e-07
1.306605685e-07
-3.845734202e-07
-3.297251363e-08
-4.506560416e-08
-9.93381207e-08
-9.328558327e-08
-7.116285389e-08
-4.301637463e-08
-1.154301209e-08
2.107796388e-08
5.8611011e-08
1.072741778e-07
1.093754664e-06
1.649606689e-06
1.124655044e-06
1.723876096e-06
2.04092518e-06
2.304859467e-06
2.284394958e-06
2.708532621e-06
2.973195832e-06
2.694618429e-06
3.25935333e-06
2.413579711e-06
2.367550728e-06
1.226875589e-06
1.885997865e-06
-5.242127036e-07
-7.154035884e-07
-6.338868538e-07
-1.589949647e-06
-1.009025019e-06
-1.197743547e-06
-1.654496194e-06
-1.479388751e-06
-2.266682484e-06
-1.997138488e-06
-2.048569389e-06
-1.859367045e-06
-1.642518383e-06
-1.659074681e-06
-1.660027839e-06
-1.516479595e-06
-1.416495089e-06
-1.133294532e-06
-1.020111679e-06
-7.297338485e-07
-4.689055334e-07
-3.196301546e-07
-1.97057343e-07
-7.516817088e-08
-4.312973181e-08
-1.143716214e-09
8.194575678e-10
-6.163282191e-09
-4.026441198e-10
0
0
0
0
)


101
(
-2.629265519e-07
-6.76074427e-05
-6.001138246e-05
6.57208858e-05
6.322087997e-05
7.496438081e-05
9.044326491e-05
3.614419657e-05
3.889172871e-05
2.952806193e-06
5.264560306e-07
4.431696811e-06
6.236190603e-05
1.884202053e-05
1.817220355e-07
-3.327576524e-06
-2.510935169e-06
-1.242460568e-06
-8.621952128e-07
-1.353970519e-06
-2.118622666e-06
-2.599714141e-06
-2.883202858e-05
-1.446513187e-05
-4.072039076e-06
-7.291405656e-07
-1.208869136e-07
-3.026099287e-07
-5.611558145e-07
-6.587691608e-07
-5.754934549e-07
-3.863641493e-07
-1.889553924e-07
-5.567057672e-08
-9.268565611e-09
1.341853884e-06
2.022521844e-06
1.271177377e-06
5.363724078e-07
1.357808798e-06
1.099354269e-06
4.825830451e-07
-3.029963818e-07
-2.456658583e-07
4.400644536e-08
6.201115319e-08
7.900962174e-09
-2.721321396e-08
-4.038709822e-08
-3.768211453e-08
-2.662851587e-08
-1.324970604e-08
2.424580408e-09
2.82891821e-07
6.738681295e-07
7.62945808e-07
9.314492675e-07
1.176060614e-06
1.40156369e-06
1.529270239e-06
1.720610081e-06
1.947629475e-06
2.010293057e-06
2.204134071e-06
2.127021171e-06
2.011403262e-06
1.635075844e-06
1.549978472e-06
8.125285597e-07
6.461458317e-08
-3.132151057e-07
-7.714210614e-07
-8.643512161e-07
-8.43876526e-07
-9.761922473e-07
-1.035257273e-06
-1.32680948e-06
-1.516330493e-06
-1.621934072e-06
-1.649332723e-06
-1.563955383e-06
-1.45799073e-06
-1.386700011e-06
-1.314756468e-06
-1.251804182e-06
-1.13835553e-06
-1.033064722e-06
-8.217090135e-07
-6.665387838e-07
-4.915690622e-07
-3.029738926e-07
-1.065665004e-07
-8.334059327e-08
-4.225706577e-08
1.135135676e-08
1.23006058e-08
-2.58172302e-09
0
0
0
0
)


101
(
-2.63039006e-07
-6.628413708e-05
-6.110414184e-05
6.143539388e-05
6.379521413e-05
7.408916549e-05
8.894081557e-05
3.983888817e-05
3.813519036e-05
5.984736902e-06
4.512294945e-07
3.753487972e-06
5.432410466e-05
2.452950345e-05
3.534777522e-06
-2.676192738e-06
-2.802804253e-06
-1.495249191e-06
-7.229753412e-07
-8.935431617e-07
-1.626024406e-06
-2.366988147e-06
-2.24276524e-05
-1.697734325e-05
-7.037543338e-06
-1.9449847e-06
-3.031882465e-07
-1.264819861e-07
-3.785057872e-07
-6.042312514e-07
-6.485995335e-07
-5.203974903e-07
-3.073070073e-07
-1.047825884e-07
2.041654737e-08
1.00924093e-06
1.913469182e-06
1.69483137e-06
1.012684038e-06
1.318388278e-06
1.407229751e-06
9.58615139e-07
7.719943185e-08
-3.095987408e-07
-1.102814675e-07
9.340699028e-08
1.408937756e-07
1.142441909e-07
7.0751601e-08
3.228946951e-08
6.833438021e-09
-6.404716375e-09
-1.379267247e-08
1.91704586e-08
1.271224764e-07
2.39113778e-07
3.484648415e-07
4.823679168e-07
6.305673462e-07
7.609422669e-07
8.923596241e-07
1.045779864e-06
1.175392712e-06
1.321829691e-06
1.422632359e-06
1.466248332e-06
1.404372847e-06
1.350442986e-06
1.118349869e-06
6.815063951e-07
2.264491723e-07
-2.133334999e-07
-5.003534221e-07
-6.080369294e-07
-6.63862545e-07
-6.929148976e-07
-8.061881978e-07
-9.855483751e-07
-1.157828594e-06
-1.299508051e-06
-1.376552227e-06
-1.361001097e-06
-1.277030197e-06
-1.188416474e-06
-1.106911816e-06
-1.05552204e-06
-1.015089265e-06
-8.561079877e-07
-7.697502091e-07
-6.127337524e-07
-4.511378488e-07
-2.832693094e-07
-1.330255407e-07
-1.082577329e-07
1.507599928e-08
1.800600316e-08
-6.014725664e-09
0
0
0
0
)


101
(
-2.631444266e-07
-6.497240536e-05
-6.211681195e-05
5.723559778e-05
6.415119688e-05
7.332461396e-05
8.752131251e-05
4.318189412e-05
3.781171503e-05
8.687473201e-06
6.929758679e-07
3.12011808e-06
4.737009814e-05
2.846300535e-05
7.176698511e-06
-1.539949466e-06
-2.946566078e-06
-1.813839256e-06
-7.184312012e-07
-5.22620029e-07
-1.106829821e-06
-2.004188251e-06
-1.763164307e-05
-1.775383082e-05
-9.793116353e-06
-3.682911608e-06
-8.75109569e-07
-8.621568046e-08
-1.750592427e-07
-4.704273418e-07
-6.517190932e-07
-6.300323179e-07
-4.451381729e-07
-1.946611614e-07
2.183989867e-08
8.132950347e-07
1.791142896e-06
1.998250077e-06
1.523758566e-06
1.509260058e-06
1.663532068e-06
1.443955296e-06
6.577848843e-07
-5.778667202e-08
-2.053538856e-07
-2.236170735e-08
1.639087247e-07
2.57236283e-07
2.707383961e-07
2.326943763e-07
1.731130824e-07
1.185677596e-07
8.05726201e-08
3.285015302e-08
-2.27426389e-08
-4.769376541e-08
-3.768527662e-08
-2.681580962e-09
5.270716516e-08
1.225471562e-07
2.001012672e-07
2.87164876e-07
3.81849561e-07
4.888476889e-07
6.040724579e-07
7.156161573e-07
7.980251617e-07
8.594486971e-07
8.671485756e-07
7.611663969e-07
5.344463843e-07
2.168937709e-07
-9.69752123e-08
-3.169454259e-07
-4.413452807e-07
-4.892432259e-07
-5.206201183e-07
-6.03674408e-07
-7.36586086e-07
-8.901269551e-07
-1.037314176e-06
-1.13703585e-06
-1.158351435e-06
-1.107280534e-06
-1.003283345e-06
-9.103583936e-07
-8.876536081e-07
-8.2427486e-07
-7.480585535e-07
-6.691476227e-07
-5.661611191e-07
-4.653926388e-07
-2.530806909e-07
-8.673358104e-08
-2.529374577e-08
-3.399857749e-08
-1.326899102e-08
0
0
0
0
)


101
(
-2.63242635e-07
-6.367453943e-05
-6.305034824e-05
5.311998686e-05
6.429906275e-05
7.264516643e-05
8.619024292e-05
4.620718032e-05
3.786854394e-05
1.114586918e-05
1.187785517e-06
2.537914183e-06
4.131223938e-05
3.101702788e-05
1.087576923e-05
5.868295998e-08
-2.862092793e-06
-2.166549228e-06
-8.460062387e-07
-2.626757089e-07
-5.933792849e-07
-1.522453174e-06
-1.389741099e-05
-1.745958482e-05
-1.206564406e-05
-5.757126959e-06
-1.881251843e-06
-2.818090504e-07
-7.14833539e-09
-2.619241529e-07
-5.585413428e-07
-6.740390562e-07
-5.682653002e-07
-3.100870746e-07
-9.581169012e-09
6.963642988e-07
1.694758379e-06
2.227095991e-06
2.036472275e-06
1.879346069e-06
1.96071468e-06
1.90304229e-06
1.326272444e-06
4.952308461e-07
-2.701093801e-08
-9.626365559e-08
8.197338924e-08
3.046376424e-07
4.677006287e-07
5.315588795e-07
5.025013811e-07
4.226363795e-07
3.402495363e-07
2.517152155e-07
1.317315819e-07
3.69582743e-09
-1.002358927e-07
-1.733156922e-07
-2.151861236e-07
-2.233821767e-07
-2.040075202e-07
-1.685816182e-07
-1.251495277e-07
-7.51632379e-08
-1.544147637e-08
5.839856243e-08
1.462461785e-07
2.411235024e-07
3.325443747e-07
4.028141064e-07
4.125115858e-07
3.281554197e-07
1.605237476e-07
-3.008231806e-08
-1.956776165e-07
-3.084772193e-07
-3.588949064e-07
-3.845537763e-07
-4.332075473e-07
-5.198828076e-07
-6.351860897e-07
-7.655392521e-07
-8.819081533e-07
-9.253847745e-07
-8.687154522e-07
-7.708093808e-07
-7.046754762e-07
-7.199685124e-07
-6.875734799e-07
-7.088993946e-07
-6.544611349e-07
-6.372889373e-07
-4.046165298e-07
-1.213487004e-07
-1.228524881e-07
-5.915445005e-08
-3.105699663e-08
0
0
0
0
)


101
(
-2.633049628e-07
-6.239075979e-05
-6.390906161e-05
4.908721302e-05
6.425688e-05
7.203801954e-05
8.495822151e-05
4.895165615e-05
3.823695763e-05
1.342719328e-05
1.909867688e-06
2.049561834e-06
3.601506618e-05
3.249103079e-05
1.44461554e-05
2.076956559e-06
-2.493459218e-06
-2.493606274e-06
-1.098887538e-06
-1.229420462e-07
-1.173617969e-07
-9.459301413e-07
-1.086252994e-05
-1.646701171e-05
-1.372672907e-05
-7.95375476e-06
-3.3084966e-06
-7.974530077e-07
4.856019818e-08
-9.022359162e-09
-3.511046576e-07
-6.063585368e-07
-6.259307145e-07
-4.153432573e-07
-6.483420929e-08
6.237409596e-07
1.644698226e-06
2.435370621e-06
2.560539904e-06
2.40823138e-06
2.376622059e-06
2.366536138e-06
2.005498187e-06
1.249935321e-06
4.932983691e-07
8.080869357e-08
5.148139423e-08
2.684241654e-07
5.66298961e-07
8.071782121e-07
9.128616786e-07
8.845795644e-07
7.833637636e-07
6.560602796e-07
5.04277178e-07
3.329197564e-07
1.62353389e-07
7.889336536e-09
-1.172789774e-07
-1.990838368e-07
-2.322847388e-07
-2.282260633e-07
-2.063058472e-07
-1.826338751e-07
-1.659718002e-07
-1.560399308e-07
-1.390185733e-07
-1.01203651e-07
-4.347057267e-08
3.191092631e-08
1.131023848e-07
1.724004706e-07
1.734216041e-07
1.12565245e-07
1.050757963e-08
-1.072106719e-07
-2.045919292e-07
-2.531335176e-07
-2.664329266e-07
-2.837744069e-07
-3.286482647e-07
-4.158673454e-07
-5.393802793e-07
-6.664830167e-07
-7.215316359e-07
-6.958849672e-07
-6.426567422e-07
-6.507355092e-07
-6.699446333e-07
-7.124902721e-07
-6.882381462e-07
-7.192596098e-07
-6.081735306e-07
-3.24521536e-07
-2.19746284e-07
-9.042311695e-08
-5.398263983e-08
0
0
0
0
)


101
(
-2.633444399e-07
-6.111954328e-05
-6.469692535e-05
4.514469387e-05
6.403357327e-05
7.149141507e-05
8.38107685e-05
5.144169622e-05
3.885556989e-05
1.559077829e-05
2.822071296e-06
1.672005774e-06
3.134430308e-05
3.310587738e-05
1.777675939e-05
4.449868219e-06
-1.785912523e-06
-2.719537247e-06
-1.434330877e-06
-1.215372324e-07
2.924130922e-07
-3.090935063e-07
-8.284666258e-06
-1.498701351e-05
-1.471774105e-05
-1.007244645e-05
-5.079939323e-06
-1.687682779e-06
-9.846202335e-08
2.307540627e-07
-3.398904488e-08
-3.876353976e-07
-5.54688478e-07
-4.48901527e-07
-1.07081035e-07
5.803641666e-07
1.640467373e-06
2.657499492e-06
3.120631405e-06
3.098814803e-06
2.978987431e-06
2.906930593e-06
2.669177205e-06
2.075928044e-06
1.277274003e-06
6.014848705e-07
2.632946002e-07
2.890792228e-07
5.711350321e-07
9.346669977e-07
1.212329797e-06
1.319467673e-06
1.271656814e-06
1.134593671e-06
9.575228643e-07
7.646817296e-07
5.658726958e-07
3.686279398e-07
1.862253697e-07
3.813975276e-08
-5.800456019e-08
-9.902115651e-08
-9.736197016e-08
-7.369579777e-08
-5.274661133e-08
-5.814743313e-08
-9.549635582e-08
-1.416780295e-07
-1.730157196e-07
-1.880197273e-07
-1.891001636e-07
-1.622279228e-07
-1.033548491e-07
-3.824297326e-08
4.963247999e-09
1.36341984e-08
-1.077511449e-08
-5.043616124e-08
-7.943525674e-08
-8.973498623e-08
-9.526587447e-08
-1.245450259e-07
-1.838600044e-07
-2.902152861e-07
-4.278210075e-07
-5.029664649e-07
-5.405649644e-07
-5.336387753e-07
-5.410069736e-07
-5.870790327e-07
-6.135491447e-07
-5.981747226e-07
-6.513367017e-07
-5.065160326e-07
-1.743841429e-07
-1.835225198e-07
-9.892649222e-08
0
0
0
0
)


101
(
-2.633455205e-07
-5.986117838e-05
-6.541115236e-05
4.128807897e-05
6.363395071e-05
7.097490233e-05
8.274069849e-05
5.368816369e-05
3.968978447e-05
1.76537882e-05
3.89841295e-06
1.42092896e-06
2.721255257e-05
3.305068963e-05
2.079883237e-05
7.111262595e-06
-7.070433766e-07
-2.784764661e-06
-1.813287027e-06
-2.579279964e-07
5.967664013e-07
3.44424045e-07
-6.010078405e-06
-1.314278616e-05
-1.501355428e-05
-1.190302361e-05
-7.054011241e-06
-2.961729984e-06
-5.351715486e-07
3.769699195e-07
3.567896993e-07
4.446262977e-10
-2.934236905e-07
-3.280230269e-07
-6.527948084e-08
5.86299037e-07
1.673766085e-06
2.89245316e-06
3.710290615e-06
3.935000157e-06
3.809257257e-06
3.611050967e-06
3.350913593e-06
2.872513834e-06
2.152382168e-06
1.375428654e-06
7.807535306e-07
5.216945584e-07
6.115033523e-07
9.3527735e-07
1.307037596e-06
1.566395085e-06
1.643188058e-06
1.571258038e-06
1.410505293e-06
1.214770542e-06
1.010093318e-06
7.946202006e-07
5.732827129e-07
3.615699853e-07
1.832264801e-07
6.139432931e-08
1.081319537e-08
3.067561233e-08
1.032285453e-07
1.750244651e-07
1.71908527e-07
6.73395791e-08
-8.698461728e-08
-2.62534759e-07
-5.05887948e-07
-7.992473851e-07
-9.940599334e-07
-1.004656374e-06
-8.841743619e-07
-6.743837991e-07
-3.695615468e-07
-4.08725286e-08
1.73204613e-07
2.119709264e-07
1.514980343e-07
1.207291338e-07
1.339326665e-07
1.829969182e-07
2.704774527e-07
2.717939065e-07
2.155329065e-07
1.187921497e-07
2.218759807e-08
-4.956198595e-08
-1.211818207e-07
-1.647738048e-07
-2.236653644e-07
-2.962748789e-07
-1.28734706e-07
-1.640922557e-07
-1.322638119e-07
0
0
0
0
)


101
(
-2.633365908e-07
-5.861648387e-05
-6.60524978e-05
3.751357122e-05
6.306682566e-05
7.048979411e-05
8.175807778e-05
5.574450201e-05
4.070179191e-05
1.965906046e-05
5.136688436e-06
1.317981078e-06
2.355917384e-05
3.245743855e-05
2.34456575e-05
9.996745441e-06
7.687771757e-07
-2.625439423e-06
-2.194522483e-06
-5.138786437e-07
7.664459684e-07
9.651416632e-07
-3.961427248e-06
-1.102875155e-05
-1.461235345e-05
-1.325779038e-05
-9.048555253e-06
-4.56261558e-06
-1.311414861e-06
3.427969661e-07
7.594190763e-07
5.426838427e-07
1.989077728e-07
3.039475928e-08
1.593713081e-07
7.074401984e-07
1.759317683e-06
3.120053834e-06
4.280188149e-06
4.850135896e-06
4.850617542e-06
4.553655695e-06
4.16041284e-06
3.666830463e-06
3.01569413e-06
2.252295005e-06
1.528041483e-06
1.020499652e-06
8.409696666e-07
9.881222785e-07
1.340130869e-06
1.72093075e-06
1.984637545e-06
2.083127557e-06
2.040755566e-06
1.921094405e-06
1.760944219e-06
1.564266421e-06
1.319691349e-06
1.032968152e-06
7.28780052e-07
4.454476129e-07
2.346231125e-07
1.457579103e-07
2.279693915e-07
4.586361659e-07
6.639833526e-07
6.32307563e-07
3.587404722e-07
-7.399261067e-09
-5.383941571e-07
-1.413162289e-06
-2.414840731e-06
-3.120229451e-06
-3.450815059e-06
-3.485203674e-06
-3.042540228e-06
-1.988231944e-06
-6.669309036e-07
2.459329119e-07
4.131590868e-07
3.356071694e-07
4.45499339e-07
7.477630393e-07
1.467864579e-06
2.048971614e-06
2.279774739e-06
2.475221103e-06
1.5945681e-06
1.497747183e-06
1.417941091e-06
1.10617109e-06
9.969822066e-07
1.093967904e-06
6.327471729e-07
2.946383892e-07
5.217881598e-08
0
0
0
0
)


101
(
-2.633174114e-07
-5.738458936e-05
-6.662779314e-05
3.382831301e-05
6.235187107e-05
7.003237515e-05
8.084431571e-05
5.762217624e-05
4.186384182e-05
2.165161716e-05
6.514463734e-06
1.376792098e-06
2.03265279e-05
3.143400199e-05
2.569530424e-05
1.302447469e-05
2.653996665e-06
-2.163058092e-06
-2.501922807e-06
-8.660752751e-07
7.95542738e-07
1.512650832e-06
-2.100999305e-06
-8.709660442e-06
-1.353367039e-05
-1.397766014e-05
-1.084323913e-05
-6.358208442e-06
-2.425108082e-06
5.490568644e-08
1.091739645e-06
1.191494919e-06
9.252156212e-07
6.889145041e-07
6.772574926e-07
1.052569761e-06
1.965158954e-06
3.347497561e-06
4.77911306e-06
5.753401082e-06
6.045382392e-06
5.791701476e-06
5.272044736e-06
4.659444595e-06
3.98541205e-06
3.246990218e-06
2.489674741e-06
1.829798984e-06
1.407604791e-06
1.32386411e-06
1.573161695e-06
2.040406496e-06
2.55101715e-06
2.957762415e-06
3.200172181e-06
3.295829822e-06
3.281845661e-06
3.163014454e-06
2.909988519e-06
2.50853477e-06
1.980046103e-06
1.368674918e-06
7.369829013e-07
1.694057195e-07
-1.685212644e-07
-9.00742815e-08
3.121215724e-07
5.479398832e-07
2.527344267e-07
-3.322258928e-07
-1.006527648e-06
-2.20161278e-06
-4.075014812e-06
-5.938741945e-06
-7.309324609e-06
-8.330788333e-06
-8.78075433e-06
-7.84482538e-06
-5.109985786e-06
-1.664854348e-06
4.375032852e-07
1.058110458e-06
1.596943121e-06
2.514295919e-06
4.199674698e-06
5.813099295e-06
6.041844465e-06
9.362790359e-06
5.295668827e-06
5.389182843e-06
4.939832414e-06
4.208112008e-06
5.273635724e-06
4.871199234e-06
3.782100301e-06
1.429240989e-06
1.049896867e-06
0
0
0
0
)


101
(
-2.632572311e-07
-5.616515703e-05
-6.713873024e-05
3.023111945e-05
6.14929713e-05
6.956739713e-05
8.000376504e-05
5.932557821e-05
4.313779251e-05
2.362570982e-05
8.024671575e-06
1.610463038e-06
1.747825836e-05
3.00809583e-05
2.752092384e-05
1.611682772e-05
4.935780672e-06
-1.328602324e-06
-2.65715184e-06
-1.263700936e-06
6.916895298e-07
1.941658804e-06
-4.306102422e-07
-6.257473652e-06
-1.181207858e-05
-1.392800753e-05
-1.219376084e-05
-8.153730191e-06
-3.802995457e-06
-5.154243679e-07
1.275184095e-06
1.870000375e-06
1.842430755e-06
1.664546809e-06
1.574296122e-06
1.754462962e-06
2.421375593e-06
3.659827208e-06
5.222042299e-06
6.59799023e-06
7.351587635e-06
7.382231234e-06
6.897262896e-06
6.176062598e-06
5.395884784e-06
4.619226636e-06
3.851723264e-06
3.125668842e-06
2.535668775e-06
2.221950354e-06
2.293687658e-06
2.759383046e-06
3.496467131e-06
4.298299314e-06
4.980325262e-06
5.4559599e-06
5.726643964e-06
5.773452616e-06
5.531783755e-06
4.941170583e-06
4.023784579e-06
2.854752444e-06
1.489562813e-06
-5.733180256e-08
-1.631091141e-06
-2.746880026e-06
-2.941201959e-06
-2.598884562e-06
-2.726402637e-06
-3.529500151e-06
-4.333835739e-06
-5.266012855e-06
-7.110737758e-06
-9.521747838e-06
-1.157246539e-05
-1.336817167e-05
-1.520611882e-05
-1.607080011e-05
-1.377776122e-05
-7.55906014e-06
-8.155893744e-07
3.179258824e-06
5.495487706e-06
7.535839961e-06
1.016182931e-05
1.355465766e-05
1.153332618e-05
2.484829388e-05
1.519796135e-05
1.649078632e-05
1.514119068e-05
9.388588819e-06
1.868587463e-05
1.415720193e-05
1.255168984e-05
4.15517102e-06
3.735920836e-06
4.682454527e-11
0
0
0
)


101
(
-2.631549392e-07
-5.495893724e-05
-6.758553804e-05
2.672105381e-05
6.049782644e-05
6.909410408e-05
7.922964816e-05
6.089327657e-05
4.44951587e-05
2.558873706e-05
9.673942618e-06
2.031490524e-06
1.498379863e-05
2.846221372e-05
2.891603272e-05
1.919927896e-05
7.606515947e-06
-6.342613399e-08
-2.574806453e-06
-1.636915467e-06
4.758077111e-07
2.230427338e-06
1.034769784e-06
-3.767429668e-06
-9.537226695e-06
-1.30375389e-05
-1.286431923e-05
-9.698265733e-06
-5.290069859e-06
-1.331806356e-06
1.265623222e-06
2.498733393e-06
2.872721062e-06
2.910755654e-06
2.876907213e-06
2.929702791e-06
3.300928498e-06
4.234302061e-06
5.729249824e-06
7.420367589e-06
8.762361397e-06
9.376863492e-06
9.242193506e-06
8.593497807e-06
7.716020509e-06
6.815443847e-06
5.969255441e-06
5.189867283e-06
4.501305538e-06
3.998834848e-06
3.823512864e-06
4.104773426e-06
4.853119266e-06
5.912092886e-06
7.018751373e-06
7.947434128e-06
8.595968624e-06
8.892844173e-06
8.700520971e-06
7.855132623e-06
6.338439897e-06
4.327859628e-06
1.988542105e-06
-7.672462092e-07
-4.118123573e-06
-7.650126465e-06
-1.010727754e-05
-1.07705436e-05
-1.073057239e-05
-1.140726133e-05
-1.235525957e-05
-1.279603325e-05
-1.351898229e-05
-1.502117564e-05
-1.637936963e-05
-1.746494264e-05
-1.937095535e-05
-2.21826487e-05
-2.299203893e-05
-1.702647378e-05
-5.081987145e-06
5.991401793e-06
1.329873783e-05
1.689946207e-05
1.719219447e-05
2.098984635e-05
1.333029202e-05
3.931129405e-05
3.665923438e-05
3.681759208e-05
4.145624015e-05
1.922969983e-05
4.567270123e-05
3.94632307e-05
3.896430397e-05
1.729018363e-05
9.105025233e-06
0
0
0
0
)


101
(
-2.630402351e-07
-5.376607172e-05
-6.796705555e-05
2.329491601e-05
5.937733107e-05
6.860746315e-05
7.851052195e-05
6.23261874e-05
4.593410105e-05
2.757243646e-05
1.144876501e-05
2.658429651e-06
1.284305751e-05
2.664539894e-05
2.987078409e-05
2.221126695e-05
1.064671816e-05
1.684496593e-06
-2.161764484e-06
-1.902877121e-06
1.969149114e-07
2.391122087e-06
2.283634441e-06
-1.322464669e-06
-6.820418164e-06
-1.128305323e-05
-1.265205824e-05
-1.069974792e-05
-6.652167906e-06
-2.277616488e-06
1.084606842e-06
3.033779856e-06
3.927090587e-06
4.330990446e-06
4.535857745e-06
4.63344339e-06
4.782860714e-06
5.319138785e-06
6.52622011e-06
8.337246232e-06
1.028011694e-05
1.1758302e-05
1.240707862e-05
1.22121353e-05
1.141864999e-05
1.03606779e-05
9.284566225e-06
8.320350444e-06
7.496976562e-06
6.835267674e-06
6.389920649e-06
6.288877966e-06
6.66244165e-06
7.521760241e-06
8.68454651e-06
9.855178956e-06
1.079451973e-05
1.133723829e-05
1.124871492e-05
1.018073941e-05
7.932049418e-06
4.758267016e-06
1.183169319e-06
-2.671507111e-06
-7.425853832e-06
-1.350731453e-05
-1.963170582e-05
-2.32784328e-05
-2.39402936e-05
-2.390249876e-05
-2.437670864e-05
-2.427492819e-05
-2.345787131e-05
-2.290835173e-05
-2.223984215e-05
-2.107486249e-05
-2.095919155e-05
-2.369397526e-05
-2.805595956e-05
-2.666300326e-05
-1.3426741e-05
5.646378051e-06
2.182137614e-05
2.900055004e-05
2.171443849e-05
1.828409365e-05
3.50043748e-06
2.231037568e-05
6.117803087e-05
5.160671435e-05
6.985132119e-05
3.792750206e-05
6.090172177e-05
8.46463872e-05
0.0001001157828
7.047459114e-05
2.293438663e-05
1.571484402e-10
0
0
0
)


101
(
-2.629128708e-07
-5.258527674e-05
-6.828911357e-05
1.995929253e-05
5.81386399e-05
6.809877826e-05
7.784081715e-05
6.364710395e-05
4.742899975e-05
2.957461212e-05
1.334281296e-05
3.5024349e-06
1.105213684e-05
2.470300096e-05
3.039100816e-05
2.507161389e-05
1.399108219e-05
3.959253288e-06
-1.322043638e-06
-1.969003258e-06
-7.100741562e-08
2.447544257e-06
3.318744626e-06
1.000962824e-06
-3.796510942e-06
-8.711145749e-06
-1.141617729e-05
-1.08697224e-05
-7.592853557e-06
-3.144621967e-06
8.329400058e-07
3.495273671e-06
4.961771675e-06
5.823338746e-06
6.442569198e-06
6.83998672e-06
6.996340604e-06
7.18915506e-06
7.928990258e-06
9.556304864e-06
1.191258821e-05
1.437387664e-05
1.62369122e-05
1.70525581e-05
1.677718327e-05
1.570860486e-05
1.426096661e-05
1.281654108e-05
1.158915592e-05
1.063353305e-05
9.887609076e-06
9.300153333e-06
8.934774637e-06
8.94703354e-06
9.408010453e-06
1.018167975e-05
1.099756696e-05
1.158299389e-05
1.161232025e-05
1.05151414e-05
7.721213072e-06
3.263850038e-06
-1.909527354e-06
-6.85821694e-06
-1.199245806e-05
-1.901615201e-05
-2.826755846e-05
-3.638065981e-05
-3.968825618e-05
-3.908902678e-05
-3.79556976e-05
-3.677118206e-05
-3.453681753e-05
-3.17702914e-05
-2.865457179e-05
-2.469938463e-05
-2.133075237e-05
-2.151751629e-05
-2.715014319e-05
-3.253202695e-05
-2.491798129e-05
-3.085648792e-06
2.224282294e-05
3.712742386e-05
2.397092898e-05
8.710989829e-06
-8.188420648e-06
-2.58800787e-05
7.006242552e-05
5.626262912e-05
5.663235355e-05
7.140396924e-05
9.587951993e-06
9.104477682e-05
0.000155853132
0.0002011050939
6.64077855e-05
1.360458397e-09
0
0
0
)


101
(
-2.62741142e-07
-5.141682498e-05
-6.855441135e-05
1.67088211e-05
5.679522811e-05
6.75602948e-05
7.721526499e-05
6.486589566e-05
4.896206118e-05
3.159297573e-05
1.535619166e-05
4.567873495e-06
9.615648675e-06
2.270011941e-05
3.050534246e-05
2.770196924e-05
1.759197419e-05
6.795531954e-06
5.266169668e-08
-1.723071503e-06
-2.38208195e-07
2.461715799e-06
4.169719352e-06
3.151480275e-06
-6.176302177e-07
-5.447169588e-06
-9.102716857e-06
-9.976776911e-06
-7.798939947e-06
-3.666431532e-06
6.938300553e-07
3.993854397e-06
6.014703878e-06
7.338578074e-06
8.472932307e-06
9.435630216e-06
9.964772617e-06
1.007719768e-05
1.031220885e-05
1.140929442e-05
1.373645907e-05
1.697259247e-05
2.026545789e-05
2.267069952e-05
2.358925243e-05
2.297535048e-05
2.122581766e-05
1.897985367e-05
1.682551651e-05
1.510540836e-05
1.380809454e-05
1.266126991e-05
1.139866903e-05
1.00439659e-05
8.900126067e-06
8.25176087e-06
8.096450586e-06
8.215046386e-06
8.236538564e-06
7.425124498e-06
4.732156565e-06
-4.794893358e-07
-7.340465451e-06
-1.376005675e-05
-1.865812535e-05
-2.417648617e-05
-3.348720666e-05
-4.521129755e-05
-5.298827557e-05
-5.352682053e-05
-5.040680027e-05
-4.724222563e-05
-4.372499247e-05
-3.936827264e-05
-3.436740059e-05
-2.811994188e-05
-2.143921479e-05
-1.740606732e-05
-2.082046331e-05
-3.160998533e-05
-3.604176e-05
-2.256530599e-05
5.019089666e-06
3.096431274e-05
2.347071244e-05
3.59357056e-06
-5.750977319e-06
-6.29213795e-05
4.807284307e-05
8.00140221e-05
2.027795142e-05
0.0001365634349
-5.693246725e-05
1.394869835e-05
9.962897417e-05
0.0003618339093
0.0001707412127
1.413051084e-09
0
0
0
)


101
(
-2.625235086e-07
-5.026169728e-05
-6.876263949e-05
1.354094933e-05
5.5353357e-05
6.6980998e-05
7.663800943e-05
6.599126425e-05
5.05222848e-05
3.362506289e-05
1.74764253e-05
5.864988671e-06
8.552002623e-06
2.070138799e-05
3.021139962e-05
3.005576622e-05
2.13868355e-05
1.020658494e-05
2.047424794e-06
-1.041381156e-06
-1.978301424e-07
2.520286072e-06
4.904122045e-06
5.114527844e-06
2.595710779e-06
-1.656796674e-06
-5.761827924e-06
-7.862054896e-06
-6.971304096e-06
-3.53257778e-06
9.081070488e-07
4.713418437e-06
7.222463895e-06
8.921368575e-06
1.052851187e-05
1.222408623e-05
1.354574096e-05
1.405376399e-05
1.400270703e-05
1.432494065e-05
1.600481024e-05
1.937562673e-05
2.383925924e-05
2.81371853e-05
3.098085711e-05
3.162065317e-05
3.005377618e-05
2.695537193e-05
2.331207943e-05
2.002187355e-05
1.748642091e-05
1.546474895e-05
1.329473422e-05
1.045791685e-05
7.10177144e-06
3.937337846e-06
1.598443983e-06
3.394815272e-07
-6.09775028e-08
-3.394209889e-07
-1.939804339e-06
-6.472693429e-06
-1.410605785e-05
-2.223180768e-05
-2.737287798e-05
-2.988800834e-05
-3.511474061e-05
-4.654310549e-05
-5.861761152e-05
-6.28546984e-05
-5.926103397e-05
-5.38513553e-05
-4.904433953e-05
-4.395204873e-05
-3.815546021e-05
-3.079769843e-05
-2.167849043e-05
-1.303980966e-05
-1.101610699e-05
-2.258869899e-05
-4.131522878e-05
-4.877902046e-05
-3.238882893e-05
3.377944803e-06
1.772763716e-05
4.060597502e-06
8.106909669e-06
-5.894741943e-05
-1.212372444e-05
9.119004371e-05
1.195078119e-05
0.000216474171
-1.005703293e-05
-4.714930258e-05
-2.325912897e-05
0.0003788708953
0.0003090924069
5.651322282e-09
0
0
0
)


101
(
-2.622910467e-07
-4.911866269e-05
-6.891751403e-05
1.046637035e-05
5.381630954e-05
6.635887366e-05
7.608553684e-05
6.704630434e-05
5.209928177e-05
3.56798793e-05
1.970354672e-05
7.409535274e-06
7.867763396e-06
1.876503038e-05
2.955480302e-05
3.206108138e-05
2.528045607e-05
1.417096484e-05
4.751362333e-06
2.155149255e-07
1.843296875e-07
2.729142915e-06
5.62314363e-06
6.936573616e-06
5.757729501e-06
2.472152003e-06
-1.536316764e-06
-4.477628022e-06
-4.880888157e-06
-2.432835952e-06
1.7529279e-06
5.883164595e-06
8.80345927e-06
1.072983343e-05
1.259974217e-05
1.497160515e-05
1.738780121e-05
1.888946187e-05
1.908934182e-05
1.870451146e-05
1.916401306e-05
2.16791534e-05
2.641799046e-05
3.228886476e-05
3.746798323e-05
4.026906832e-05
3.982576948e-05
3.638210122e-05
3.105933608e-05
2.536983539e-05
2.050900454e-05
1.679166441e-05
1.350632705e-05
9.438782777e-06
3.951771197e-06
-2.34754036e-06
-8.079821984e-06
-1.200544761e-05
-1.372064213e-05
-1.362039003e-05
-1.318572549e-05
-1.499540344e-05
-2.10655824e-05
-2.993537579e-05
-3.63197774e-05
-3.64927304e-05
-3.491892912e-05
-4.053470476e-05
-5.349838747e-05
-6.290168038e-05
-6.204118718e-05
-5.573448424e-05
-4.982170453e-05
-4.451834789e-05
-3.872419526e-05
-3.150213788e-05
-2.179156043e-05
-1.021553992e-05
-1.769444111e-06
-8.087043316e-06
-3.637456462e-05
-7.177263833e-05
-8.168921149e-05
-4.515340384e-05
3.184540932e-06
6.787027883e-06
1.805624671e-05
-1.61362187e-05
-5.842791217e-05
2.980589618e-05
-2.99549235e-06
0.0002355602373
0.000141825024
-3.070092522e-05
-4.085869036e-05
0.0002050529374
0.0003524345197
3.238792803e-09
0
0
0
)


101
(
-2.620439712e-07
-4.798841405e-05
-6.901516236e-05
7.471868536e-06
5.219658567e-05
6.568870125e-05
7.556300053e-05
6.80321695e-05
5.36939589e-05
3.776536302e-05
2.203145099e-05
9.185865446e-06
7.57634045e-06
1.696748773e-05
2.859919801e-05
3.366150775e-05
2.917155865e-05