/*--------------------------------*- C++ -*----------------------------------*\
| =========                 |                                                 |
| \\      /  F ield         | OpenFOAM: The Open Source CFD Toolbox           |
|  \\    /   O peration     | Version:  2.3.1                                 |
|   \\  /    A nd           | Web:      www.OpenFOAM.org                      |
|    \\/     M anipulation  |                                                 |
\*---------------------------------------------------------------------------*/
FoamFile
{
    version     2.0;
    format      ascii;
    class       dictionary;
    location    "constant";
    object      la_r8;
}
// * * * * * * * * * * * * * * * * * * * * * * * * * * * * * * * * * * * * * //

la_r8_table
101
(

101
(
0.00471263394
1.361364147
8.308989904
21.79021779
39.83004649
59.90130473
79.83597964
97.48095403
112.1152982
123.1515204
130.5140441
134.3957749
135.4437341
133.5505532
129.8286317
124.603733
118.117585
110.6497761
102.9626752
94.46844532
86.10730506
77.82056669
69.74039189
62.26099125
55.51634404
49.58739426
44.49740372
40.21571398
36.68703281
33.80364569
31.46342918
29.55647079
27.9757686
26.74741898
25.72725647
24.89870288
37.84050262
60.20849449
58.06023027
55.72202358
53.27526594
50.81001828
48.31655227
45.84452576
43.44637524
41.12258835
38.90689655
36.80592513
34.8329659
32.99130303
31.28788361
29.71533273
28.26737758
26.93639898
25.7105916
24.57542079
23.51239212
22.52025397
21.57405412
20.66941147
19.7906895
18.93391919
18.09072664
17.25479184
16.42108812
15.58979304
14.7597484
13.93064602
13.10326807
12.28301818
11.47094654
10.67190198
9.889171727
9.132958195
9.594732555
9.518189772
8.45475106
7.470809116
6.563078472
5.728720713
4.966766545
4.276903213
3.658544778
3.654486237
3.37350113
2.64775317
2.050593629
1.561933072
1.168752681
1.112386066
0.7548970613
0.4627790477
0.2718598687
0.1672868681
0.0802002107
0.0169973542
2.959958486e-13
-1.425771946e-28
-5.010752088e-23
2.730307724e-23
-1.465389524e-21
)


101
(
0.004689760055
1.326498748
8.073886878
21.15279407
38.61766437
57.98172233
77.13183769
93.98881662
107.8534372
118.1860813
124.9414413
128.3208569
128.9575333
126.8002564
122.8539467
117.4680285
110.8709817
103.3122151
95.45280446
86.82275028
78.18182712
69.52898086
60.97643429
52.88901869
45.42858933
38.70645906
32.78556453
27.67455277
23.35281959
19.75754219
16.80931542
14.41956039
12.4880521
11.0252284
9.949378279
9.196553248
8.301801123
7.098840886
6.561693627
6.477737101
6.581401347
6.790029435
7.064512552
7.392097424
7.761850219
8.153980875
8.562762111
8.971560946
9.373791291
9.755632707
10.11214426
10.43495154
10.71919591
10.96443488
11.16424646
11.3137543
11.40246889
11.44142814
11.42355485
11.35440138
11.23200685
11.0617179
10.84737565
10.59095783
10.29454962
9.961963415
9.599068709
9.209343231
8.796586614
8.366374794
7.922309605
7.468847142
7.009841126
6.552080719
6.112597334
5.680729572
5.235778765
4.783236921
4.335110096
3.900519871
3.485259751
3.091300981
2.721509409
2.384810542
2.069206796
1.763033508
1.473343005
1.209659629
0.9747101394
0.7724476038
0.5970689265
0.4393880221
0.3071582699
0.203021381
0.1209567549
0.05990156636
0.01855451549
0.01903188939
0.01960775211
0.02045760562
0.02107723776
)


101
(
0.004666951823
1.291990818
7.842351472
20.5333807
37.46038143
56.18695915
74.65448265
90.87006466
104.1340055
113.9604603
120.3194194
123.4248269
123.8812018
121.7274454
117.8360592
112.612616
106.2941413
99.11164482
91.62471136
83.527629
75.3580005
67.19515619
59.11847169
51.41797323
44.26376033
37.76525246
31.98858101
26.95138493
22.63881188
19.0040005
15.97811356
13.48380668
11.43964271
9.815433683
8.581523272
7.673110417
6.806974976
5.853020719
5.152833371
4.798702503
4.680972065
4.708422883
4.813379615
4.978184352
5.196465494
5.449574965
5.729987991
6.02744098
6.332999489
6.637147137
6.93318601
7.213771329
7.472184608
7.706899074
7.916222269
8.095605869
8.238112921
8.343627499
8.408833044
8.435821085
8.422465751
8.371302939
8.28478384
8.163002563
8.00752816
7.820434313
7.605380109
7.36430323
7.099041914
6.814282826
6.512212022
6.195974596
5.867341928
5.531343256
5.196167904
4.865122261
4.532176301
4.192299668
3.846491504
3.501453502
3.165277264
2.842332123
2.534492654
2.245479473
1.976946014
1.723726145
1.479829207
1.249071732
1.038590336
0.850670214
0.6846940365
0.5388719903
0.407888614
0.2975966775
0.2082656814
0.13153259
0.06845663129
0.07264416966
0.07690501714
0.08267357315
0.08681022043
)


101
(
0.004644210095
1.258054649
7.615606567
19.92807426
36.33299239
54.44552437
72.26101332
87.86831899
100.5694064
109.9230978
115.9122216
118.7581926
119.0383057
116.8625088
113.0000262
107.8906531
101.7856099
94.90523789
87.73315417
80.07684357
72.33010957
64.60443063
56.96089722
49.63052907
42.77711264
36.50666812
30.886818
25.94235121
21.66386702
18.01616276
14.9410868
12.36909632
10.23209955
8.479746715
7.101307265
6.075141847
5.127667417
4.245450808
3.505726002
2.979631259
2.671420977
2.526536442
2.479297314
2.504730737
2.592377489
2.725105602
2.896794049
3.09793996
3.32337081
3.563237679
3.813444155
4.065424183
4.311877397
4.549800768
4.777894508
4.991654237
5.189386799
5.36658626
5.518241405
5.645683323
5.744047686
5.813813547
5.856110909
5.870028837
5.85647813
5.816742049
5.751003522
5.660712231
5.543890871
5.404685035
5.245559599
5.067998396
4.871813646
4.660266631
4.438006684
4.209300463
3.97520612
3.733117261
3.480577566
3.218602848
2.953398711
2.691718913
2.437034528
2.191701738
1.958418079
1.738139419
1.527885467
1.32367852
1.130720341
0.954147477
0.7944714635
0.6519719188
0.5239286634
0.4093220501
0.3127897327
0.224005904
0.1421706271
0.1538817561
0.165682471
0.181438647
0.1931205076
)


101
(
0.004621535734
1.224685133
7.393571293
19.33654841
35.23456574
52.75534993
69.94765936
84.97790209
97.15166026
106.0647633
111.7106572
114.3141813
114.4266036
112.2136369
108.363391
103.3343658
97.3942012
90.75858131
83.85373469
76.56722087
69.19884424
61.86704188
54.6207921
47.64444962
41.08673798
35.0483807
29.59660912
24.76087971
20.5370805
16.89892618
13.79921969
11.1741669
8.965790429
7.113337456
5.60450313
4.418726822
3.412137049
2.515144216
1.736583323
1.110280372
0.6563723354
0.3582296059
0.1690928179
0.06418595949
0.03110936897
0.053181066
0.1242654729
0.2354769442
0.3836428466
0.5597844458
0.7617319003
0.9819359763
1.212197951
1.447243296
1.686496691
1.927864984
2.16589845
2.399681784
2.62250899
2.835652204
3.032428552
3.209973277
3.367836959
3.504305443
3.620021561
3.716758052
3.793096861
3.846959535
3.875781051
3.881085065
3.866044517
3.830962739
3.77427767
3.69640151
3.599841804
3.488053474
3.363637445
3.226075242
3.073794321
2.90510338
2.721940118
2.530419887
2.336149508
2.141868037
1.950434517
1.764019443
1.583890654
1.407029541
1.233175396
1.068571904
0.9162903092
0.7767706826
0.6499834074
0.5334626676
0.4313183824
0.3335773849
0.2372368136
0.2602225673
0.2826569294
0.310971815
0.3251548914
)


101
(
0.004598929575
1.191877322
7.176170519
18.75851136
34.16428044
51.11461592
67.71110634
82.19383355
93.87374965
102.3772372
107.7063438
110.0860945
110.0426724
107.7851527
103.937422
98.96569463
93.15392674
86.71779443
80.040061
73.06625245
66.03470936
59.05864079
52.17746528
45.5383667
39.27056413
33.46668513
28.19202771
23.47876259
19.32727684
15.71814561
12.61257809
9.957632303
7.699596025
5.774464504
4.166267221
2.852432034
1.756123338
0.8085581981
-0.01688702914
-0.715894166
-1.275443019
-1.696356739
-2.006553987
-2.224866502
-2.36171544
-2.432054904
-2.443178563
-2.4049345
-2.319273273
-2.191549181
-2.023825033
-1.822636485
-1.596841468
-1.353100564
-1.093582315
-0.8211504408
-0.5401608449
-0.2506965061
0.04147829273
0.3286801199
0.6064644214
0.87878343
1.131206917
1.368831871
1.591371182
1.79505277
1.983823242
2.15406563
2.297940176
2.425398373
2.52500079
2.60590016
2.665357891
2.704712621
2.720900342
2.716458713
2.694244859
2.655647973
2.598342824
2.522332635
2.425750047
2.311901073
2.185282529
2.050564215
1.909997834
1.76646599
1.622111696
1.476858958
1.328514806
1.180753845
1.040066102
0.9070785719
0.7831165947
0.6671292037
0.5616678962
0.4573489428
0.349948976
0.3884803363
0.418667776
0.4527535556
0.4531950776
)


101
(
0.004576392445
1.159626203
6.963331146
18.19368097
33.12134729
49.52158063
65.54819039
79.5113413
90.72891397
98.8524114
103.8906708
106.066258
105.8810694
103.5773216
99.72759182
94.79805463
89.087364
82.81464719
76.32975136
69.62126896
62.88772091
56.23221714
49.68573287
43.36579301
37.38069598
31.81200313
26.72130658
22.14225491
18.07890886
14.51714724
11.42510122
8.759217576
6.472008414
4.500368789
2.82325075
1.417134731
0.2375512933
-0.7682023863
-1.63684211
-2.381518528
-2.999569419
-3.488522181
-3.864977462
-4.139240216
-4.319100826
-4.417561929
-4.441935538
-4.400174287
-4.295538886
-4.136319153
-3.921213411
-3.66679903
-3.379842504
-3.067161773
-2.725583934
-2.378047328
-2.028975802
-1.662077201
-1.293304988
-0.9375729779
-0.5936309099
-0.2520250476
0.0595195469
0.3430243121
0.6124793346
0.8583398937
1.084367201
1.294174076
1.474987263
1.638884045
1.776992428
1.896190771
1.995084759
2.079214955
2.142971078
2.185959143
2.214246405
2.225749227
2.221302764
2.202185286
2.163428745
2.107913126
2.034937125
1.950601953
1.856307315
1.754020194
1.646390186
1.534120441
1.414985755
1.289829327
1.164710104
1.042867442
0.9245479041
0.81137106
0.7052027676
0.5951704513
0.4791487579
0.5329047497
0.5380524653
0.4262632726
0.2764105855
)


101
(
0.004553925204
1.12792691
6.754981253
17.64178201
32.10500561
47.97458251
63.45591525
76.92590248
87.71068222
95.48237751
100.2549855
102.2464258
101.9349567
99.58750004
95.73510936
90.83857158
85.20881724
79.070648
72.74913298
66.26571694
59.79386521
53.42581534
47.18506435
41.16524239
35.4544194
30.12060307
25.2193983
20.78476357
16.8239605
13.327298
10.26862058
7.61221207
5.318467772
3.328956352
1.619145895
0.1661758491
-1.057300575
-2.08775689
-2.957314934
-3.683505228
-4.27149594
-4.721500274
-5.042576146
-5.241028199
-5.325647712
-5.311204915
-5.211167937
-5.032780604
-4.778329879
-4.468916425
-4.100420899
-3.716511056
-3.309176652
-2.887626741
-2.453766986
-2.038965594
-1.644160283
-1.260813403
-0.8937364578
-0.5652127032
-0.2693894523
0.01828444751
0.2669188383
0.4807249211
0.6642752937
0.8191112008
0.9446244675
1.068473167
1.169067457
1.25914579
1.333567382
1.388597272
1.432756959
1.474432358
1.515295438
1.546182395
1.572592951
1.59257811
1.611803826
1.629000093
1.635432719
1.628350502
1.61091894
1.585203256
1.551512738
1.509823843
1.460428769
1.408231441
1.343397751
1.26785357
1.185055409
1.100327652
1.009033737
0.9173427486
0.8259287231
0.7235976836
0.6134967193
0.5643805939
0.3653121739
-0.3967922343
-1.090896877
)


101
(
0.004531528681
1.096774691
6.551050506
17.10254741
31.11452305
46.47203371
61.43143811
74.43323224
84.81287939
92.25947263
96.79069557
98.61801517
98.19654486
95.81093989
91.95811054
87.08980452
81.52649891
75.49986262
69.31647962
63.02352953
56.77952063
50.66739683
44.70465186
38.96505346
33.51854925
28.41828814
23.71138413
19.4307377
15.58673596
12.17408258
9.17194001
6.55158511
4.282480404
2.315917844
0.6289448703
-0.7989236853
-1.985057305
-2.95144692
-3.717094753
-4.301228221
-4.712605714
-4.957049827
-5.055954234
-5.020862253
-4.866561402
-4.613372651
-4.286198202
-3.901415794
-3.452583261
-2.989355425
-2.52564855
-2.088059962
-1.66133647
-1.283899257
-0.9184442407
-0.5943036286
-0.3483059756
-0.1483894026
0.01317163057
0.1211104312
0.1831343906
0.2263960583
0.2200469812
0.1916967974
0.1382445137
0.06746915475
-0.02048879638
-0.1081014408
-0.1957828269
-0.2820059123
-0.3554718008
-0.4250360013
-0.4764299563
-0.5103261295
-0.5232920762
-0.5156593581
-0.4924344029
-0.4573323478
-0.4032090084
-0.3253616616
-0.2321913822
-0.1380264195
-0.04888567261
0.04639011212
0.1415495461
0.2366982673
0.3222332194
0.4169785472
0.4931325835
0.5524506165
0.5995539993
0.641045082
0.6564812058
0.6590361343
0.6530608772
0.6200166605
0.5908972307
0.02225085772
-0.8229171081
-3.187202159
-5.266957597
)


101
(
0.004509203659
1.066164642
6.35146954
16.57571706
30.14919219
45.01240608
59.47202853
72.02921842
82.02959714
89.17628158
93.48933411
95.17226833
94.65743714
92.2414375
88.39259503
83.55115706
78.04435236
72.11111129
66.04435949
59.91202272
53.86453461
47.9781897
42.2668407
36.78691334
31.5929354
26.72336944
22.21536932
18.09936994
14.3887573
11.08343804
8.169061463
5.624808019
3.430821072
1.55176457
-0.02755321978
-1.323491479
-2.347892703
-3.11346164
-3.626429824
-3.920744419
-4.017011817
-3.940818396
-3.725984323
-3.403528304
-2.998545574
-2.539433252
-2.060326911
-1.579399518
-1.107912486
-0.7001510812
-0.3591213366
-0.09510271359
0.09445978475
0.1917050972
0.2292979215
0.1796507142
0.05037229248
-0.1643770889
-0.4184533152
-0.7176343728
-1.062259434
-1.415445924
-1.798322517
-2.185669149
-2.576608626
-2.967329147
-3.350906806
-3.714121764
-4.04453854
-4.333587134
-4.581553478
-4.790866825
-4.961075042
-5.085006665
-5.154419247
-5.167678173
-5.131348782
-5.05562168
-4.941263121
-4.770306787
-4.547645146
-4.298871371
-4.038075408
-3.75972732
-3.452162449
-3.123674286
-2.812256438
-2.465995308
-2.130368631
-1.813441309
-1.50319712
-1.201276453
-0.9412117057
-0.7164949916
-0.4963291304
-0.3170809442
-0.08901090002
-1.9645637
-4.140713024
-9.133705559
-13.60309554
)


101
(
0.004486950984
1.036092101
6.156170886
16.0610402
29.20833736
43.59424363
57.57507993
69.70992299
79.3552302
86.22572361
90.34266865
91.90043084
91.30893447
88.87184937
85.03312893
80.21990286
74.76343239
68.90966858
62.94164492
56.94434151
51.0648531
45.37551077
39.88910124
34.64814289
29.69349517
25.05064331
20.74681084
16.80900949
13.25357935
10.08710523
7.304314251
4.894446568
2.849254328
1.147963067
-0.2157828245
-1.256764677
-1.988652669
-2.427337664
-2.587110694
-2.527864088
-2.285297734
-1.910879533
-1.450840912
-0.9579996234
-0.4623713397
0.004568843833
0.4015484112
0.7105962512
0.9171141425
0.9936967314
0.9457121544
0.7777413458
0.4936615402
0.09230378668
-0.4176442618
-1.008700554
-1.669849132
-2.4072571
-3.185730791
-3.991330242
-4.818487176
-5.640136985
-6.45205611
-7.243994923
-8.010106398
-8.744831204
-9.445015462
-10.09844842
-10.69185126
-11.20985887
-11.65389073
-12.02240305
-12.32413282
-12.55516049
-12.70477894
-12.76022495
-12.72772788
-12.62627207
-12.45970477
-12.20833005
-11.86392538
-11.46208975
-11.01400903
-10.53759216
-9.995608107
-9.382245331
-8.784306045
-8.130783505
-7.455534972
-6.801075252
-6.112741059
-5.431914425
-4.798469368
-4.214851379
-3.626157164
-3.044336345
-2.297125659
-6.543084439
-10.76730484
-18.80035774
-24.20632916
)


101
(
0.004464771476
1.006552402
5.965087811
15.55827132
28.29130316
42.21614363
55.73809295
67.47157681
76.78442235
83.40099292
87.34268439
88.79382217
88.14218746
85.69442835
81.87326497
77.09172711
71.68260773
65.89817166
60.0142841
54.13035259
48.3933634
42.8740945
37.58673561
32.5645865
27.83583548
23.4159436
19.32377688
15.5825732
12.21177869
9.226362826
6.632116393
4.429032707
2.618201931
1.190740203
0.1407155852
-0.5546287656
-0.9232344946
-0.9993273729
-0.8210808112
-0.4770538829
-0.01502131001
0.4962533836
1.001603645
1.444781582
1.794301228
2.016174454
2.069759819
1.949979487
1.663879967
1.206096227
0.5882649771
-0.1759227172
-1.067545414
-2.078516044
-3.196349377
-4.377034924
-5.624462134
-6.914321216
-8.233628567
-9.555743906
-10.86850807
-12.15393116
-13.40017188
-14.59646765
-15.73788345
-16.81686583
-17.83559611
-18.78912682
-19.66397085
-20.43905203
-21.11394541
-21.68099124
-22.15339016
-22.53240186
-22.81001424
-22.9647087
-23.00080143
-22.94040969
-22.77306305
-22.50342195
-22.11237121
-21.61757789
-21.04396744
-20.41941346
-19.69175009
-18.82943532
-17.95518632
-17.02738158
-16.03383177
-15.00824657
-13.91677841
-12.82595438
-11.75231244
-10.72774043
-9.692798774
-8.587084783
-7.171595609
-14.44027782
-20.90811637
-31.72981133
-38.06051513
)


101
(
0.004442665922
0.97754084
5.778155071
15.06717196
27.39745733
40.87675858
53.95867026
65.31057252
74.31209079
80.69558801
84.4816263
85.84392725
85.14832546
82.70104605
78.90587038
74.16118461
68.79910631
63.0772144
57.26600584
51.47740089
45.86092736
40.4877362
35.37571086
30.55391436
26.03984224
21.84137232
17.97109356
14.44978336
11.30034351
8.546353241
6.203394566
4.278858802
2.776802936
1.690383884
1.001504733
0.6685720409
0.6383541039
0.848464764
1.233842756
1.698278227
2.179774812
2.609433758
2.93005988
3.094162776
3.076877422
2.85424236
2.401576724
1.721618868
0.8346523861
-0.2405861846
-1.484440872
-2.876837036
-4.391914175
-6.009365065
-7.709391451
-9.463981707
-11.26102725
-13.07206093
-14.88849742
-16.69131038
-18.46057228
-20.18026718
-21.84001152
-23.42622397
-24.93334427
-26.36228983
-27.70567122
-28.96802479
-30.14481501
-31.20571666
-32.15436643
-32.97552459
-33.67040839
-34.25220441
-34.71975988
-35.05565126
-35.24581862
-35.30493244
-35.23971847
-35.04134685
-34.69376437
-34.20991909
-33.61193915
-32.92303736
-32.1254036
-31.13694621
-30.05694899
-28.9272781
-27.70566867
-26.38482146
-24.95494813
-23.5195986
-22.06150588
-20.60168479
-19.13694001
-17.49293669
-15.40604016
-25.86164058
-33.94203248
-45.68682462
-49.85897183
)


101
(
0.004420634985
0.9490528336
5.595308665
14.58750979
26.52618921
39.57479415
52.2345081
63.22344618
71.93342327
78.10333918
81.75201711
83.04243477
82.31857304
79.88339766
76.12342814
71.4221497
66.1089777
60.44558919
54.69855591
48.99075418
43.47684763
38.22981996
33.2729964
28.63517686
24.32660782
20.35075665
16.7161516
13.44237961
10.55490402
8.0825833
6.04462981
4.448614337
3.293325353
2.560776179
2.2081544
2.170327256
2.368395363
2.717004042
3.133785961
3.530511014
3.83667077
3.992835764
3.952534928
3.685155666
3.175922815
2.415188528
1.398560046
0.1349768024
-1.346574781
-3.016468293
-4.849513176
-6.81820027
-8.894074441
-11.05153953
-13.26717818
-15.52087292
-17.79883563
-20.06657586
-22.32167553
-24.54864486
-26.73178454
-28.84740779
-30.88912992
-32.84575081
-34.71373052
-36.48754757
-38.15870477
-39.73971134
-41.22007457
-42.59142048
-43.84276126
-44.96199866
-45.92874453
-46.76050714
-47.46307604
-48.0270777
-48.44037124
-48.7060215
-48.80851619
-48.76492083
-48.54585023
-48.1711852
-47.63862639
-46.97587944
-46.20721334
-45.22408411
-44.05637789
-42.82098316
-41.48352674
-40.01343203
-38.36565066
-36.70362803
-34.96849096
-33.21794359
-31.41417499
-29.34095456
-26.74208549
-39.3125015
-47.20823919
-56.94825486
-56.58024938
)


101
(
0.00439867943
0.9210838482
5.41648561
14.11905814
25.67690755
38.30900644
50.5634052
61.20688667
69.64382193
75.61835663
79.14669784
80.38127768
79.64431112
77.23312856
73.51816884
68.86801889
63.60747693
58.00103662
52.31246644
46.6741972
41.24880172
36.11225644
31.29470191
26.82766446
22.71787759
18.96800514
15.58483511
12.58638254
9.99664091
7.8428744
6.139389511
4.884119845
4.061270724
3.634660853
3.533271298
3.672456959
3.956435608
4.288747665
4.5821478
4.756807821
4.750699569
4.522218359
4.037919745
3.282273237
2.254444015
0.9593420328
-0.5918525918
-2.385430882
-4.389676778
-6.573604883
-8.902973807
-11.34954578
-13.88966934
-16.49211639
-19.13356241
-21.79822845
-24.47543637
-27.12986395
-29.75414423
-32.34242575
-34.88551461
-37.35328825
-39.73369888
-42.02887025
-44.23514449
-46.33173842
-48.32350373
-50.20321738
-51.98566205
-53.65482003
-55.19784722
-56.61070159
-57.86083702
-58.95680687
-59.90174887
-60.69272571
-61.34119163
-61.82030746
-62.11923168
-62.25515779
-62.18380841
-61.9408457
-61.52387927
-60.93562866
-60.21167354
-59.29432488
-58.15705446
-56.87746043
-55.51291143
-54.01754609
-52.2674528
-50.53421157
-48.61035245
-46.72298155
-44.74183365
-42.40268865
-39.39025761
-51.69332283
-56.62893413
-61.18655825
-54.83919396
)


101
(
0.00437680003
0.8936293776
5.241624308
13.66159693
24.84904163
37.07819976
48.94326017
59.25773187
67.43891056
73.23503643
76.65886956
77.85265657
77.11712537
74.74191449
71.0821708
66.49177901
61.28935098
55.74084058
50.10812515
44.53246705
39.18530845
34.14722042
29.45622877
25.15023199
21.23528195
17.71559892
14.5978569
11.89594381
9.625804799
7.804629879
6.434813123
5.496811056
4.951243736
4.745311483
4.784474305
4.974155064
5.213568746
5.40705024
5.472404257
5.340007543
4.965365552
4.319236865
3.38614265
2.166700265
0.6712977372
-1.087881841
-3.090375742
-5.316350276
-7.736388321
-10.32207064
-13.03584002
-15.85001361
-18.74526019
-21.68985575
-24.66159607
-27.64555327
-30.63412425
-33.59715576
-36.51795855
-39.39681622
-42.22481988
-44.9832366
-47.64721815
-50.22949019
-52.71916233
-55.08909409
-57.34666401
-59.48337205
-61.51597939
-63.4220458
-65.1935122
-66.83281015
-68.29930809
-69.60362417
-70.73290635
-71.67425717
-72.46392822
-73.07100131
-73.50358819
-73.73659701
-73.74663115
-73.57030836
-73.19224492
-72.63433165
-71.92337195
-71.01031874
-69.88843579
-68.5813321
-67.17697034
-65.67867061
-63.88365558
-62.14450223
-60.15946215
-58.2216803
-56.21524003
-53.69754659
-50.36216229
-59.3905568
-58.52482931
-55.33275796
-39.52031965
)


101
(
0.004354997536
0.8666850277
5.070663228
13.21491181
24.04204106
35.88122906
47.37206781
57.3729615
65.31451132
70.94804097
74.28205534
75.4490689
74.72885258
72.40152784
68.80746276
64.28611595
59.1489308
53.66192087
48.0856157
42.5702436
37.2947251
32.34666994
27.77276219
23.62113399
19.89911514
16.6125869
13.7678864
11.37090786
9.423057757
7.924084405
6.858369339
6.185962238
5.844016207
5.765635435
5.844202534
5.985191955
6.092230581
6.077989027
5.871429846
5.415950651
4.679360867
3.64947091
2.325702482
0.7182972404
-1.153840869
-3.272434135
-5.613739799
-8.156832792
-10.87233296
-13.73757616
-16.71974688
-19.79046927
-22.92987331
-26.11326416
-29.31465467
-32.51756367
-35.72380161
-38.90630213
-42.0375181
-45.11908042
-48.14742797
-51.10728481
-53.97350811
-56.75481462
-59.42481411
-61.98323996
-64.40890873
-66.69440021
-68.85648089
-70.87340338
-72.74613859
-74.46350512
-75.99731202
-77.35100947
-78.50638764
-79.44026394
-80.1733461
-80.7293026
-81.08691825
-81.23169169
-81.1500372
-80.85324583
-80.32304929
-79.6240894
-78.75736012
-77.70560883
-76.46334189
-75.03953401
-73.49914545
-71.91165617
-70.07050174
-68.27802937
-66.29792122
-64.33388441
-62.36300873
-59.75429824
-56.25161111
-58.94720565
-50.30888719
-38.67397341
-16.58355028
)


101
(
0.004333272582
0.8402463357
4.903547319
12.77879183
23.25537001
34.71699082
45.8479064
55.54968297
63.26658214
68.75222103
72.01007819
73.16332425
72.47158964
70.20388287
66.68611253
62.24361007
57.18015038
51.76052606
46.24392735
40.79076614
35.58399566
30.72125944
26.25868179
22.25705655
18.7265062
15.67233703
13.09839096
10.99953267
9.358481674
8.152956288
7.345450568
6.876768292
6.667776657
6.6412411
6.689529073
6.725446971
6.662606697
6.425485255
5.955790893
5.211585292
4.172868019
2.838531684
1.217203547
-0.6728106819
-2.808258044
-5.167799126
-7.72788345
-10.46769756
-13.358611
-16.38330722
-19.51620732
-22.73133376
-26.00610476
-29.32081441
-32.64913286
-35.96721235
-39.28439797
-42.5759253
-45.81354025
-48.99080255
-52.10559917
-55.14381875
-58.08884356
-60.93333659
-63.64564172
-66.23686253
-68.66452512
-70.92907241
-73.03457171
-74.97498279
-76.73519276
-78.29935235
-79.65603576
-80.79920835
-81.70938151
-82.37180183
-82.79952952
-82.99552194
-82.97751329
-82.74138129
-82.2803372
-81.57013071
-80.63312519
-79.52257145
-78.25418935
-76.82200539
-75.24074347
-73.53074641
-71.71376143
-69.90117916
-67.95850885
-66.02863857
-64.03151964
-62.06819587
-60.11866168
-57.47067679
-53.86354745
-48.35988379
-31.85810702
-13.18280541
12.26411224
)


101
(
0.004311625882
0.8143089749
4.74021566
12.35303351
22.48851492
33.58443254
44.36894763
53.78515119
61.29123246
66.64258747
69.83707795
70.98857114
70.33773658
68.14113207
64.71044532
60.35726092
55.37730702
50.03310349
44.58195928
39.19478319
34.05741595
29.27901475
24.92638599
21.07179159
17.72979482
14.90215249
12.5869195
10.76622022
9.40309829
8.452020971
7.85411755
7.535287283
7.407852189
7.388578549
7.376141331
7.293679054
7.068247299
6.638576608
5.95924353
5.000262674
3.750320092
2.214682043
0.4087316
-1.645410413
-3.923518899
-6.402929906
-9.061188204
-11.87846563
-14.83064576
-17.89992768
-21.06727544
-24.3108334
-27.6074127
-30.93937772
-34.28119002
-37.60639246
-40.91546932
-44.18682286
-47.4001926
-50.54101492
-53.58878574
-56.54997145
-59.399276
-62.119357
-64.67854578
-67.0829618
-69.28982783
-71.29277137
-73.08882746
-74.67717275
-76.0258047
-77.13945559
-78.00273867
-78.60107935
-78.9241196
-78.96812735
-78.73018939
-78.21742325
-77.47565943
-76.50573849
-75.3104062
-73.87214733
-72.22904901
-70.43681319
-68.49448704
-66.46786871
-64.35442548
-62.19296307
-59.99068343
-57.86220724
-55.75403865
-53.68619749
-51.65752911
-49.73671053
-47.8693717
-45.31459069
-41.78165034
-28.04698399
-5.664549563
17.02947013
41.67219617
)


101
(
0.004290058102
0.788868681
4.580609913
11.93743836
21.74098005
32.4825452
42.93344805
52.07675043
59.38477125
64.61439252
67.75743177
68.91826819
68.31995622
66.20561598
62.87289604
58.62003922
53.73449543
48.47569242
43.09831722
37.7827919
32.71853015
28.02618881
23.78553415
20.07556048
16.91662817
14.30450476
12.22843215
10.65800572
9.538262391
8.802861608
8.375797417
8.172487685
8.101644466
8.080245856
8.01669411
7.842934314
7.499788656
6.940924702
6.133185637
5.055661891
3.702545737
2.080997165
0.2101733724
-1.886997085
-4.187069404
-6.666609533
-9.30564355
-12.08543404
-14.98642531
-17.98713063
-21.072055
-24.22555948
-27.42394099
-30.64698068
-33.87190217
-37.07365949
-40.23772746
-43.34383771
-46.37013712
-49.29977465
-52.10109721
-54.78536865
-57.31893781
-59.67901717
-61.83800469
-63.78399214
-65.48603568
-66.9273776
-68.09560925
-68.99029886
-69.58561845
-69.89099799
-69.88588352
-69.56286412
-68.92524255
-67.97393339
-66.71281051
-65.14877145
-63.33943192
-61.30887092
-59.0815677
-56.66087349
-54.08246662
-51.41146505
-48.67507407
-45.92283085
-43.21873972
-40.58513328
-38.03303846
-35.65539085
-33.45940591
-31.37117075
-29.48148421
-27.77698519
-26.18991518
-23.98219382
-20.89337457
-0.8490137543
23.94571245
47.21993176
67.810687
)


101
(
0.004268569841
0.7639211335
4.424669821
11.53181105
21.01228347
31.41035618
41.53973991
50.42196452
57.54365322
62.66308278
65.76564215
66.94619547
66.41118792
64.3899029
61.16608028
57.02498011
52.24565636
47.08397482
41.79132579
36.55591938
31.57139803
26.9694252
22.84340717
19.27552417
16.29152986
13.88041466
12.02076761
10.67162733
9.763797584
9.214649244
8.936630753
8.839007042
8.829255711
8.828358735
8.754996191
8.547942415
8.159571652
7.557314005
6.719812227
5.632482406
4.291443384
2.702382297
0.8865569997
-1.13430572
-3.338021312
-5.700822221
-8.206163098
-10.83538624
-13.56927766
-16.38523203
-19.2695827
-22.20764967
-25.18124265
-28.158369
-31.11969125
-34.0400835
-36.89508607
-39.65961335
-42.30694252
-44.8169067
-47.1566985
-49.32178081
-51.28109773
-53.00404375
-54.47248066
-55.64939906
-56.5178217
-57.05522098
-57.24385865
-57.09166633
-56.57447033
-55.69766511
-54.45600324
-52.85700946
-50.91316841
-48.63952137
-46.05969041
-43.18104886
-40.07559505
-36.79658984
-33.40168313
-29.8998716
-26.34390944
-22.81471987
-19.35971569
-16.00780009
-12.87992517
-9.989610442
-7.35524637
-5.024491814
-3.044674307
-1.298666849
0.1211813444
1.245199119
2.208603868
3.622566602
5.710239739
28.87777035
52.5176822
73.82487173
89.20408488
)


101
(
0.004247161793
0.739459661
4.272351797
11.13596399
20.30196456
30.36694026
40.18624096
48.81841914
55.76453666
60.78434748
63.85649572
65.06640218
64.60469826
62.6868727
59.58284345
55.56521615
50.90461846
45.85326186
40.65870486
35.51495091
30.61941571
26.11429152
22.10546289
18.67674797
15.8580968
13.63267559
11.96822549
10.81553612
10.09658339
9.718760968
9.587835702
9.609732008
9.692327067
9.761180662
9.743783483
9.584839712
9.243524961
8.698084446
7.938859071
6.955048482
5.742666593
4.304066446
2.661096623
0.8340466584
-1.157042584
-3.288159613
-5.544706763
-7.905215402
-10.35261537
-12.8630865
-15.42094491
-18.01050152
-20.61638264
-23.19749726
-25.73396276
-28.19767245
-30.55478602
-32.77378728
-34.82210648
-36.67824276
-38.30357635
-39.67928552
-40.7794416
-41.56254702
-42.01768862
-42.09723461
-41.79012192
-41.07685464
-39.94148958
-38.39979672
-36.43341527
-34.06000413
-31.29133858
-28.15022967
-24.66600372
-20.87590065
-16.82623628
-12.5448055
-8.132065445
-3.643212097
0.8264245177
5.249144063
9.553037718
13.64054237
17.44589144
20.98058989
24.09202178
26.75683107
28.95528231
30.69729881
31.94029858
32.80020653
33.24333088
33.29081253
33.16335279
33.24524875
33.70532704
56.88394212
76.98658434
95.43167922
106.6037492
)


101
(
0.004225834658
0.715484562
4.123596597
10.74971229
19.60957442
29.35140438
38.87141959
47.26383709
54.04425449
58.97407934
62.02499621
63.27311064
62.89400302
61.08961315
58.11616779
54.23393841
49.70507862
44.77833711
39.69709133
34.65932804
29.86462336
25.46487552
21.57644675
18.28382163
15.62066969
13.56725315
12.08211998
11.11018247
10.57009213
10.3648125
10.39703967
10.57099237
10.7959284
11.00443141
11.12836637
11.11581407
10.92750156
10.54797106
9.979677275
9.214591908
8.246951108
7.075544139
5.722303194
4.205486946
2.542730976
0.7607294191
-1.126664083
-3.096513881
-5.133486523
-7.210067568
-9.306706182
-11.40299753
-13.48096702
-15.49871524
-17.43206065
-19.2481057
-20.89926316
-22.35198741
-23.56115958
-24.5071706
-25.14304906
-25.44487088
-25.38548537
-24.92268676
-24.040628
-22.70462364
-20.90162598
-18.62640627
-15.87423392
-12.66735418
-9.006974612
-4.928934598
-0.4718143817
4.318043488
9.390762783
14.68488733
20.12172888
25.64457592
31.13155117
36.50741016
41.67054172
46.5586839
51.09457503
55.1649611
58.68653455
61.72607854
64.1369996
65.89263615
66.972346
67.43411828
67.32373796
66.70503661
65.65099694
64.13114269
62.51088539
60.81473047
59.23576134
80.44398907
96.57197229
113.0812507
122.2666074
)


101
(
0.004204588844
0.6919923092
3.978347807
10.37287738
18.93468305
28.36289822
37.5938243
45.75606565
52.37981948
57.2283927
60.26639781
61.56079797