/*--------------------------------*- C++ -*----------------------------------*\
| =========                 |                                                 |
| \\      /  F ield         | OpenFOAM: The Open Source CFD Toolbox           |
|  \\    /   O peration     | Version:  2.3.1                                 |
|   \\  /    A nd           | Web:      www.OpenFOAM.org                      |
|    \\/     M anipulation  |                                                 |
\*---------------------------------------------------------------------------*/
FoamFile
{
    version     2.0;
    format      ascii;
    class       dictionary;
    location    "constant";
    object      la_r19;
}
// * * * * * * * * * * * * * * * * * * * * * * * * * * * * * * * * * * * * * //

la_r19_table
101
(

101
(
-6.882195373e-12
-1.314937442e-05
-0.0008151470635
-0.007375110052
-0.03079650872
-0.08526782951
-0.1850094518
-0.3471136867
-0.5850948169
-0.9136136751
-1.34589493
-1.896637297
-2.579155486
-3.411336811
-4.407031269
-5.581327311
-6.947965896
-8.513004663
-10.28737971
-12.24646175
-14.39164206
-16.69605937
-19.08973268
-21.53434159
-23.97460766
-26.3408625
-28.56708614
-30.59526183
-32.35543448
-33.81027623
-34.92583443
-35.69675269
-36.17574871
-36.18893422
-35.89835195
-35.30963275
-69.89603715
-128.8300161
-123.4798856
-117.335958
-110.6645318
-103.7268529
-96.55796598
-89.31354348
-82.1445442
-75.11794216
-68.31406416
-61.82193678
-55.66607583
-49.91900521
-44.59009016
-39.6990265
-35.24423964
-31.22217568
-27.61555794
-24.38878862
-21.5581516
-19.0353703
-16.83138519
-14.88649505
-13.19303885
-11.69575936
-10.37535212
-9.213453794
-8.194124343
-7.280659632
-6.465051457
-5.735296075
-5.079142922
-4.484708573
-3.947690384
-3.459932465
-3.018748174
-2.620080566
-5.225186602
-6.527049901
-5.393521437
-4.420113856
-3.58643547
-2.877836058
-2.279715416
-1.78502487
-1.375231671
-2.407412543
-2.761498448
-1.902022247
-1.273996531
-0.8241643211
-0.5126039423
-0.9345350832
-0.5604506926
-0.2546450378
-0.1007013931
-0.09801598799
-0.05355062294
-0.006141438725
3.880908401e-13
2.720564817e-31
-1.067975269e-22
9.269232076e-23
-6.764221183e-29
)


101
(
-6.779893617e-12
-2.687991602e-06
-8.606150655e-05
-0.0004322886737
-0.001098683697
-0.001988703054
-0.002980438455
-0.004023186637
-0.005060426672
-0.006082212196
-0.007070191002
-0.008026327913
-0.008937087159
-0.009857090987
-0.01079154256
-0.01173783495
-0.01267834657
-0.01366671121
-0.01469157663
-0.01568866909
-0.01684106207
-0.01806486525
-0.01928423777
-0.02056414558
-0.02188530585
-0.02319557047
-0.02451417779
-0.02577127634
-0.02677459495
-0.02766877544
-0.0286492876
-0.0298257811
-0.03123443177
-0.03163194656
-0.03118573091
-0.02672750333
-0.0320331209
-0.05289303964
-0.0570386768
-0.05525523866
-0.05269441053
-0.04939052288
-0.04601477065
-0.04243148614
-0.03892984465
-0.03587982593
-0.0332131242
-0.03071422786
-0.02861055308
-0.02652001336
-0.02429954345
-0.02185835544
-0.0194529781
-0.01731046827
-0.01576887658
-0.01451444596
-0.01333190616
-0.01215771167
-0.0111168268
-0.01022412256
-0.009338915469
-0.008485745693
-0.00768074121
-0.006949218244
-0.006293953421
-0.005791765871
-0.005282567316
-0.004789642398
-0.004350377042
-0.003989500359
-0.003618722748
-0.003387870991
-0.003255943888
-0.002853940563
-0.002457700184
-0.002395117387
-0.002104176003
-0.001859866021
-0.001642463964
-0.001372475281
-0.001180951117
-0.000991889511
-0.000800077647
-0.000680711738
-0.0005866219732
-0.0004766386955
-0.0003707346571
-0.0002712056568
-0.0001930432659
-0.0001441934735
-9.912317651e-05
-6.324082463e-05
-3.555120332e-05
-1.861782393e-05
-1.137704848e-05
-9.715155567e-06
-1.0034473e-06
-3.671221949e-06
-9.901003387e-06
-0.0001250492668
0.0003174477506
)


101
(
-6.676728976e-12
-6.291563398e-07
-9.973475809e-06
-2.9609502e-05
-5.219461718e-05
-7.632046484e-05
-0.0001062347908
-0.0001474050661
-0.0002049758479
-0.0002841739282
-0.0003884659607
-0.0005233331647
-0.0006948645949
-0.0009136113928
-0.001186020586
-0.001527203467
-0.00194181058
-0.002446146115
-0.003052916849
-0.003759052276
-0.004637363145
-0.005761722064
-0.007086273208
-0.008586989497
-0.01024332372
-0.01211355865
-0.01424127845
-0.01651462975
-0.01881715573
-0.02116312845
-0.02377635953
-0.02705573836
-0.03115822825
-0.03478423978
-0.03699237685
-0.03835107602
-0.0401593824
-0.04217789359
-0.04583589164
-0.0498207673
-0.05345220637
-0.05494227313
-0.05582320814
-0.05620875437
-0.05593301291
-0.05564205482
-0.05557798977
-0.0552743249
-0.05514340545
-0.05476658067
-0.05400383038
-0.05241597827
-0.05013059232
-0.04779885553
-0.04581747657
-0.04406667065
-0.04217361757
-0.04016939611
-0.03806893278
-0.03601858619
-0.03399040645
-0.03190807847
-0.02960605937
-0.02743010734
-0.02552846106
-0.02385048783
-0.02205602071
-0.02030343109
-0.01871044919
-0.01712457101
-0.01574379311
-0.01416577878
-0.01318573057
-0.01206715545
-0.01075055792
-0.009589364728
-0.008577021553
-0.007663395614
-0.006887086143
-0.006021999613
-0.005281756663
-0.004564174818
-0.003958099158
-0.003338692517
-0.002781209694
-0.002260946175
-0.001854943689
-0.001483358381
-0.001160246408
-0.0008743464123
-0.0006410495717
-0.0004388822018
-0.0003018187866
-0.0001948442263
-0.0001217986043
-7.70330237e-05
-2.785449241e-05
-7.757401883e-05
-0.0002189342611
-0.001546519481
0.0006231912438
)


101
(
-6.57271066e-12
-1.817863265e-07
-1.697195546e-06
-5.037756647e-06
-1.285401981e-05
-2.926681549e-05
-5.88169059e-05
-0.0001056395136
-0.0001748752846
-0.000272555647
-0.0004042448426
-0.0005784233162
-0.0008033091052
-0.001097379311
-0.001471449536
-0.001948537221
-0.002545500195
-0.003284410271
-0.004203862405
-0.005305528511
-0.006669948668
-0.008439206028
-0.01060106472
-0.01313941622
-0.01603888645
-0.01936605645
-0.02324761173
-0.02763291169
-0.03238181804
-0.03743680543
-0.04296364508
-0.0494508623
-0.05752705029
-0.06614582942
-0.07351814253
-0.07025542289
-0.08596270193
-0.09257400985
-0.09865344599
-0.1108464507
-0.1210869459
-0.1286077008
-0.1352693601
-0.1407691338
-0.1451123078
-0.149394528
-0.1537063816
-0.1577830922
-0.1612681125
-0.164322993
-0.1663021881
-0.1670796623
-0.1664667335
-0.1643805366
-0.1619454187
-0.1608200133
-0.1567124323
-0.1529940682
-0.1486201466
-0.1435217485
-0.1381026134
-0.1322208411
-0.1255724771
-0.1187043385
-0.1119588193
-0.1051395815
-0.09834970029
-0.09039062277
-0.08368833305
-0.07708958411
-0.07087737452
-0.0641326644
-0.05840221208
-0.05276697397
-0.0471435838
-0.04198935675
-0.03721089545
-0.03255303458
-0.02863973749
-0.02514626833
-0.02208999727
-0.01899870681
-0.01635404633
-0.01391606013
-0.0118027378
-0.009826547568
-0.008046040975
-0.006536718297
-0.005224841354
-0.004129922109
-0.003174682938
-0.002374705082
-0.001719730641
-0.001222736264
-0.0008302329652
-0.0005391753156
-0.0002766167159
-0.0008542567461
-0.002556184499
-0.01133161369
-0.01242147898
)


101
(
-6.467835662e-12
-7.80294599e-08
-7.687788849e-07
-3.516262351e-06
-1.162465766e-05
-2.940726967e-05
-6.206385762e-05
-0.0001148242432
-0.0001947006716
-0.0003099623334
-0.0004695119644
-0.0006857310512
-0.0009721362389
-0.001354061975
-0.001851686933
-0.002499987279
-0.003330073923
-0.0043826881
-0.005718931834
-0.007375843623
-0.009445029774
-0.0121085663
-0.0154906589
-0.01957787329
-0.02441113467
-0.03007620166
-0.03681671471
-0.04469521709
-0.05364195191
-0.0636434957
-0.07442597316
-0.08761118985
-0.1028089227
-0.120688303
-0.1381802893
-0.1554263764
-0.1730461993
-0.1918519667
-0.2134128332
-0.2386139187
-0.2649744126
-0.2900778973
-0.3152066219
-0.3391090636
-0.3624191829
-0.3866838915
-0.4106822459
-0.4339464895
-0.4561758747
-0.4801079499
-0.5029431394
-0.5240878633
-0.542558588
-0.5591769735
-0.573281003
-0.5849885892
-0.5952813031
-0.6032380061
-0.609272011
-0.6067208342
-0.6026057707
-0.5967563176
-0.5847580706
-0.5716063894
-0.557023624
-0.5346027353
-0.5112186745
-0.4843809283
-0.4565705185
-0.430263926
-0.3971205518
-0.3648572026
-0.3331451211
-0.3034171019
-0.2727839962
-0.2433101122
-0.2127586422
-0.1856486055
-0.1602024391
-0.1376326769
-0.118319537
-0.09928493438
-0.08300625079
-0.06899714546
-0.05692665243
-0.04604396076
-0.03687012053
-0.02945836456
-0.0233522806
-0.01824765545
-0.01399679937
-0.01061487156
-0.007942905934
-0.005853218711
-0.004259814363
-0.002893289296
-0.001718922398
-0.009097244281
-0.01890968546
-0.05172054088
-0.05178114452
)


101
(
-6.362098711e-12
-5.187476158e-08
-6.597656854e-07
-3.464619678e-06
-1.194209266e-05
-3.089901798e-05
-6.653831622e-05
-0.0001254654617
-0.0002169494366
-0.0003519783394
-0.000543678491
-0.0008094835063
-0.001170408993
-0.001659391053
-0.002311152011
-0.003176675721
-0.004307473292
-0.005774268177
-0.007673530993
-0.01008662658
-0.01315098426
-0.0171228811
-0.02222457529
-0.0285831174
-0.0363398383
-0.04568823307
-0.05697734918
-0.07054849918
-0.08653713291
-0.1050822668
-0.1263338071
-0.1508059512
-0.1797075749
-0.2144729376
-0.251954786
-0.2924265106
-0.3358332367
-0.3829111674
-0.4361541042
-0.4984104067
-0.5673187215
-0.6420905278
-0.7232380134
-0.8104504464
-0.903341595
-1.002834329
-1.108480954
-1.221720061
-1.341982463
-1.472083761
-1.605075309
-1.736856999
-1.865169577
-1.994859495
-2.12460792
-2.240334463
-2.346486213
-2.447473086
-2.551635258
-2.616419667
-2.6494634
-2.691470021
-2.690888038
-2.681713175
-2.667241793
-2.618735202
-2.553121793
-2.468506729
-2.353488278
-2.263281012
-2.131729935
-1.992362766
-1.842439047
-1.699340417
-1.550961021
-1.40253329
-1.256240431
-1.114931983
-0.9701571873
-0.839375721
-0.7213624431
-0.6187684979
-0.5188748912
-0.4331041488
-0.3562783288
-0.2897436171
-0.2293146291
-0.181102884
-0.1411842246
-0.1093676722
-0.0831272926
-0.06138028305
-0.04554381103
-0.03309675305
-0.02397046694
-0.016148101
-0.01022473453
-0.04772852385
-0.08107996897
-0.2215331469
-0.2818544757
)


101
(
-6.255494154e-12
-4.375583471e-08
-6.436387076e-07
-3.50866232e-06
-1.231720951e-05
-3.241057473e-05
-7.105450199e-05
-0.0001364384937
-0.0002408819032
-0.0003981306345
-0.0006264002074
-0.0009502285769
-0.001399282708
-0.002018367598
-0.00286058623
-0.003998739868
-0.005516545128
-0.00752377904
-0.01017316346
-0.01361531417
-0.01805962029
-0.02387323668
-0.03149173584
-0.0412157605
-0.05339166524
-0.06844194985
-0.08689328505
-0.1094954009
-0.1369261051
-0.1697532198
-0.2085530698
-0.2541292057
-0.3079871232
-0.3740108464
-0.4504604007
-0.537998592
-0.637803299
-0.7523277155
-0.8867338828
-1.048306818
-1.239545184
-1.460669396
-1.713625461
-2.004560827
-2.32914066
-2.682974376
-3.065681878
-3.491213034
-3.956778113
-4.447432979
-4.965174817
-5.466451854
-5.952146599
-6.430991479
-6.927547188
-7.364264573
-7.736645737
-8.096564994
-8.422145782
-8.659120403
-8.825760176
-8.972803697
-9.017638698
-8.977924705
-8.910129646
-8.773920588
-8.572261033
-8.322059252
-7.995962411
-7.659529098
-7.280649629
-6.874714263
-6.435867865
-5.99247233
-5.53507444
-5.069925297
-4.62128415
-4.170843337
-3.718142917
-3.287670877
-2.880469856
-2.521397727
-2.175531207
-1.860492419
-1.578363163
-1.321516684
-1.087673426
-0.881716587
-0.7102487705
-0.5702731505
-0.4467820335
-0.3410858741
-0.2601372395
-0.1939868879
-0.1448442679
-0.09789376159
-0.05962920437
-0.2283263101
-0.345916308
-0.6539332966
-0.7952627946
)


101
(
-6.1480161e-12
-3.989305293e-08
-6.377040735e-07
-3.556844899e-06
-1.269048252e-05
-3.391870016e-05
-7.557581473e-05
-0.0001476557937
-0.000266493336
-0.0004484563595
-0.000718160962
-0.001108357276
-0.001660891062
-0.002434891294
-0.003510168793
-0.004986847917
-0.006994206287
-0.009698358831
-0.01332542734
-0.0181371414
-0.02445387244
-0.03281137215
-0.0439762284
-0.05847614068
-0.07701519656
-0.1004793299
-0.1298141738
-0.1664085376
-0.2118695962
-0.2679091931
-0.3363440204
-0.4193971058
-0.5205949355
-0.6469476881
-0.8029787355
-0.9952677962
-1.228421556
-1.509835905
-1.855567918
-2.279942728
-2.791866166
-3.39210504
-4.094277413
-4.904056847
-5.807267994
-6.785122191
-7.813934194
-8.909940066
-10.08115155
-11.27694702
-12.50572489
-13.64327284
-14.72616068
-15.75347944
-16.73956286
-17.59093154
-18.30572751
-18.90266415
-19.38868526
-19.69032651
-19.83641827
-19.91723635
-19.84394578
-19.63740942
-19.32372622
-18.90296251
-18.35524881
-17.76565
-17.06897936
-16.3312666
-15.55012802
-14.70446006
-13.8187832
-12.91908307
-12.02227592
-11.1090602
-10.22351861
-9.3486321
-8.493994985
-7.66198902
-6.847005321
-6.085226717
-5.382386413
-4.713424592
-4.109040615
-3.549600791
-3.025953171
-2.547677161
-2.131127391
-1.772441859
-1.459602
-1.167965827
-0.9356806361
-0.7397866158
-0.5788657992
-0.4262712349
-0.2773379617
-0.6831756669
-0.9228835197
-1.37386346
-1.614994747
)


101
(
-6.039658801e-12
-3.705353011e-08
-6.322625605e-07
-3.599344806e-06
-1.305425056e-05
-3.545187815e-05
-8.025560082e-05
-0.0001594735011
-0.0002940930518
-0.0005035956264
-0.0008203362223
-0.001287093697
-0.00196076891
-0.002920013956
-0.004276756525
-0.006170036031
-0.008790060079
-0.01237777365
-0.01726886069
-0.02385887568
-0.0326669232
-0.04448488692
-0.0605128201
-0.08165825042
-0.109120235
-0.1445798756
-0.1900377426
-0.2482341115
-0.3226260251
-0.4174736543
-0.5380746047
-0.6913339266
-0.8865190355
-1.137957966
-1.466409465
-1.888243507
-2.414539609
-3.06577529
-3.882235986
-4.871686803
-6.051331989
-7.421530944
-8.958827859
-10.65430165
-12.47979119
-14.39805751
-16.34887372
-18.31799216
-20.34213833
-22.2957372
-24.13747169
-25.79009357
-27.30086867
-28.57875208
-29.74959496
-30.73177087
-31.41570103
-31.87736043
-32.15376786
-32.18561688
-32.0012706
-31.69505251
-31.16998821
-30.52148515
-29.74963145
-28.88143636
-27.8942642
-26.82646852
-25.66591785
-24.42464741
-23.17794429
-21.88550155
-20.61567958
-19.3394371
-18.05645805
-16.7836104
-15.54340459
-14.32751516
-13.15142354
-12.01069137
-10.91370548
-9.851329839
-8.869993521
-7.925554736
-7.063034968
-6.240519985
-5.48236122
-4.763338071
-4.11698093
-3.537518834
-3.019330011
-2.526959685
-2.117505622
-1.760932915
-1.446488799
-1.146855791
-0.7918909715
-1.391797404
-1.707637139
-2.093841117
-2.319233262
)


101
(
-5.930416311e-12
-3.44760237e-08
-6.259577038e-07
-3.634191628e-06
-1.3391321e-05
-3.696567228e-05
-8.508835431e-05
-0.000172071155
-0.0003233350907
-0.0005624988201
-0.0009324103679
-0.001487669318
-0.00230390531
-0.003484978639
-0.005181284124
-0.007584958768
-0.01096902541
-0.01567428618
-0.02218025427
-0.03109431727
-0.04318424536
-0.05957054683
-0.08198123416
-0.1122574477
-0.1520596627
-0.2045756123
-0.2739312701
-0.3655729286
-0.4867308988
-0.6471942749
-0.8604157278
-1.14532768
-1.525670159
-2.02637364
-2.690982029
-3.553208318
-4.632527723
-5.95845315
-7.593800961
-9.497804998
-11.66423184
-14.05707572
-16.62602269
-19.31423261
-22.07245065
-24.8426023
-27.53669524
-30.1277071
-32.60209439
-34.82291059
-36.77940494
-38.43895848
-39.80483245
-40.82911923
-41.6214317
-42.10542632
-42.29674655
-42.14979172
-41.81386477
-41.24860954
-40.44471481
-39.52970547
-38.41927209
-37.20503854
-35.89534683
-34.50942706
-33.05669901
-31.54150076
-29.98571335
-28.41107638
-26.85394495
-25.30078471
-23.76618266
-22.2703251
-20.81367649
-19.40218167
-18.02948521
-16.7030698
-15.4417518
-14.22600946
-13.05984205
-11.9483042
-10.89994164
-9.908290711
-8.982001447
-8.102875077
-7.285002638
-6.499980932
-5.776237033
-5.109778908
-4.500111892
-3.921667716
-3.409085172
-2.949373798
-2.528028154
-2.099902786
-1.593132989
-2.154089528
-2.377165623
-2.288425453
-2.101711626
)


101
(
-5.820282971e-12
-3.19808992e-08
-6.189128683e-07
-3.665267242e-06
-1.372137709e-05
-3.849487668e-05
-9.007320248e-05
-0.0001853391255
-0.0003545387146
-0.0006258504097
-0.00105580296
-0.001712140323
-0.002693956109
-0.004137165669
-0.006237851106
-0.009259845447
-0.01358528238
-0.01968499658
-0.02822326744
-0.04008629101
-0.05642683871
-0.07885548027
-0.1097842952
-0.1525648503
-0.2097075552
-0.2871429792
-0.3929647872
-0.5377298302
-0.736013285
-1.008969507
-1.384748077
-1.901365747
-2.605480643
-3.539150679
-4.76133873
-6.314922703
-8.218106348
-10.48501987
-13.14681705
-16.08973482
-19.27195062
-22.60069271
-26.00152707
-29.36541886
-32.63708781
-35.75252162
-38.60208345
-41.15055147
-43.3677355
-45.18613681
-46.61840069
-47.67328858
-48.35029072
-48.63474919
-48.55333466
-48.19181348
-47.57866783
-46.65395937
-45.53687684
-44.24236772
-42.75969556
-41.18671448
-39.51908475
-37.78800422
-36.00940053
-34.20687102
-32.42061719
-30.62648148
-28.8543598
-27.11256513
-25.42504088
-23.79411312
-22.22510471
-20.72410178
-19.29618892
-17.94260872
-16.6607398
-15.44889902
-14.31271105
-13.24565856
-12.24313623
-11.30148686
-10.41861155
-9.591209153
-8.829151986
-8.116180645
-7.444003827
-6.804735969
-6.205412844
-5.65149587
-5.134200599
-4.638859343
-4.180340862
-3.754504799
-3.359901471
-2.912181577
-2.36235507
-2.52864706
-2.401818863
-1.396733698
-0.9877794517
)


101
(
-5.709273401e-12
-2.953131714e-08
-6.10760373e-07
-3.691438375e-06
-1.404422833e-05
-4.004944785e-05
-9.526510994e-05
-0.0001993382109
-0.0003874706004
-0.0006941156222
-0.001191655761
-0.001962446521
-0.003134832618
-0.004884750737
-0.007464824013
-0.01123053099
-0.01669443376
-0.02450577588
-0.03556933682
-0.05115576546
-0.07303715117
-0.103549125
-0.1463094825
-0.2066699919
-0.28969785
-0.4053418088
-0.5676758767
-0.7969092487
-1.120925994
-1.57911689
-2.219373105
-3.100280546
-4.289392536
-5.847432567
-7.822286558
-10.23715648
-13.0806929
-16.32018657
-19.9187639
-23.68622276
-27.55185814
-31.38339864
-35.08749615
-38.55126256
-41.72085976
-44.52702556
-46.85883053
-48.70709045
-50.09244929
-51.00110098
-51.46020049
-51.50377806
-51.17139899
-50.46258767
-49.39885092
-48.13109376
-46.62203668
-44.91161766
-43.03860692
-41.07789067
-39.01745879
-36.91718407
-34.80018403
-32.68972576
-30.60719525
-28.56243679
-26.58095038
-24.66434606
-22.82070585
-21.06295367
-19.40109923
-17.84327824
-16.38701788
-15.03009435
-13.77472492
-12.62544769
-11.57863143
-10.62311879
-9.761161482
-8.986475488
-8.294992593
-7.673760241
-7.115434645
-6.608209933
-6.170677354
-5.79772372
-5.447137451
-5.119778182
-4.817687857
-4.546040644
-4.304709816
-4.059008339
-3.821629595
-3.590396523
-3.375136998
-3.082251041
-2.6796945
-1.99162689
-1.230816887
0.9992804827
1.959199888
)


101
(
-5.597412777e-12
-2.712112412e-08
-6.017498503e-07
-3.713683125e-06
-1.435896592e-05
-4.162501603e-05
-0.0001007191083
-0.00021420871
-0.0004216268929
-0.0007662562018
-0.00134115463
-0.00224097761
-0.003632604567
-0.005743165934
-0.008892070724
-0.01354432331
-0.02036003171
-0.03021910233
-0.04437082722
-0.06467487274
-0.09380784747
-0.1352412315
-0.1944427426
-0.2792353229
-0.3992324639
-0.5715393732
-0.82066463
-1.181529139
-1.700619683
-2.438411176
-3.460377904
-4.838033969
-6.645495281
-8.941522824
-11.73325751
-14.99378702
-18.65354415
-22.61200089
-26.76146343
-30.89438713
-34.90197596
-38.65343951
-42.04856457
-45.00046759
-47.47560497
-49.43227374
-50.80192274
-51.58945659
-51.84457385
-51.61381872
-50.94001425
-49.87488721
-48.47958735
-46.78259098
-44.81987364
-42.69252439
-40.40799725
-38.01681931
-35.54531713
-33.05377849
-30.55439316
-28.08420417
-25.66684996
-23.3220783
-21.06822921
-18.91581648
-16.87497221
-14.94760456
-13.13638427
-11.45702729
-9.910224487
-8.506722285
-7.245877866
-6.115927853
-5.11242718
-4.236749306
-3.489929846
-2.860200516
-2.339304273
-1.925277513
-1.614521917
-1.385985053
-1.22755346
-1.126574749
-1.088601575
-1.138088717
-1.220131691
-1.304409574
-1.404301727
-1.525957435
-1.675780047
-1.796766222
-1.906842786
-2.002668901
-2.090651553
-2.101086542
-2.008420415
-0.07618297015
1.438174541
4.703199554
5.408602328
)


101
(
-5.484643657e-12
-2.474684918e-08
-5.920420464e-07
-3.731820963e-06
-1.466873994e-05
-4.321653726e-05
-0.000106323377
-0.0002297525329
-0.000457634569
-0.0008433596764
-0.001504145829
-0.002549077767
-0.004189957306
-0.006716763276
-0.01053119029
-0.01622833729
-0.02465987058
-0.0369961265
-0.05496468133
-0.08123500701
-0.1197021675
-0.1755862978
-0.2571558456
-0.3762323059
-0.5495388303
-0.8046892125
-1.18180889
-1.734709401
-2.529792987
-3.641586532
-5.139076506
-7.091003012
-9.559497936
-12.56858342
-16.05558894
-19.93192021
-24.0678741
-28.31033337
-32.50808616
-36.47882408
-40.08839134
-43.22955401
-45.82429873
-47.83027996
-49.24053131
-50.05191388
-50.25451381
-49.86623923
-48.95797593
-47.60331046
-45.84525682
-43.75788665
-41.42124387
-38.87155277
-36.15210377
-33.33080509
-30.44313448
-27.53601802
-24.63000996
-21.76394202
-18.96055811
-16.25212144
-13.65697221
-11.19099559
-8.86661928
-6.694471354
-4.681743406
-2.820339719
-1.115148965
0.4305099571
1.812621029
3.024874114
4.054164691
4.919422595
5.631748874
6.197112124
6.621229121
6.912971395
7.065783896
7.101826444
7.01381571
6.835930564
6.572207516
6.241445444
5.862927419
5.386287237
4.842353292
4.311416135
3.779395097
3.23855889
2.659942694
2.13177392
1.614332889
1.146315565
0.6890836965
0.3006561843
-0.004063540515
3.208409777
5.213330037
8.79204631
8.842745048
)


101
(
-5.370960169e-12
-2.241778147e-08
-5.815377212e-07
-3.745763525e-06
-1.497458547e-05
-4.484505428e-05
-0.0001120740806
-0.0002459519586
-0.000495451307
-0.0009256240335
-0.001678148497
-0.002890786949
-0.004812140156
-0.007809739349
-0.01238926656
-0.01930576582
-0.02968988998
-0.04509813721
-0.067902695
-0.1021935696
-0.1527761197
-0.2276934158
-0.3392775434
-0.5061976989
-0.7552656861
-1.1269093
-1.6796376
-2.48414626
-3.620111277
-5.163482435
-7.168155814
-9.675207592
-12.71175581
-16.25247544
-20.15857401
-24.29073253
-28.48013948
-32.5513967
-36.34270472
-39.69584231
-42.49712685
-44.68502041
-46.20693387
-47.05654649
-47.26187911
-46.85886129
-45.88692518
-44.37611246
-42.40838301
-40.05883915
-37.38485932
-34.46161819
-31.36590075
-28.14403706
-24.8434016
-21.51255267
-18.18344977
-14.91210644
-11.71259334
-8.609870388
-5.619962078
-2.778970307
-0.1065831815
2.394407616
4.715635283
6.83531986
8.761175103
10.48902028
12.03918081
13.40088047
14.5708639
15.5537074
16.3262027
16.9047201
17.29903942
17.52131349
17.604853
17.53806611
17.32116964
16.97787617
16.48562764
15.89877148
15.22917312
14.48176703
13.68286791
12.80886074
11.85869748
10.89423319
9.965345644
9.051890655
8.075260814
7.194480244
6.272549466
5.460687162
4.665057571
3.91264255
3.176205068
7.155423778
8.943761704
11.82198242
11.22244675
)


101
(
-5.256356618e-12
-2.014149396e-08
-5.693571698e-07
-3.756233856e-06
-1.526996603e-05
-4.647481522e-05
-0.0001179505032
-0.0002627973576
-0.0005351614775
-0.001013186793
-0.001864365238
-0.003267550496
-0.005503798631
-0.009029984395
-0.01448715619
-0.02282710727
-0.03555377352
-0.05476778792
-0.08368064101
-0.1283298739
-0.1945015089
-0.2947001233
-0.4473000468
-0.6798765949
-1.032095971
-1.557537151
-2.329987355
-3.427245587
-4.928762435
-6.897596435
-9.361650739
-12.31366118
-15.71818813
-19.51017388
-23.48878241
-27.48995709
-31.33437738
-34.85361411
-37.9010549
-40.34407131
-42.11648148
-43.18559061
-43.5388195
-43.21018187
-42.25530987
-40.72438842
-38.68785409
-36.20030448
-33.3409509
-30.17868865
-26.78442573
-23.22250688
-19.55607979
-15.83975191
-12.12069198
-8.437542082
-4.81413388
-1.307492415
2.06343705
5.285922882
8.348281436
11.22560503
13.88749052
16.34548387
18.58597728
20.58157401
22.34548445
23.87716043
25.20538068
26.31285058
27.20378097
27.89362854
28.3512154
28.60189634
28.64079149
28.46910224
28.1526737
27.68271229
27.08376383
26.33821205
25.44033882
24.44990378
23.37133593
22.23734852
21.06364887
19.81951358
18.52406786
17.20107915
15.92945591
14.7215863
13.43271929
12.28867886
11.07682993
9.998245884
8.972124876
7.919673899
6.807201012
10.67323127
11.41807627
12.68831406
9.161302216
)


101
(
-5.140827406e-12
-1.794237714e-08
-5.494192774e-07
-3.76340288e-06
-1.555686554e-05
-4.80975251e-05
-0.0001239367265
-0.0002802668439
-0.0005778998552
-0.001107818178
-0.002063462348
-0.003678191087
-0.006267315816
-0.01039298224
-0.0168668608
-0.02688730465
-0.04240956077
-0.06623106483
-0.1027059552
-0.160215449
-0.2464752967
-0.3800894991
-0.5883627301
-0.9072969848
-1.391221859
-2.103989494
-3.123388207
-4.520203993
-6.360359344
-8.681277576
-11.47492272
-14.68220868
-18.2040736
-21.94153838
-25.66413715
-29.21055239
-32.41288837
-35.12608946
-37.23470314
-38.638837
-39.30226738
-39.23897226
-38.47182253
-37.0554891
-35.06685057
-32.56834871
-29.64465947
-26.3595713
-22.79135029
-19.00497024
-15.07182334
-11.04738421
-6.98389887
-2.93138968
1.060728226
4.954685052
8.741412756
12.36490422
15.79428158
19.02234062
22.04857482
24.85476878
27.41167786
29.73097284
31.7812508
33.56984195
35.0778376
36.31123262
37.30810679
38.05530482
38.57241797
38.86315305
38.91347951
38.74743572
38.35706044
37.7311516
36.92198575
35.99303254
34.9408561
33.76199175
32.45695086
31.05556708
29.55974492
28.05947929
26.54048929
24.98607232
23.40814292
21.82314861
20.28712181
18.87121451
17.40691135
16.08989777
14.74677285
13.51486315
12.38336992
11.16822235
9.852792762
12.56921801
11.67298255
11.12947932
6.641750453
)


101
(
-5.024366427e-12
-1.580584961e-08
-5.455675504e-07
-3.766037709e-06
-1.582967626e-05
-4.970818202e-05
-0.0001300171116
-0.0002983283785
-0.0006246445911
-0.001213214879
-0.002275580008
-0.0041198545
-0.007100999646
-0.01191627553
-0.01959763259
-0.03166148855
-0.05058096442
-0.08005355004
-0.1259305085
-0.1986166548
-0.3107501116
-0.4876966779
-0.7684674581
-1.193787679
-1.830829018
-2.748261506
-4.014766944
-5.679806179
-7.785786677
-10.33614648
-13.27923558
-16.51425865
-19.90285545
-23.31734711
-26.52743429
-29.39591932
-31.77871632
-33.55850025
-34.65273766
-35.00052015
-34.59804781
-33.49233615
-31.72338695
-29.36762438
-26.5154092
-23.23363426
-19.6084995
-15.70449845
-11.60312338
-7.363018994
-3.05126817
1.28230501
5.591693257
9.836445377
13.96890054
17.94451005
21.76647102
25.3798265
28.75187516
31.86716749
34.73188054
37.33551879
39.66385843
41.71381694
43.44859477
44.89605555
46.00970728
46.81334856
47.3392437
47.60376332
47.61064167
47.36410708
46.87788247
46.17035439
45.23576376
44.07473316
42.73076424
41.24434482
39.67044928
38.02077663
36.29783372
34.47582932
32.60154561
30.75600934
28.94005989
27.13134971
25.3375102
23.59459324
21.90190031
20.37760129
18.88986835
17.50277936
16.16171217
14.92789938
13.79142426
12.55387958
11.19143212
12.15007287
9.650538049
7.773989585
3.014479907
)


101
(
-4.906968098e-12
-1.371393919e-08
-5.333774855e-07
-3.764186429e-06
-1.608631174e-05
-5.130060172e-05
-0.0001361809808
-0.0003170058886
-0.0006738556301
-0.001325610702
-0.002502863633
-0.004596776407
-0.008016330266
-0.01361114514
-0.02268171505
-0.03714149497
-0.06012133754
-0.09652499319
-0.1542516541
-0.2462119386
-0.3914898772
-0.6228293739
-0.9906858243
-1.537642752
-2.336590527
-3.454577133
-4.938793474
-6.805278323
-9.068684379
-11.69579328
-14.59395628
-17.63904989
-20.68286306
-23.57596612
-26.10671795
-28.17129205
-29.65897986
-30.48317693
-30.59214217
-29.95828112
-28.60107734
-26.58874084
-23.97535417
-20.84955548
-17.30826131
-13.41976883
-9.267839979
-4.9128092
-0.4331551129
4.112778356
8.66162486
13.16720274
17.58597233
21.88586151
26.02540444
29.95996278
33.68641755
37.15185298
40.33408782
43.2074214
45.75590984
48.00816567
49.94549395
51.55976125
52.81949563
53.75323549
54.31689387
54.5321208
54.43352385
54.05778817
53.3901655
52.4769244
51.33140739
49.96502639
48.39030069
46.62336956
44.67666199
42.59763089
40.48365193
38.35210788
36.20812593
34.01671969
31.82909067
29.7213348
27.66605894
25.72333047
23.82597002
22.03596338
20.32031722
18.80853106
17.4138194
16.10021717
14.86033171
13.74311805
12.71679586
11.60129676
10.36544037
9.613160762
6.139571928
3.742939173
-0.9751065034
)


101
(
-4.788626851e-12
-1.167039246e-08
-5.176462159e-07
-3.757283047e-06
-1.632557058e-05
-5.286866163e-05
-0.0001424049869
-0.0003367083216
-0.0007264434925
-0.00144574951
-0.002759599074
-0.005101565223
-0.009035684084
-0.01552724149
-0.02620011989
-0.04346334888
-0.07128982966
-0.1162226756
-0.188844398
-0.3057487678
-0.4926608315
-0.7903065338
-1.25400123
-1.929229523
-2.881689833
-4.170523114
-5.815497268
-7.793059208
-10.08753034
-12.63490944
-15.31472119
-17.99417811
-20.53518789
-22.7877472
-24.56644728
-25.79360171
-26.39439563
-26.3141808
-25.52696698
-24.03042534
-21.86283902
-19.10313265
-15.81173874
-12.08244122
-8.015143271
-3.679841789
0.8433363369
5.499816506
10.21794632
14.936893
19.59321515
24.14398447
28.54396034
32.76061656
36.76314285
40.51631773
44.00457995
47.17767702
50.01382029
52.48443243
54.55928503
56.28723972
57.6485582
58.64083069
59.25242616
59.49092968
59.3392678
58.8102125
57.93430776
56.76321713
55.30208888
53.61366336
51.70554432
49.60574044
47.35259444
44.96262392
42.44139493
39.82417913
37.21411551
34.66030664
32.1845769
29.75366485
27.38461452
25.13999918
23.02354535
21.06789621
19.23346613
17.54793233
15.96807047
14.61224347
13.42378473
12.29125446
11.28739742
10.38144291
9.564867627
8.664190656
7.702544231
5.875146376
2.296767304
0.01066428611
-3.897581749
)


101
(
-4.669336594e-12
-9.642169351e-09
-4.884630071e-07
-3.744858016e-06
-1.654551105e-05
-5.439744336e-05
-0.0001486866784
-0.0003569953862
-0.0007813939635
-0.001572868221
-0.003037619023
-0.005643139809
-0.01015920053
-0.01768413251
-0.03019287141
-0.05073219442
-0.08435865473
-0.1397100825
-0.2307310322
-0.3786903343
-0.6155110481
-0.9887588585
-1.552409937
-2.350397817
-3.431081056
-4.838955505
-6.568766799
-8.561118028
-10.76637481
-13.09750065
-15.42528844
-17.62091332
-19.56358054
-21.12380975
-22.14673172
-22.56867277
-22.34712324
-21.45831409
-19.89739378
-17.68064344
-14.85762912
-11.51034023
-7.700743618
-3.522752008
0.9231099962
5.564392262
10.32245718
15.14643536
19.96952948
24.73282972
29.37264095
33.84278806
38.10070939
42.0964743
45.81017948
49.2179575
52.30364257
55.01583315
57.33361251
59.22665816
60.66671053
61.68768349
62.29024578
62.47653171
62.27715317
61.66172089
60.65024662
59.25167341
57.49484329
55.4605497
53.16242398
50.6537717
47.96823512
45.15946278
42.2768542
39.34688504
36.37746544
33.37470122
30.4315256