/*--------------------------------*- C++ -*----------------------------------*\
| =========                 |                                                 |
| \\      /  F ield         | OpenFOAM: The Open Source CFD Toolbox           |
|  \\    /   O peration     | Version:  2.3.1                                 |
|   \\  /    A nd           | Web:      www.OpenFOAM.org                      |
|    \\/     M anipulation  |                                                 |
\*---------------------------------------------------------------------------*/
FoamFile
{
    version     2.0;
    format      ascii;
    class       dictionary;
    location    "constant";
    object      la_r10;
}
// * * * * * * * * * * * * * * * * * * * * * * * * * * * * * * * * * * * * * //

la_r10_table
101
(

101
(
0.007723089556
0.2325063737
1.074180664
2.68897067
4.961636673
7.704264219
10.71897678
13.80661965
16.81700212
19.63366639
22.15242417
24.31560532
26.10212438
27.48999632
28.52810072
29.27278798
29.78292306
30.11498638
30.34004895
30.42857549
30.40251921
30.23088101
29.85071689
29.26296935
28.48040271
27.52789634
26.44722297
25.28815158
24.09471685
22.90769986
21.75693595
20.66235662
19.63050667
18.68772973
17.82717487
17.05523783
16.41619108
15.86074107
15.19716175
14.58518661
14.01738797
13.48394641
12.9851058
12.51569389
12.07081843
11.64956092
11.24801422
10.86448242
10.49604218
10.14128279
9.797824521
9.464215988
9.138978079
8.820613713
8.508264793
8.200860251
7.897165707
7.59675756
7.298581698
7.002303763
6.707161225
6.41392201
6.121561689
5.830255412
5.54056711
5.252859496
4.967096706
4.683649932
4.403385598
4.127283365
3.855932651
3.590739724
3.333067498
3.086434056
2.87724788
2.649313113
2.395264981
2.151657768
1.919511077
1.699454716
1.493406364
1.302491026
1.129341392
0.9850429765
0.827365508
0.6775022026
0.5446251222
0.4286133969
0.3304641376
0.256632578
0.1802188382
0.1194023531
0.07580837779
0.04164660953
0.01946124067
0.004718111553
8.725464061e-17
-3.773414043e-32
-1.387889705e-26
8.321071307e-27
-4.05163386e-25
)


101
(
0.007703865617
0.2274097245
1.044623201
2.607898816
4.800753056
7.435655336
10.31830058
13.25479058
16.10127559
18.74682822
21.09624722
23.09548961
24.72751846
25.97386028
26.87960616
27.49807965
27.88508885
28.09492428
28.1987472
28.17569325
28.0537978
27.80982539
27.39052855
26.79383329
26.02721878
25.10960209
24.07493322
22.96573971
21.82117705
20.67923386
19.56799845
18.50789107
17.50977347
16.57993487
15.73302756
14.96656661
14.30312326
13.72791852
13.13798557
12.5565722
12.00865707
11.49743224
11.01776025
10.56892175
10.14787826
9.749830313
9.373618676
9.015515358
8.674509841
8.347897822
8.034832326
7.73313428
7.44155821
7.158769643
6.883921843
6.616144962
6.353744162
6.097565982
5.84536137
5.597480014
5.352806106
5.111597245
4.873426643
4.637899322
4.405183118
4.175634886
3.949209493
3.725908017
3.505870547
3.289898962
3.078221541
2.871315872
2.669774989
2.475190186
2.296618667
2.125570013
1.94876583
1.768772506
1.591468716
1.421169097
1.260425768
1.109883584
0.9705315276
0.846951316
0.7318983951
0.6188292915
0.5114627508
0.414784901
0.3300781272
0.2592767583
0.1990352657
0.1444726178
0.09952599394
0.06539180579
0.0388599284
0.01948005664
0.006155603193
0.00651913496
0.006861226482
0.0073023807
0.007712141022
)


101
(
0.007684668007
0.2223908321
1.015695712
2.52889035
4.644723851
7.176598772
9.934092922
12.72887138
15.42329189
17.91197082
20.10787013
21.96063094
23.45654755
24.5805039
25.37417543
25.88797068
26.17479301
26.28674813
26.29386127
26.18328407
25.98696333
25.68893271
25.24474666
24.65068725
23.90996175
23.03617656
22.05645979
21.00662289
19.92107019
18.83459018
17.7736619
16.75853817
15.80220754
14.90340339
14.08112088
13.33354061
12.67274363
12.09498111
11.54503478
11.00664753
10.49168742
10.00901725
9.555815292
9.132602507
8.737932345
8.366829986
8.018065204
7.687839046
7.37518202
7.077465219
6.793949052
6.522639992
6.262314439
6.011812334
5.770142052
5.536394914
5.308970318
5.088644883
4.873484614
4.663570438
4.457958862
4.256525157
4.05890542
3.864778426
3.67406423
3.486733441
3.302705992
3.121941099
2.944408527
2.770395996
2.600133964
2.433700475
2.271422395
2.11369541
1.963902729
1.822639004
1.685100876
1.547352028
1.408784373
1.27205491
1.140809062
1.016749205
0.9002963338
0.7929630448
0.6951636283
0.603677499
0.5149794332
0.4309080225
0.3551093229
0.2886788193
0.2311185304
0.1813481634
0.136469236
0.09944011713
0.07034929918
0.04534945712
0.02443581262
0.02672453118
0.02891555033
0.03173415747
0.03440507444
)


101
(
0.007665496719
0.2174491596
0.9873848398
2.45186184
4.493279302
6.926445292
9.5650793
12.22657645
14.77945672
17.12379295
19.18006939
20.90156563
22.27738375
23.29543383
23.99436652
24.42164761
24.62735009
24.66134118
24.59165356
24.41250067
24.15842486
23.81993095
23.36053587
22.77602223
22.06634339
21.24050796
20.31967266
19.33350428
18.31180158
17.28595039
16.28072868
15.31588346
14.40535651
13.54583534
12.75523259
12.03281307
11.38744177
10.8176965
10.29411893
9.793997982
9.315493664
8.864543054
8.439996114
8.043353816
7.674491439
7.329425281
7.006715562
6.702811706
6.41641584
6.145132635
5.888069985
5.643485544
5.410166683
5.187024558
4.973103272
4.76751394
4.568698128
4.377152105
4.191334603
4.011112126
3.835676108
3.664750965
3.497934548
3.334872567
3.175375772
3.019263787
2.866417423
2.716655264
2.569969524
2.426405454
2.286027268
2.148863237
2.015051997
1.88462092
1.75863346
1.638447917
1.523560456
1.411706697
1.300284591
1.1885928
1.078782939
0.9733674646
0.8735042826
0.7796144353
0.6924173514
0.6118938126
0.5359051208
0.4619369695
0.3922955162
0.3294442395
0.2735390779
0.2245751811
0.1809616913
0.1419582271
0.1100315247
0.08072344659
0.05299383451
0.05894362354
0.06470257373
0.071686661
0.0784607293
)


101
(
0.00764635175
0.2125839512
0.9596796845
2.376765582
4.346272522
6.684834852
9.210523118
11.74656798
14.16756714
16.37891514
18.3080253
19.91169626
21.18140401
22.10772151
22.72661853
23.08264077
23.22305586
23.19544354
23.06528957
22.83271514
22.534023
22.16533305
21.69732534
21.12612951
20.44945658
19.67245265
18.81108387
17.88947621
16.93300769
15.96958877
15.02212615
14.10963671
13.24636482
12.4292921
11.67418246
10.98157286
10.35663853
9.800929483
9.298196244
8.828713852
8.38400904
7.964660003
7.568858189
7.198280731
6.853701033
6.532411992
6.233153415
5.952720788
5.689579536
5.441471237
5.207356256
4.985641393
4.775154357
4.574862861
4.383821472
4.201144302
4.025542221
3.857118263
3.694614628
3.537749163
3.385833288
3.238542225
3.095442496
2.95616498
2.82044146
2.687984813
2.558665863
2.432289605
2.308719404
2.18793019
2.069812045
1.954434693
1.84184233
1.732043666
1.625221179
1.522043693
1.423002525
1.327841834
1.234844424
1.141982596
1.049079721
0.9579514385
0.8705700588
0.7875418284
0.709127935
0.6357267459
0.5671355611
0.501292035
0.4372755604
0.3775127581
0.3231808372
0.2743905191
0.2308314278
0.1908940546
0.1566291473
0.1242492477
0.09152871995
0.1021776649
0.1125966617
0.1246985189
0.1365408894
)


101
(
0.007627233091
0.2077944575
0.9325695401
2.303555126
4.203562037
6.451424328
8.869729363
11.28759869
13.58559047
15.67425219
17.48737879
18.98512451
20.16095943
21.00777305
21.55913211
21.85672422
21.94504216
21.86931345
21.69212686
21.41837111
21.08549632
20.69443107
20.22226498
19.66607608
19.0222479
18.29284085
17.48936354
16.63099735
15.73894533
14.83765924
13.94804458
13.08809246
12.27203428
11.49796618
10.77964605
10.11825287
9.517246513
8.978910976
8.494565196
8.049610155
7.633802325
7.243569903
6.875198976
6.52951183
6.207533437
5.907658014
5.62911025
5.369204468
5.126318287
4.898241062
4.683807616
4.481514239
4.290235724
4.10899205
3.936870768
3.772980615
3.616198774
3.466450383
3.322663196
3.184439091
3.051121259
2.922430545
2.797882454
2.677134605
2.559890353
2.445810407
2.334699145
2.226351043
2.120568026
2.017350847
1.916429719
1.817813539
1.721504095
1.627557426
1.535939463
1.446818822
1.360546708
1.277479175
1.197156701
1.11810722
1.038858009
0.9596793026
0.8823189656
0.8080644839
0.7371862876
0.6699119802
0.6064647951
0.5461356759
0.4872985041
0.430597389
0.3778413645
0.3296454126
0.2858836715
0.2454429628
0.2095120841
0.1749024186
0.1384716249
0.1541013735
0.1698363706
0.1896239027
0.2095076251
)


101
(
0.007608140746
0.2030799407
0.9060439329
2.232185408
4.06501196
6.225887363
8.542043029
10.84850395
13.0316454
15.00697325
16.71416128
18.11652724
19.20920093
19.98706773
20.48151547
20.73146483
20.77868434
20.66598533
20.45285005
20.1478875
19.78919506
19.38177839
18.90844279
18.36761053
17.75511703
17.07071644
16.32217557
15.52431122
14.69444378
13.85365081
13.02071714
12.21243906
11.44272059
10.71096261
10.02941201
9.399557697
8.823985232
8.304957837
7.838008556
7.413259619
7.021374612
6.65661408
6.313386176
5.990997991
5.690037798
5.409561708
5.149325701
4.907294964
4.681955313
4.471166108
4.273664422
4.087964526
3.912976679
3.747767931
3.591486424
3.443231443
3.301974943
3.167555383
3.039013598
2.91593871
2.797705628
2.683994945
2.574335161
2.468352193
2.36578299
2.266288765
2.169609406
2.075523826
1.983799184
1.89438642
1.807068474
1.721741792
1.638334453
1.556886728
1.477357835
1.399740402
1.324147116
1.250830035
1.179922358
1.1108812
1.042317251
0.9733129702
0.9045717744
0.8376239668
0.773165262
0.7113374097
0.6523288723
0.5960729413
0.5415595454
0.488030599
0.4369497076
0.3895047565
0.3458671243
0.3052707727
0.2682535345
0.2317878903
0.1927051607
0.2151558963
0.2381044542
0.266758828
0.2959569368
)


101
(
0.007589074696
0.1984396664
0.8800925652
2.162612569
3.9304918
6.007914715
8.226850951
10.42820439
12.50399484
14.37448432
15.98476709
17.30110684
18.32000838
19.03804654
19.48462785
19.6960048
19.7112882
19.57084204
19.33092699
19.00294815
18.62521589
18.20614963
17.73362575
17.2076659
16.6241849
15.98137038
15.28395158
14.54295396
13.77213908
12.98934736
12.21116904
11.45305323
10.72834109
10.03761636
9.392074781
8.793425664
8.243771067
7.745103847
7.29523778
6.887913984
6.515789192
6.1726583
5.851765486
5.550797626
5.269402926
5.00677207
4.763012312
4.536740286
4.326736817
4.131031902
3.948299143
3.777039504
3.616186291
3.464829771
3.322150984
3.187289657
3.059291388
2.937874085
2.822194028
2.711815761
2.606159408
2.504902369
2.407577076
2.313801374
2.223280297
2.135707475
2.050782413
1.968315376
1.888015816
1.809797309
1.733474167
1.658869948
1.585879919
1.514491809
1.444690531
1.376404193
1.309659032
1.244515728
1.181167812
1.119586611
1.059008427
0.998272838
0.9370521372
0.8763426912
0.8172761581
0.7601553197
0.7050547356
0.6521127009
0.6009300444
0.5504527582
0.50120684
0.4546283753
0.4111941227
0.3706511478
0.3328818689
0.2953542031
0.2547276822
0.2854243417
0.3173768491
0.3572735421
0.3987410624
)


101
(
0.007570034951
0.193872914
0.854705383
2.094794105
3.799876314
5.797212864
7.923578276
10.02569966
12.00103533
13.77440938
15.29591725
16.53454341
17.48791175
18.15400768
18.56041957
18.74084775
18.73182189
18.5712583
18.31215667
17.96792761
17.57671049
17.14972827
16.67932311
16.1672767
15.61006145
15.00496115
14.35434989
13.66603203
12.95056204
12.22272513
11.49689195
10.78703866
10.10575062
9.454542178
8.843879512
8.27571051
7.751892136
7.27410446
6.841332113
6.449826829
6.094407111
5.769510452
5.468077344
5.186521952
4.923356704
4.677449324
4.448964723
4.237040294
4.040847282
3.858676523
3.689190436
3.530915763
3.382772338
3.243812461
3.11329452
2.99039568
2.874162512
2.764249975
2.659899699
2.560645684
2.465940501
2.375460322
2.288707316
2.205366038
2.12510562
2.047646457
1.972664024
1.899921336
1.829141529
1.760149076
1.692863557
1.627055744
1.562677518
1.499582816
1.437703232
1.377012448
1.317502679
1.25913941
1.202023139
1.146246375
1.091600033
1.037184597
0.9822461247
0.9268777459
0.8722798406
0.8189773489
0.7671812946
0.7169174847
0.6681979236
0.6202222011
0.5726393727
0.5268373922
0.4836734749
0.443142733
0.4048557123
0.3665123451
0.3244322308
0.3655036894
0.4089206332
0.4626604773
0.5197037667
)


101
(
0.007551021484
0.1893789626
0.8298724885
2.028688709
3.673044949
5.593501487
7.631680369
9.640052015
11.52127948
13.20456176
14.64461501
15.81291968
16.70798826
17.32896556
17.70175774
17.85763929
17.83064608
17.65627511
17.38428042
17.02941957
16.62932192
16.19745424
15.73004313
15.23072319
14.69687488
14.12544096
13.51707474
12.87692721
12.2127272
11.53642771
10.86020375
10.19646629
9.556883509
8.943606475
8.366552645
7.827952276
7.329599093
6.872916193
6.457438591
6.081026999
5.740367506
5.431073486
5.14654775
4.882489878
4.636370567
4.406440629
4.192600757
3.994288289
3.811016583
3.641415069
3.484245298
3.338076591
3.201773829
3.074365362
2.955117403
2.843211563
2.737809687
2.638392068
2.544350342
2.455178326
2.370307299
2.289463039
2.212108239
2.137960366
2.066681233
1.997985567
1.931581803
1.867169599
1.80450817
1.743413221
1.683782066
1.625403383
1.568150817
1.511938815
1.456664147
1.402274301
1.348700446
1.295940199
1.244050896
1.193008906
1.142834795
1.093148151
1.043135089
0.9923241871
0.9413882808
0.8911320284
0.8419615415
0.7937828498
0.7468037585
0.7005904334
0.6543419101
0.6091185382
0.5660275239
0.525270253
0.4864475198
0.4472991542
0.4042979121
0.4577880073
0.5150499628
0.5844546771
0.6591441888
)


101
(
0.007532034318
0.1849571118
0.805584255
1.964256543
3.549882647
5.396514745
7.350642735
9.270380866
11.06335422
12.66294534
14.02813455
15.13268743
15.97580299
16.55756206
16.90230205
17.03900331
16.99930134
16.81633133
16.53665672
16.17584277
15.77072074
15.33649577
14.87272592
14.38487974
13.87152583
13.32972148
12.75897293
12.1623333
11.54511155
10.91668835
10.28711508
9.667184129
9.06751424
8.49060256
7.945895294
7.435916295
6.96253545
6.527029563
6.129167953
5.767763041
5.440910874
5.145506084
4.87589864
4.627659682
4.397526115
4.18304605
3.983583788
3.798590926
3.627797581
3.470202685
3.324745198
3.190085458
3.065046533
2.94861163
2.839952042
2.738377389
2.643116147
2.553522371
2.469039361
2.389166892
2.313317316
2.241211655
2.17239613
2.106520662
2.043245206
1.982293388
1.923487559
1.866432205
1.810928486
1.756725377
1.703721253
1.651735857
1.600658735
1.550363404
1.500737497
1.451669095
1.403111975
1.355087422
1.307594206
1.26058066
1.214054834
1.167964372
1.121727063
1.074671371
1.026848415
0.9790141979
0.9318390398
0.8852609462
0.8394600644
0.7944225627
0.7490856167
0.7041648682
0.6608930709
0.6196401902
0.5801830956
0.5400483887
0.4960159027
0.5640729462
0.6375632926
0.7235619483
0.8175383663
)


101
(
0.007513073433
0.180606658
0.7818311877
1.901458716
3.430278288
5.205998444
7.079977801
8.915859422
10.62598284
12.14772356
13.44398266
14.49062543
15.28735519
15.83499584
16.1564123
16.27842222
16.23035497
16.04306778
15.76002706
15.39716755
14.99027453
14.55584317
14.09624627
13.61866946
13.12308204
12.60701373
12.06932879
11.51151517
10.93687958
10.35251984
9.76648331
9.187936368
8.626350526
8.084296542
7.570757805
7.088518883
6.639613675
6.225295535
5.845443905
5.49937951
5.186139428
4.90374081
4.647673786
4.413860082
4.198705458
3.999154417
3.813884492
3.642098689
3.483581216
3.337635271
3.203416347
3.079727978
2.965422864
2.859427013
2.760840072
2.669093663
2.58333342
2.502976225
2.427397703
2.356195346
2.288750446
2.224734335
2.163752515
2.105449298
2.049523842
1.995650716
1.943654437
1.893257184
1.844197152
1.796213262
1.749177458
1.702919199
1.657342563
1.612308132
1.567695707
1.523356355
1.479244498
1.435391231
1.391722952
1.348262472
1.304957106
1.261810454
1.218569836
1.174600041
1.129487062
1.083715608
1.038105305
0.9928005153
0.94784012
0.9034447845
0.8586909224
0.8138389762
0.770129242
0.728169502
0.6879238498
0.646801181
0.6017615678
0.6854899269
0.776606198
0.8795374019
0.9933381488
)


101
(
0.007494138826
0.1763269087
0.7586040109
1.840257498
3.314124951
5.021709864
6.819223047
8.575710745
10.20798168
11.65720533
12.88987546
13.88380646
14.63903455
15.15696076
15.45906315
15.57012488
15.51727106
15.32917043
15.04632149
14.68467863
14.27875956
13.84596839
13.39101229
12.92262373
12.44228846
11.94830527
11.43932863
10.91575878
10.37931468
9.835126831
9.289404441
8.749727919
8.224364239
7.715723614
7.232286155
6.777020805
6.352153577
5.959009587
5.597553944
5.267358092
4.968002663
4.698344314
4.454970575
4.234441638
4.033226172
3.847917619
3.676539162
3.517849711
3.371466866
3.236888115
3.11348221
3.000251384
2.896133155
2.800051776
2.711076065
2.628586666
2.551803371
2.48012089
2.412942896
2.349856983
2.290298691
2.233882873
2.180245329
2.129025536
2.079936486
2.032718897
1.987096114
1.942857891
1.899780378
1.857561857
1.816082798
1.775160419
1.734676072
1.694519096
1.654571542
1.614669895
1.574698359
1.534685353
1.494593063
1.454415726
1.414094595
1.373622433
1.332933053
1.291561697
1.24891628
1.205088608
1.160822855
1.116545704
1.072256901
1.028215551
0.9837548402
0.9388459074
0.8945908025
0.8517558588
0.8105948937
0.7684849886
0.7224704823
0.8223907702
0.9318345363
1.051308366
1.185516841
)


101
(
0.007475230488
0.1721171794
0.7358936326
1.780616188
3.201319646
4.843417189
6.567938683
8.24920191
9.808255687
11.18984173
12.36371705
13.30956454
14.02757415
14.5195753
14.80575138
14.90897571
14.85428579
14.66824261
14.38850585
14.03078731
13.62814158
13.19857292
12.74869501
12.28859619
11.82128757
11.34605022
10.86169471
10.36796219
9.865383915
9.357455471
8.848752279
8.345352673
7.854302727
7.377663691
6.923345438
6.494387283
6.093175206
5.721153764
5.378390631
5.064586406
4.779579242
4.522758507
4.291625159
4.083481804
3.895157052
3.723200999
3.56516324
3.41929514
3.284878988
3.161429406
3.048437531
2.945150041
2.850681915
2.763981211
2.684104033
2.610361617
2.542096678
2.478635252
2.419447541
2.364052498
2.311977086
2.262780571
2.216121766
2.171662583
2.129133359
2.088258565
2.048752831
2.010419868
1.973029093
1.936349338
1.900208639
1.864428795
1.82886464
1.793415863
1.757982018
1.722392609
1.686481208
1.650241917
1.613622341
1.576659931
1.539282133
1.501445361
1.463146635
1.424121568
1.383774439
1.341883874
1.298964153
1.255626029
1.211938957
1.168170582
1.12381991
1.078775358
1.033967033
0.9901903036
0.9480409283
0.9050087901
0.8582022811
0.9741359438
1.101849018
1.237330954
1.39097621
)


101
(
0.007456348402
0.1679767898
0.7136911193
1.722499049
3.091762976
4.670898928
6.325708313
7.935643535
9.425782051
10.74420337
11.86358826
12.76547169
13.45002054
13.91935311
14.19245554
14.29041051
14.23629607
14.05464663
13.78040115
13.4288511
13.03140646
12.60642643
12.16205563
11.70953777
11.25334398
10.7938665
10.33036403
9.862298077
9.389392706
8.913844953
8.438825524
7.969032702
7.510315344
7.064242883
6.638076554
6.234792093
5.856857339
5.505834537
5.181912286
4.884869662
4.614643557
4.370911354
4.151836812
3.955408823
3.778985377
3.619357016
3.473861887
3.340314329
3.217570173
3.104974463
3.002060867
2.908280193
2.822948492
2.745110662
2.673857851
2.608452176
2.548267705
2.492658326
2.441085059
2.39306712
2.348165929
2.305928415
2.266002809
2.228095818
2.191946342
2.157260416
2.12377277
2.091240084
2.059469887
2.02823496
1.997364185
1.966673322
1.936016913
1.905277209
1.874370903
1.843134951
1.811352239
1.778966399
1.745904772
1.712228038
1.677887903
1.642794535
1.606948981
1.570222117
1.532122709
1.492234077
1.450778926
1.408463725
1.36538871
1.321899014
1.277631647
1.232402431
1.187088581
1.142390596
1.099217418
1.055400979
1.008079658
1.139562744
1.285315032
1.437067558
1.608544784
)


101
(
0.007437492575
0.1639050731
0.6919877428
1.665871406
2.985359201
4.503943299
6.092137874
7.634387292
9.059606322
10.31897037
11.38774528
12.24930897
12.90369796
13.35316606
13.61559358
13.71038426
13.65877451
13.48337584
13.21652236
12.87293489
12.48232476
12.06315281
11.62475733
11.17930421
10.73262756
10.28629581
9.840232443
9.393947098
8.946708363
8.499742038
8.055054876
7.61611831
7.187646676
6.770613827
6.371562383
5.993265257
5.638167555
5.307905635
5.002786768
4.722659078
4.467494385
4.237079592
4.030010123
3.844834233
3.679479883
3.531148063
3.397221712
3.275283943
3.163763608
3.061702848
2.968581147
2.883953618
2.807304118
2.737858395
2.674786426
2.617325968
2.564852013
2.516758923
2.472517836
2.431634138
2.393674797
2.358214882
2.324892161
2.293422397
2.26355414
2.235008528
2.207522905
2.180834765
2.154727384
2.128989093
2.103457168
2.077931395
2.052283913
2.026371213
2.00012641
1.973414718
1.945960484
1.917664065
1.888374418
1.858199909
1.827115029
1.7949968
1.76184113
1.727540703
1.691759814
1.65404401
1.614262257
1.573166612
1.530863799
1.487736217
1.443635905
1.398255236
1.35247254
1.306936329
1.262744195
1.218344398
1.170795592
1.317524143
1.481472795
1.651609469
1.849025274
)


101
(
0.007418663031
0.1599013725
0.6707749736
1.610699538
2.882016156
4.342348302
5.866854341
7.34482297
8.708835671
9.912921236
10.93459537
11.75905105
12.38617701
12.81820057
13.07196373
13.16530177
13.11770579
12.94998429
12.69200598
12.35777662
11.97538448
11.56311567
11.13120358
10.69248428
10.25403259
9.818607669
9.386947208
8.958880009
8.533529931
8.111460294
7.693762196
7.282851415
6.882397328
6.492721481
6.119594253
5.76546138
5.432633445
5.122750675
4.836208925
4.572923283
4.332874338
4.115887081
3.920810619
3.746576453
3.591621657
3.453645692
3.330285887
3.219096816
3.118192651
3.026284005
2.942673642
2.866907979
2.798583294
2.737124619
2.681817594
2.631935924
2.586850135
2.54597753
2.508824707
2.474887388
2.443729289
2.41492831
2.388134063
2.363043556
2.339439384
2.317039457
2.295610697
2.274877251
2.25457964
2.234510113
2.214494204
2.194335286
2.173905926
2.153048615
2.131707638
2.109787813
2.087017918
2.063162192
2.038044345
2.011735399
1.984231366
1.955462028
1.92541319
1.893862527
1.860662333
1.825384802
1.787624837
1.748046958
1.706850205
1.664320271
1.620516328
1.57518014
1.528988927
1.482760541
1.437638056
1.392773159
1.34506742
1.507951299
1.691595749
1.883583196
2.106642513
)


101
(
0.007399859707
0.155965019
0.6500447269
1.556950374
2.781644483
4.185920398
5.649503471
7.066374887
8.372624935
9.524912562
10.50267799
11.2928536
11.89525041
12.31191115
12.55868169
12.65194058
12.60951498
12.45053927
12.20257184
11.87875653
11.50573021
11.10133425
10.67642156
10.24426995
9.813036253
9.386646422
8.966743621
8.553679948
8.146697661
7.745981157
7.351956256
6.966165976
6.591340746
6.227138763
5.878532264
5.547539963
5.236234176
4.946175764
4.677794943
4.431059876
4.205968698
4.002360675
3.819208195
3.655690288
3.510643264
3.3822454
3.268502284
3.167123172
3.076107726
2.993867544
2.919446421
2.852284385
2.792013494
2.738208832
2.690310425
2.647678228
2.609685001
2.575771186
2.545481565
2.518326161
2.493860532
2.471652134
2.451341064
2.432623302
2.415313813
2.399105027
2.383843903
2.369220979
2.354955653
2.340785385
2.326566814
2.312100963
2.297222951
2.281784873
2.265740415
2.248996895
2.231299743
2.212452076
2.192086055
2.170194882
2.146783105
2.121943002
2.09554095
2.067319997
2.037186634
2.004833785
1.96966148
1.932080064
1.892495876
1.851013631
1.80774191
1.762827437
1.716469479
1.669731896
1.623947236
1.57873502
1.530999071
1.712364967
1.918772542
2.137669912
2.392285232
)


101
(
0.007381082626
0.1520953681
0.6297883516
1.504591982
2.684158537
4.034475475
5.439750719
6.798503045
8.050173483
9.153859593
10.09065401
10.84904739
11.42892624
11.83199469
12.07312572
12.16736135
12.13095891
11.98150092
11.74440243
11.43186278
11.06911997
10.67342438
10.25598384
9.83036728
9.405605452
8.98672583
8.576317777
8.175399384
7.783542783
7.400804295
7.027184071
6.663542518
6.311794125
5.970962687
5.645227434
5.336108307
5.045353563
4.774369028
4.523556193
4.292901308
4.082419787
3.891965677
3.720576263
3.567572456
3.432066497
3.312633308
3.207683352
3.115204425
3.033255586
2.960080544
2.894455919
2.835624393
2.7831758
2.736763722
2.695970388
2.660278472
2.62909513
2.601901355
2.578250274
2.557690784
2.53982979
2.524150316
2.510308155
2.49799699
2.487040548
2.477130237
2.468160595
2.45983684
2.451859131
2.44390873
2.435904601
2.427538016
2.418657633
2.409142592
2.398915431
2.387877499
2.375887765
2.362734804
2.347869555
2.331203404
2.312712435
2.292564938
2.270614423
2.246532998
2.220337725
2.191577176
2.159783078
2.124987189
2.087755738
2.048049293
2.005883409
1.961903661
1.915927203
1.869114071
1.823036242
1.777633055
1.729996382
1.933800571
2.167626648
2.419546583
2.713514918
)


101
(
0.007362331809
0.1482917823
0.609997803
1.453593262
2.58947577
3.887837666
5.237279118
6.540699697
7.740734121
8.798752415
9.697285844
10.42610721
10.98539305
11.37637233
11.61294699
11.70894556
11.6791569
11.53972589
11.31409522
11.01350738
10.66177308
10.27547937
9.865934692
9.446916843
9.028106613
8.615529108
8.212718049
7.821442745
7.441764006
7.073822274
6.717409581
6.372897758
6.041528793
5.721745849
5.416977411
5.128206074
4.856792378
4.60392008
4.36989913
4.15468863
3.958309141
3.780634068
3.62073151
3.477999326
3.351729001
3.24078964
3.143957203
3.059548962
2.985817049
2.920992548
2.863664227
2.812834115
2.767965297
2.728726044
2.694788618
2.665746039
2.641092086
2.620361509
2.60312107
2.588964407
2.577568046
2.568344711
2.560973635
2.555126894
2.550584747
2.547116566
2.544591126
2.542775608
2.541395701
2.540092922
2.538752445
2.537019474
2.534783422
2.531879384
2.52815381
2.523544695
2.517990856
2.511350541
2.503006615
2.492669415
2.480180831
2.465738932
2.449341035
2.430609063
2.40939085
2.38538013
2.358021728
2.327120167
2.293284888
2.256411473
2.216298062
2.174172386
2.129272044
2.083139899
2.037379122
1.992302588
1.945167324
2.176465415
2.443381642
2.734956422
3.073753607
)


101
(
0.007343607196
0.1445536132
0.5906651201
1.403923732
2.497516195
3.7458383
5.041787536
6.292483119
7.443602006
8.45864513
9.321388451
10.02265121
10.56298316
10.94313462
11.17600798
11.27433308
11.25153274
11.12240855
10.90860695
10.62043995
10.28026923
9.903953384
9.502718063
9.090427356
8.677238102
8.270036951
7.873262685
7.489469658
7.119318154
6.763207623
6.420909445
6.09249522
5.778695868
5.477449683
5.191501955
4.921299544
4.667771251
4.431829847
4.213640296
4.013085123
3.830161008
3.664752109
3.515937435
3.383157919
3.265816095
3.162973429
3.073706193
2.996648454
2.930324209
2.873074314
2.823420022
2.780157633
2.742548821
2.710247422
2.682940003
2.660299636
2.641904074
2.627382311
2.616314261
2.608346565
2.603195715
2.600338385
2.599418021
2.600105568
2.602035114
2.605162761
2.609278474
2.614229601
2.619791795
2.625524149
2.631324044
2.636904735
2.642092579
2.646633158
2.650321458
2.653075637
2.654886036
2.655779707
2.655160473
2.652487804
2.647296194
2.639949184
2.630504902
2.618596963
2.603873738
2.586034752
2.564532262
2.53901138
2.509995519
2.477440892
2.440729373
2.401621734
2.359004147
2.314658673
2.270301224
2.226484011
2.180801687
2.445153409
2.751121861
3.088604729
3.478656558
)


101
(
0.007324908836
0.1408802368
0.5717833673
1.355554059
2.408203255
3.608317046
4.852991788
6.053402637
7.158121295
8.13266039
8.961861655
9.637414568
10.16018111
10.53053893
10.76037502
10.86140725
10.84578952
10.72705534
10.52523226
10.24975261
9.921543561
9.555660641
9.163118704
8.75772913
8.349982554
7.947477396
7.555482416
7.177332106
6.814355956
6.467343409
6.136201409
5.820873426
5.521755078
5.236387655
4.966913946
4.713276913
4.475949391
4.255540327
4.052030875
3.865175029
3.694917415
3.54113712
3.402896107
3.279654805
3.170880856
3.075750322
2.993568408
2.923247125
2.863598316
2.813139979
2.77044265
2.734183968
2.703419375
2.677744955
2.656801919
2.640307647
2.627903385
2.619341856
2.614194742
2.612142951
2.612984346
2.616323232
2.621748258
2.628999593
2.63751374
2.647378206
2.658352325
2.670338117
2.683178238
2.696399474
2.709927359
2.723480728
2.736863958
2.749795781
2.761990355
2.773265038
2.783679169
2.793322117
2.801621419
2.808155891
2.811927828
2.81336661
2.81255564
2.809218294
2.802806657
2.792904421
2.779065262
2.76075919
2.738366289
2.712007364
2.680538758
2.646111246
2.607365665
2.566470742
2.525056282
2.48406058
2.441353315
2.744331021
3.094946342
3.483213296
3.928959586
)


101
(
0.007306236669
0.1372711705
0.5533440009
1.3084554
2.321462606
3.475119882
4.670619311
5.823031594
6.88368058
7.819981558
8.617680093
9.26920155
9.775600737
10.13700672
10.36430154
10.46826132
10.45987157
10.35145696
10.16158033
9.898862598
9.582846009
9.22772089
8.84419652
8.445913784
8.043557843
7.645275507
7.257066224
6.883016632
6.525158027
6.184759038
5.861985126
5.556799957
5.269432756
4.997184576
4.74168784
4.502424394
4.279411088
4.072925457
3.882750546
3.708469868
3.54994153
3.407021578
3.278723483
3.164506344
3.063863033
2.976031011
2.900482486
2.836350981
2.782703424
2.738276263
2.701774664
2.671845063
2.64741318
2.627949268
2.6130213
2.602342709
2.595639067
2.59273212
2.59323154
2.596788245
2.603330149
2.612571615
2.624158825
2.637883005
2.653119114
2.669838162
2.687902931
2.707187485
2.727600248
2.748790555
2.770627627
2.792866412
2.81524463
2.837496476
2.859331187
2.880439169
2.900830818
2.920515059
2.939195412
2.956503792
2.971174047
2.983215271
2.992966262
3.000152978
3.004290931
3.004428732
3.000363463
2.99147984
2.977885475
2.959968739
2.936028379
2.908518744
2.875858396
2.840525487
2.804157555
2.76828455
2.730776635
3.077035025
3.476439178
3.918158662
4.422396126
)


101
(
0.007287590715
0.1337256505
0.5353395873
1.26259988
2.237222946
3.34610024
4.49441262
5.600969559
6.619710684
7.519851886
8.287894738
8.916886305
9.407967734
9.761103661
9.986209353
10.09317735
10.09193157
9.993661496
9.815555693
9.565490431
9.261715321
8.917537973
8.543278014
8.152309644
7.755375715
7.361003953
6.975816733
6.604605276
6.250094592
5.914085305
5.597101357
5.299254171
5.020748658
4.758797436
4.514649939
4.28740122
4.076642549
3.882296857
3.703922023
3.540913583
3.393016146
3.260047803
3.14094174
3.035128772
2.94209928
2.861100028
2.791710333
2.733217498
2.684931189
2.645806311
2.614714374
2.590361118
2.571626744
2.557837441
2.548472524
2.543193628
2.541820349
2.544195148
2.549987646
2.558814904
2.570760758
2.585575184
2.603032092
2.623015426
2.644965196
2.668590628
2.693888655
2.720717137
2.74901476
2.77855534
2.809242906
2.840764694
2.872821431
2.905285719
2.937903472