/*--------------------------------*- C++ -*----------------------------------*\
| =========                 |                                                 |
| \\      /  F ield         | OpenFOAM: The Open Source CFD Toolbox           |
|  \\    /   O peration     | Version:  2.3.1                                 |
|   \\  /    A nd           | Web:      www.OpenFOAM.org                      |
|    \\/     M anipulation  |                                                 |
\*---------------------------------------------------------------------------*/
FoamFile
{
    version     2.0;
    format      ascii;
    class       dictionary;
    location    "constant";
    object      la_r20;
}
// * * * * * * * * * * * * * * * * * * * * * * * * * * * * * * * * * * * * * //

la_r20_table
101
(

101
(
-1.306653395e-08
-6.883802387e-05
-0.002619063174
-0.01905052257
-0.07057094974
-0.1825700351
-0.379761928
-0.6914576818
-1.142873927
-1.761704608
-2.575779416
-3.618648377
-4.917504835
-6.50971957
-8.399278791
-10.54592808
-12.86596591
-15.2374551
-17.4422933
-19.36262719
-20.81389703
-21.68763922
-22.01828804
-21.82027038
-21.15638419
-20.12558119
-18.82881012
-17.35713786
-15.80514676
-14.22633847
-12.67026481
-11.15824229
-9.680565124
-8.36131381
-7.107225611
-5.938241385
-5.184019356
-4.739125723
-3.742010802
-2.841162683
-2.025923964
-1.272347943
-0.5929112884
0.02168014741
0.5805193218
1.079768192
1.527572481
1.922585589
2.271495523
2.574655742
2.836936022
3.060166612
3.246834262
3.39924991
3.520103832
3.611830513
3.673342363
3.710708566
3.722795541
3.713201111
3.682535855
3.633316575
3.567264644
3.485528138
3.389823436
3.28213182
3.163734234
3.036088619
2.900597979
2.759072745
2.612697434
2.463028188
2.311288035
2.159720954
2.024809514
1.880533436
1.721616944
1.566182254
1.415269922
1.269671457
1.130436964
0.9982448902
0.8744051735
0.7673093612
0.6576067919
0.5497060559
0.4517739765
0.3638709415
0.2864317135
0.2239883402
0.1625088484
0.1112174226
0.0712089116
0.04011832962
0.01828322508
0.004503912158
-3.883615032e-13
-1.787163661e-30
1.066838994e-22
-9.263582767e-23
-1.751152248e-23
)


101
(
-1.311514467e-08
-6.285760598e-05
-0.002473692153
-0.01810321496
-0.06718775157
-0.1738924273
-0.3616214226
-0.6576380517
-1.085531074
-1.670417912
-2.437585919
-3.416975735
-4.634082923
-6.121999963
-7.889907149
-9.905893465
-12.09811984
-14.35865036
-16.5011898
-18.38897137
-19.8707279
-20.8227196
-21.24586912
-21.16249372
-20.62176402
-19.70909884
-18.52033766
-17.14536714
-15.67318455
-14.16633777
-12.67435195
-11.22525219
-9.81883645
-8.528402389
-7.326683299
-6.209607721
-5.274951631
-4.550216791
-3.776002139
-3.00083463
-2.284815743
-1.627920396
-1.036901663
-0.5078314653
-0.03178087361
0.3921207244
0.7697919776
1.102875737
1.395851566
1.650683552
1.870995208
2.059088072
2.217284021
2.348001318
2.453234503
2.534849308
2.593047371
2.63127891
2.65015182
2.651811764
2.637400557
2.608569589
2.566837503
2.5133544
2.449334723
2.376077329
2.294872141
2.206805058
2.11288144
2.014316651
1.91207258
1.807156228
1.700475755
1.593292962
1.488453752
1.384501589
1.278692095
1.172158532
1.066926196
0.9645675502
0.8661254237
0.7720577194
0.6829541453
0.6003125182
0.5223612638
0.4474897578
0.3769136177
0.3121791208
0.2537781435
0.2024068168
0.1571956732
0.1167656471
0.08244593688
0.05471412747
0.03265311597
0.01603916534
0.004902934297
0.004524115621
0.004263869369
0.004121474489
0.00406590477
)


101
(
-1.315738621e-08
-5.741198635e-05
-0.002337672206
-0.01721087669
-0.06399974329
-0.1657366689
-0.3446381993
-0.6261986762
-1.03257844
-1.58683274
-2.312170558
-3.235697652
-4.38133041
-5.779299337
-7.441942258
-9.345299967
-11.4286057
-13.59707132
-15.68935145
-17.56554975
-19.08919806
-20.13522662
-20.67681849
-20.73067088
-20.33665321
-19.56668351
-18.50833
-17.24813714
-15.87050768
-14.44205429
-13.01459126
-11.62146253
-10.27107881
-9.009322696
-7.833848776
-6.742042767
-5.790850301
-5.011095475
-4.287446797
-3.576224061
-2.899814383
-2.271998904
-1.703536309
-1.194404711
-0.738725537
-0.333723733
0.02608786248
0.3439959043
0.6240139909
0.8687046796
1.081331341
1.264293858
1.419949795
1.550754394
1.658951913
1.746341407
1.813710664
1.863521538
1.896532763
1.914745957
1.919192616
1.911389044
1.892615445
1.863879605
1.82624655
1.780730466
1.728418042
1.670191981
1.60683064
1.539309041
1.468335337
1.394681203
1.318988253
1.242125067
1.165427963
1.089502007
1.013590157
0.9371688991
0.8605290112
0.7847306262
0.7110145156
0.6400678041
0.5722503671
0.5081555492
0.4480667123
0.3912718376
0.3369680507
0.2857930941
0.2388312092
0.1964484736
0.1585910566
0.1250020693
0.09492504245
0.06929905783
0.04816960676
0.03003969758
0.01530103772
0.01482287449
0.01459595571
0.01477765203
0.01523012036
)


101
(
-1.319341502e-08
-5.227781405e-05
-0.002207597162
-0.01635418436
-0.06093781845
-0.157913371
-0.3283847217
-0.596218196
-0.9822691839
-1.507771505
-2.194090405
-3.06584945
-4.145502615
-5.460765364
-7.026430208
-8.825622938
-10.80779745
-12.89055661
-14.93485411
-16.80238538
-18.36781668
-19.50728585
-20.17275229
-20.37028242
-20.13031609
-19.51246403
-18.59479839
-17.45887646
-16.18505466
-14.8411685
-13.48146894
-12.14397669
-10.84414363
-9.616041015
-8.463699161
-7.384254769
-6.428549843
-5.608938994
-4.883118265
-4.203567821
-3.556777525
-2.948587112
-2.391005702
-1.887340531
-1.435484856
-1.033531711
-0.676077218
-0.3593022451
-0.07861021457
0.1686530068
0.3858322819
0.5750758933
0.7386405631
0.8789195528
0.9981884466
1.098214134
1.180358654
1.246531277
1.297404586
1.334811212
1.35963642
1.373245654
1.376811348
1.371257967
1.357553764
1.336591012
1.309204048
1.276187106
1.238070878
1.19572515
1.149776314
1.10084275
1.04938252
0.9960523312
0.9416079845
0.8867723068
0.8317595656
0.7763799694
0.7203756683
0.6639336172
0.6079172115
0.5532367792
0.500415082
0.4497555608
0.4016127697
0.3561142962
0.3128389833
0.2712600298
0.2321244777
0.1961472146
0.1634223255
0.1339882475
0.1074610982
0.08373717444
0.06348446153
0.04486327558
0.02793370686
0.02807813661
0.02866174272
0.03024408393
0.03276217923
)


101
(
-1.322338873e-08
-4.744402604e-05
-0.002083279776
-0.01553205818
-0.05799792619
-0.1504103711
-0.3128298006
-0.5676237256
-0.9344533911
-1.432943161
-2.082824802
-2.906548505
-3.925219239
-5.16433344
-6.640530728
-8.343182598
-10.23110265
-12.23349595
-14.23128755
-16.09124575
-17.69700739
-18.92759798
-19.71916918
-20.0649231
-19.98510359
-19.52760571
-18.76040062
-17.75878295
-16.59883856
-15.34787847
-14.0616807
-12.78248074
-11.53154799
-10.33999054
-9.213222003
-8.154080026
-7.189286353
-6.340068922
-5.593745697
-4.916517094
-4.283398292
-3.686669475
-3.133427646
-2.627502979
-2.169541799
-1.759822866
-1.393922936
-1.068153085
-0.7774650778
-0.51900411
-0.2891610364
-0.08587662067
0.09284776494
0.249093525
0.3852086535
0.5031653518
0.604078888
0.6900961918
0.7617015957
0.8207076611
0.8677069377
0.9038436425
0.9302545736
0.9477435276
0.9572669445
0.9598046246
0.9559574881
0.9463289329
0.9313655785
0.91175251
0.8882163042
0.8611978253
0.8310754193
0.7983193308
0.7634740879
0.7270955688
0.6896449689
0.6512844151
0.6119548343
0.5714756856
0.5301142311
0.4886609292
0.4478543321
0.4080624824
0.3695586755
0.3325903535
0.297257106
0.2631514264
0.2302061176
0.1991982192
0.1705033462
0.1441881175
0.1202159832
0.09825224887
0.078872527
0.06026917229
0.04210217813
0.04362600704
0.04620895614
0.05164666327
0.0594397357
)


101
(
-1.324746681e-08
-4.289965218e-05
-0.001964534493
-0.01474341761
-0.05517597312
-0.1432154639
-0.2979426829
-0.5403444877
-0.8889874783
-1.362072999
-1.977887593
-2.756979883
-3.719213239
-4.888124144
-6.281679197
-7.894689353
-9.694483887
-11.62105201
-13.57322502
-15.42533811
-17.06888
-18.38689231
-19.30420122
-19.80077672
-19.88586776
-19.5959301
-18.9884673
-18.1314735
-17.09621696
-15.94826815
-14.74422587
-13.52861168
-12.3283939
-11.17598997
-10.07705106
-9.037925746
-8.073704937
-7.203593471
-6.43159148
-5.74021193
-5.105204568
-4.510672955
-3.956638624
-3.444287694
-2.974816329
-2.550486468
-2.168694125
-1.826879087
-1.51987538
-1.244294676
-0.9961528971
-0.7732858282
-0.5739630174
-0.3966036435
-0.2390904721
-0.09913661764
0.02438839708
0.1335851239
0.2287464486
0.3118706081
0.3834780452
0.4441556932
0.4951647589
0.5370718496
0.5707335023
0.5972752133
0.6173522239
0.6314321526
0.6398364293
0.6428503091
0.6413678732
0.6358459277
0.6266286531
0.6140087253
0.5983727391
0.5801339736
0.5597268987
0.5375152409
0.5136938012
0.488100512
0.4606639009
0.4317692753
0.4022343612
0.3725681183
0.3431026887
0.3140752154
0.2857513283
0.2580597747
0.2307612874
0.2042304438
0.1791338996
0.1556508564
0.1338409956
0.1135236874
0.09506084455
0.07670647667
0.05779636393
0.06222672843
0.06987787459
0.09034682024
0.1219039811
)


101
(
-1.326581007e-08
-3.863391793e-05
-0.001851178872
-0.0139871984
-0.05246793712
-0.1363167771
-0.2836938521
-0.5143133218
-0.8457364926
-1.294905232
-1.878828926
-2.616393363
-3.526322048
-4.630417737
-5.947535561
-7.477159788
-9.19431105
-11.04893569
-12.95592372
-14.79887765
-16.47670116
-17.87725923
-18.91778541
-19.56581823
-19.81913218
-19.70285164
-19.26380729
-18.56180737
-17.66258986
-16.62899257
-15.51744115
-14.37399341
-13.22974198
-12.12060724
-11.05348076
-10.0370685
-9.080914327
-8.199771134
-7.405069238
-6.692618831
-6.044807771
-5.443524395
-4.883689657
-4.362329112
-3.87897651
-3.436639459
-3.034406299
-2.671658137
-2.343746584
-2.0468283
-1.776594879
-1.530244542
-1.306179129
-1.103307649
-0.920198169
-0.7542712568
-0.6042568359
-0.4681100289
-0.3455537913
-0.2347800913
-0.1353689185
-0.04684064957
0.03187388376
0.1013229776
0.1620318059
0.2150734474
0.2613446184
0.3013231953
0.3352269995
0.3631369809
0.3855602809
0.4031058456
0.4162093637
0.4251799791
0.4302114273
0.4315297999
0.4294752829
0.4244825373
0.4168818699
0.4066900158
0.3937453364
0.3781356265
0.3604561916
0.3413452874
0.3212279979
0.3003993527
0.2791603814
0.2576584613
0.2358221566
0.2137327952
0.192041815
0.1711639408
0.1512765041
0.1323534748
0.1146749636
0.09637367167
0.07670807533
0.09154183647
0.1184651543
0.1905465221
0.2992270198
)


101
(
-1.327857993e-08
-3.463622115e-05
-0.001743033863
-0.01326235864
-0.0498699092
-0.1297029103
-0.2700553327
-0.4894672648
-0.8045745875
-1.231203185
-1.785235155
-2.484102231
-3.345485012
-4.389648803
-5.635975525
-7.087903117
-8.727336318
-10.51336105
-12.37526125
-14.20697218
-15.91479173
-17.39202533
-18.55137789
-19.34951325
-19.77271533
-19.83485317
-19.57203099
-19.03518862
-18.28372158
-17.3768194
-16.36978642
-15.30942409
-14.22962224
-13.1702452
-12.14068288
-11.15209871
-10.21157119
-9.329675051
-8.520099968
-7.787248549
-7.121636609
-6.507230507
-5.937367703
-5.405276328
-4.907602087
-4.446649307
-4.022081512
-3.635141376
-3.282606982
-2.960762724
-2.664973091
-2.391567217
-2.139007191
-1.906366507
-1.69271505
-1.495917577
-1.314761635
-1.146787751
-0.9918550581
-0.8481918532
-0.7156013143
-0.5938318252
-0.4820588927
-0.3798827433
-0.2868968942
-0.2023053414
-0.1250696054
-0.05455592105
0.009486151616
0.06701179892
0.1180890106
0.1631819464
0.2027558461
0.2372661228
0.2668806789
0.2915337544
0.3113949835
0.3268049315
0.3382272981
0.3457997538
0.349276611
0.3486397701
0.3443804555
0.3369387529
0.326961488
0.3147159816
0.3004067415
0.2844984868
0.267152381
0.2485817534
0.2291711559
0.2092249224
0.1896786616
0.1704622168
0.1518835198
0.1317037797
0.1087910103
0.1616720676
0.2539102134
0.4745766149
0.808392902
)


101
(
-1.328593953e-08
-3.089614128e-05
-0.00163992445
-0.0125678833
-0.04737810985
-0.1233629534
-0.2570006646
-0.4657474079
-0.7653846592
-1.170748343
-1.696726343
-2.359479667
-3.175736384
-4.16439712
-5.345073852
-6.724494397
-8.29066291
-10.01099643
-11.82767071
-13.64550985
-15.37841485
-16.92564462
-18.19784962
-19.14284752
-19.73590653
-19.97977156
-19.89988462
-19.53786374
-18.94596117
-18.17880571
-17.28966507
-16.32531245
-15.32134095
-14.32104947
-13.33700974
-12.38336174
-11.46676407
-10.59485897
-9.781154584
-9.034287922
-8.351863502
-7.722334932
-7.139708443
-6.595255691
-6.082949798
-5.603491347
-5.155945677
-4.742646566
-4.362111965
-4.011181541
-3.685013301
-3.379996126
-3.09413365
-2.825957834
-2.575562023
-2.341417312
-2.122188824
-1.915442802
-1.721149903
-1.537426591
-1.364120525
-1.201125622
-1.047868396
-0.9043504455
-0.7703653096
-0.6454627333
-0.5286748228
-0.4190829531
-0.3163188387
-0.2205025887
-0.1319005848
-0.05052040282
0.02409659963
0.09233044867
0.1543577168
0.2100280322
0.259150426
0.3017021411
0.3381653534
0.3687626705
0.3933332244
0.4112981734
0.4235629875
0.42998844
0.4317831217
0.4284582722
0.4207710655
0.4087816444
0.3933769251
0.3750944602
0.3542320985
0.3303463762
0.3063461132
0.2817268189
0.2565959322
0.2283734367
0.1909186756
0.3524406572
0.621181774
1.193874754
2.069661425
)


101
(
-1.328805289e-08
-2.740347013e-05
-0.001541679255
-0.01190278258
-0.04498888112
-0.1172864375
-0.2445046721
-0.4430982421
-0.7280573872
-1.113338337
-1.612952535
-2.241950941
-3.016192924
-3.953367156
-5.073076853
-6.384734748
-7.881689923
-9.538896393
-11.31005214
-13.11104549
-14.86365536
-16.47356063
-17.85134278
-18.93822319
-19.69941825
-20.1268474
-20.235356
-20.05695508
-19.63609763
-19.0219934
-18.26494833
-17.41096258
-16.49651884
-15.56743636
-14.63926406
-13.7298389
-12.84707274
-11.99691952
-11.19166752
-10.44091325
-9.746813727
-9.10272499
-8.505810294
-7.947057235
-7.418760982
-6.919865443
-6.447995668
-6.005865539
-5.592845222
-5.207124931
-4.844587732
-4.501908311
-4.176252018
-3.865754881
-3.570574689
-3.289840983
-3.023163756
-2.76762759
-2.523734794
-2.289411448
-2.064207993
-1.848184228
-1.640979862
-1.442827049
-1.253862712
-1.074140249
-0.9031977545
-0.7400457386
-0.5840876032
-0.435256371
-0.294060691
-0.1610761092
-0.03651350801
0.07997410814
0.1886106755
0.2891634657
0.3808028473
0.4631229557
0.5364501045
0.600565393
0.6551606625
0.6997849676
0.7347632889
0.7603560423
0.7773100593
0.7850191105
0.7842973509
0.7741938067
0.7568349415
0.7332174849
0.7036909119
0.6677495005
0.6294061313
0.5887561909
0.545192445
0.4940176879
0.4230804755
0.8396372253
1.510558267
2.796824416
4.738035483
)


101
(
-1.32850846e-08
-2.414820378e-05
-0.001448130999
-0.01126609486
-0.04269869885
-0.1114633635
-0.2325434743
-0.421467479
-0.6924911329
-1.058787008
-1.53359302
-2.13099062
-2.866048044
-3.755376934
-4.818384559
-6.066624836
-7.498070848
-9.094439325
-10.81969588
-12.60066371
-14.36726931
-16.03206093
-17.5071916
-18.72939188
-19.65530257
-20.26655499
-20.56751292
-20.58041801
-20.34143288
-19.89364799
-19.28347648
-18.55523759
-17.74561383
-16.90226993
-16.04291464
-15.18909973
-14.35124637
-13.53485581
-12.75040779
-12.00677589
-11.30834881
-10.65234401
-10.04049346
-9.465052839
-8.918073421
-8.397332292
-7.898433569
-7.423575333
-6.972599041
-6.545512676
-6.139151246
-5.750739975
-5.376933044
-5.015218069
-4.664878407
-4.326253149
-3.999461607
-3.68167024
-3.37358321
-3.073267736
-2.779889018
-2.493392062
-2.213763703
-1.941307217
-1.676518402
-1.419942102
-1.171919392
-0.9319840591
-0.6993913013
-0.4739203374
-0.2560760883
-0.0468747014
0.1526766095
0.3421778277
0.5216244483
0.690523915
0.8476970297
0.992195183
1.123496662
1.240992328
1.343610675
1.430741197
1.502009084
1.557811316
1.598791675
1.623614819
1.632800941
1.62473809
1.601463888
1.567313859
1.518854866
1.458688534
1.391241366
1.317955845
1.238538243
1.137774361
0.9957222675
1.946096112
3.432982205
5.993216345
9.743495988
)


101
(
-1.327720031e-08
-2.112051179e-05
-0.001359115961
-0.01065688191
-0.04050414879
-0.1058841302
-0.2210943485
-0.4008058237
-0.6585908775
-1.006922045
-1.458352664
-2.026117777
-2.724565483
-3.569349822
-4.579539805
-5.768348898
-7.137691291
-8.675295494
-10.35424707
-12.11194392
-13.88664254
-15.59817666
-17.16166982
-18.51122782
-19.59673484
-20.39034837
-20.88618102
-21.09670976
-21.0495093
-20.78095975
-20.33273027
-19.7464698
-19.05816421
-18.31673396
-17.54103906
-16.75566551
-15.97403173
-15.20237845
-14.44978229
-13.72372362
-13.02912177
-12.36550908
-11.73907655
-11.14496296
-10.5761489
-10.03007101
-9.500503009
-8.988547812
-8.494066538
-8.018480521
-7.559589708
-7.115430787
-6.682656918
-6.257967915
-5.839808583
-5.428995719
-5.025329974
-4.626832554
-4.234324331
-3.846446005
-3.461903264
-3.080336403
-2.701869612
-2.326890561
-1.95626767
-1.590959366
-1.232014571
-0.8800488121
-0.5347088105
-0.1957500036
0.1363376644
0.4603606767
0.7745510478
1.077224465
1.367509184
1.644265368
1.90582817
2.150657142
2.376751623
2.583053665
2.767162145
2.92710006
3.062116048
3.171649393
3.2559955
3.31366645
3.343494131
3.344430899
3.316033406
3.266206773
3.190059515
3.091106442
2.974694854
2.846484582
2.707851282
2.525238877
2.266441898
4.193205898
7.113645404
11.72136307
18.20945922
)


101
(
-1.326456678e-08
-1.831078122e-05
-0.001274474196
-0.01007423052
-0.03840193025
-0.1005395323
-0.2101356803
-0.3810668131
-0.626268009
-0.9575840058
-1.386959896
-1.926892665
-2.591074001
-3.394306522
-4.355216441
-5.488255962
-6.79864629
-8.279400909
-9.911662447
-11.64288976
-13.41969599
-15.16955403
-16.81173171
-18.27939652
-19.51751052
-20.49000837
-21.18136181
-21.59437099
-21.74779073
-21.67074269
-21.39937241
-20.9717384
-20.4220988
-19.79950753
-19.12315494
-18.41969113
-17.70538608
-16.98814084
-16.2767896
-15.57808889
-14.89587755
-14.23051836
-13.5915983
-12.97789979
-12.38437647
-11.8092171
-11.24525155
-10.6920763
-10.1486124
-9.617045346
-9.09591771
-8.584280794
-8.079149656
-7.576643441
-7.074359356
-6.572415043
-6.070680565
-5.567252667
-5.063552171
-4.558726212
-4.051383365
-3.540631784
-3.026615695
-2.509626029
-1.990606962
-1.471174575
-0.9527999942
-0.4373409196
0.07449136471
0.5825569867
1.086102853
1.583721516
2.073387553
2.551730153
3.016336154
3.46433938
3.892873273
4.299992918
4.681526612
5.035437446
5.35762292
5.64338274
5.890820824
6.097962398
6.263199278
6.385942685
6.461516798
6.489255682
6.467126165
6.403342882
6.2934097
6.143624346
5.959522707
5.749841467
5.524345552
5.221014312
4.79103646
8.348739039
13.51166503
20.95189641
30.97015863
)


101
(
-1.324735037e-08
-1.570959134e-05
-0.001194049429
-0.009517251104
-0.03638884981
-0.09542073846
-0.1996468794
-0.3622065532
-0.595439966
-0.9106258388
-1.319164641
-1.832912857
-2.464961356
-3.229353872
-4.144203251
-5.224838724
-6.479214489
-7.904930201
-9.490191058
-11.1918738
-12.96481923
-14.74439772
-16.45499345
-18.03045177
-19.41257459
-20.55851582
-21.44403193
-22.0625678
-22.42393416
-22.54945062
-22.46896471
-22.21607983
-21.82233636
-21.33555887
-20.77432227
-20.1663821
-19.53047227
-18.87689292
-18.21558553
-17.55345276
-16.8927587
-16.23331485
-15.58655636
-14.95448389
-14.33474004
-13.72726458
-13.12492965
-12.52603336
-11.92783906
-11.33235013
-10.73809316
-10.14520976
-9.551545934
-8.952617858
-8.345095422
-7.727927338
-7.101057831
-6.461694546
-5.811726403
-5.150823761
-4.478000162
-3.791378696
-3.091004793
-2.377186685
-1.650839325
-0.9133858392
-0.1669809352
0.5849547891
1.340862991
2.098573482
2.85726963
3.614397611
4.368384592
5.113942936
5.846730998
6.561019604
7.250430855
7.911976009
8.540324848
9.130328457
9.676329417
10.16889889
10.60453467
10.97890903
11.28566033
11.52595025
11.69182522
11.78007942
11.78831758
11.72507498
11.58278338
11.3749303
11.10939515
10.79341275
10.45439907
9.99141716
9.341609373
15.30566042
23.49400282
34.24846255
47.81360683
)


101
(
-1.322571787e-08
-1.330770254e-05
-0.001117688903
-0.008985076645
-0.0344618147
-0.09051927116
-0.1896083664
-0.3441836415
-0.5660293535
-0.8659111958
-1.254737067
-1.743810394
-2.345670318
-3.073681237
-3.945399303
-4.976725811
-6.177831313
-7.550243221
-9.088291997
-10.75756463
-12.52083159
-14.32150355
-16.08986626
-17.76191673
-19.2780086
-20.59006821
-21.66623945
-22.4911129
-23.065557
-23.40273914
-23.52554259
-23.46217005
-23.24040785
-22.90568185
-22.47519148
-21.97685739
-21.43127209
-20.85139179
-20.24934073
-19.63302087
-19.00359958
-18.35946823
-17.71222546
-17.06565098
-16.42016569
-15.77822373
-15.13344511
-14.4834134
-13.82371691
-13.15495225
-12.47503677
-11.78480879
-11.0829281
-10.36427459
-9.624767716
-8.861928649
-8.074741662
-7.259498932
-6.417027456
-5.548158766
-4.652484404
-3.727207706
-2.771307531
-1.785854328
-0.7715081928
0.271550845
1.339337861
2.428565968
3.53393103
4.652292549
5.781806935
6.917059649
8.05658255
9.193105821
10.32062807
11.43000269
12.50690965
13.54838123
14.54461599
15.48778686
16.37148548
17.1786744
17.90138814
18.53405538
19.06566935
19.49381086
19.80698662
20.00530452
20.0762203
20.03634209
19.87378805
19.60468232
19.24979217
18.80879284
18.33245305
17.67767935
16.76415333
25.79863421
37.43024992
51.37167854
67.31703715
)


101
(
-1.319983646e-08
-1.109608466e-05
-0.001045243491
-0.008476863322
-0.03261783309
-0.08582699322
-0.1800015326
-0.3269590436
-0.5379637
-0.8233136397
-1.193467119
-1.659248464
-2.232693541
-2.926554732
-3.75780854
-4.742675065
-5.89307204
-7.213845591
-8.704570324
-10.33874947
-12.08676835
-13.90007203
-15.71545438
-17.47224432
-19.11096914
-20.57998938
-21.84103672
-22.87051591
-23.6605151
-24.21588084
-24.55211296
-24.69116054
-24.65593011
-24.48859278
-24.20431816
-23.83039203
-23.3884322
-22.8937903
-22.36132371
-21.80070706
-21.2129389
-20.59462133
-19.95622215
-19.30170392
-18.6332706
-17.95593314
-17.26480677
-16.55744466
-15.82763972
-15.07414883
-14.29370624
-13.4865422
-12.65168266
-11.78388154
-10.87790757
-9.929652698
-8.936459493
-7.893304194
-6.798559351
-5.65371896
-4.458583178
-3.211381718
-1.908996864
-0.553635762
0.8551782285
2.318136389
3.829995521
5.385726921
6.976538069
8.597932872
10.24533636
11.90855523
13.58592188
15.26514353
16.93964522
18.59888206
20.21651134
21.78654239
23.28871086
24.71977805
26.06691032
27.30497393
28.42442708
29.4099393
30.24765176
30.93846334
31.45650569
31.81022562
31.97608162
31.97762911
31.80682495
31.47272682
31.0142684
30.43014894
29.79234267
28.91811733
27.69464064
40.03215378
54.82266048
71.11638891
89.04578645
)


101
(
-1.316987339e-08
-9.065903507e-06
-0.0009765668278
-0.007991789331
-0.03085400985
-0.0813360977
-0.1708086808
-0.3104959311
-0.5111750349
-0.7827157438
-1.135162053
-1.578919168
-2.125569073
-2.787309632
-3.580528339
-4.521557822
-5.623641618
-6.894376632
-8.337778013
-9.934399494
-11.66192766
-13.47967494
-15.33139063
-17.16062706
-18.90952737
-20.52456136
-21.9623355
-23.19194646
-24.19710579
-24.97429373
-25.53124009
-25.8831329
-26.04730895
-26.06169711
-25.9390789
-25.7053048
-25.38200325
-24.98606092
-24.53501637
-24.04101504
-23.5055776
-22.92412934
-22.30525201
-21.65125984
-20.96455056
-20.25209631
-19.5108835
-18.73896234
-17.9281971
-17.07544861
-16.17557565
-15.22700061
-14.22783169
-13.17321272
-12.05609239
-10.87006057
-9.61165764
-8.273554657
-6.85001172
-5.342128008
-3.750747844
-2.075146022
-0.3118213687
1.536625988
3.473836177
5.494955313
7.59854509
9.776833432
12.01576371
14.30705223
16.64000402
19.0017605
21.38518565
23.77296025
26.15536984
28.52061249
30.83711846
33.07780157
35.22255488
37.26255489
39.17811233
40.94347588
42.54856455
43.95606115
45.15646061
46.15013026
46.90297345
47.42579525
47.69372867
47.73015742
47.53450664
47.11673689
46.51922223
45.76056128
44.92448824
43.78658784
42.17345538
57.39092319
74.29130181
91.5766672
108.863583
)


101
(
-1.313599564e-08
-7.208504143e-06
-0.0009115169557
-0.007529051675
-0.02916753248
-0.07703906708
-0.1620129265
-0.2947594674
-0.4855991211
-0.7440075995
-1.079644367
-1.502541462
-2.023876201
-2.655341756
-3.412736733
-4.312341261
-5.368356252
-6.590608379
-7.986819445
-9.543700273
-11.24588282
-13.06024875
-14.93775545
-16.82687299
-18.67252042
-20.42086617
-22.02484292
-23.44732143
-24.66426379
-25.66391906
-26.44591686
-27.01840533
-27.39295223
-27.60228277
-27.65649845
-27.57927105
-27.39116929
-27.10943908
-26.75345604
-26.33797917
-25.86605567
-25.33263376
-24.74415504
-24.10013736
-23.40121618
-22.65474085
-21.85923841
-21.01360266
-20.10815447
-19.13745209
-18.09358658
-16.97216756
-15.76918927
-14.47953108
-13.09466406
-11.60494209
-10.00591476
-8.287782423
-6.441279552
-4.464779315
-2.359658642
-0.1272049406
2.233048268
4.719459712
7.336936384
10.07414344
12.93436948
15.90312042
18.96240639
22.09214418
25.28017036
28.50797735
31.75709142
35.00570259
38.2392491
41.43744832
44.56109247
47.58421735
50.46289998
53.18155188
55.71512189
58.0504131
60.15781718
61.99737181
63.55332895
64.83262075
65.79376832
66.44165583
66.76354436
66.77939176
66.48926163
65.93269158
65.1304324
64.12594439
63.03440777
61.55842994
59.43189867
76.45229102
93.8893083
110.718561
125.9489448
)


101
(
-1.309837001e-08
-5.515434566e-06
-0.0008499558864
-0.007087870293
-0.02755568496
-0.07292869938
-0.1535982301
-0.2797168612
-0.4611753733
-0.7070857376
-1.02675081
-1.429860165
-1.927234268
-2.530103289
-3.253682259
-4.114070036
-5.126111876
-6.301397857
-7.650695613
-9.166052821
-10.8384783
-12.64208618
-14.53502175
-16.47134372
-18.39957526
-20.26698661
-22.02435593
-23.62960521
-25.05183764
-26.27146005
-27.27992655
-28.07817006
-28.67195179
-29.0880328
-29.33357049
-29.4293454
-29.39391136
-29.24355634
-28.99820649
-28.67472541
-28.27804385
-27.80344111
-27.25565376
-26.63082749
-25.92608431
-25.14690996
-24.29173766
-23.36032131
-22.34260628
-21.2297534
-20.01036678
-18.67631935
-17.22006796
-15.63528798
-13.91248204
-12.03971854
-10.00956233
-7.809906305
-5.430167107
-2.865507392
-0.1125624186
2.817863119
5.924871468
9.205072237
12.66101634
16.27606367
20.0517518
23.96903315
28.00296914
32.11989142
36.30786467
40.52738927
44.75346348
48.96143025
53.12624366
57.21607012
61.19398707
65.02487974
68.6396955
72.0210237
75.14300401
77.99352467
80.53166231
82.71527293
84.54871494
86.00246905
87.06333198
87.72798622
87.990608
87.87110253
87.37813741
86.56857183
85.47037573
84.12145859
82.67616981
80.74130544
77.92167677
95.33311016
111.6938545
126.9281968
139.0676318
)


101
(
-1.305716289e-08
-3.978431918e-06
-0.0007917472386
-0.006667485071
-0.02601583573
-0.06899807172
-0.1455493065
-0.2653371572
-0.4378470721
-0.6718538215
-0.9763303578
-1.360641908
-1.835297077
-2.411098845
-3.102686904
-3.925880592
-4.895907343
-6.025705297
-7.32849269
-8.800913197
-10.43965107
-12.22564773
-14.12398115
-16.09486568
-18.09101881
-20.06195144
-21.9578293
-23.7330778
-25.3510026
-26.784903
-28.01837267
-29.0449954
-29.86454
-30.49747386
-30.9476982
-31.23240187
-31.36726664
-31.36648289
-31.24895925
-31.03235893
-30.72330356
-30.31793239
-29.81990233
-29.22213251
-28.51692436
-27.70535505
-26.78368535
-25.75139154
-24.59829018
-23.31239219
-21.8780418
-20.28283546
-18.51440756
-16.5629845
-14.41886585
-12.07020397
-9.506170696
-6.713450027
-3.679710663
-0.3986284589
3.137109228
6.907426949
10.90829661
15.13019949
19.56628487
24.19896405
29.01828967
34.00148203
39.11793359
44.3199581
49.58227701
54.84803751
60.08830344
65.26761546
70.34582992
75.28655325
80.05018133
84.59944707
88.85304979
92.77984863
96.35199091
99.55680017
102.3616243
104.7238166
106.6455241
108.1155944
109.098136
109.6120504
109.6541589
109.2427527
108.411687
107.2264689
105.6995289
103.8930169
101.9779484
99.46330745
95.76413967
112.2334999
126.2703224
139.2626895
147.7221303
)


101
(
-1.30125398e-08
-2.589402192e-06
-0.0007367563223
-0.006267153399
-0.02454542748
-0.06524050857
-0.1378515578
-0.2515909664
-0.415560749
-0.638221772
-0.9282402269
-1.294674219
-1.747747232
-2.29787531
-2.959132859
-3.746985906
-4.676828241
-5.76257634
-7.019364158
-8.447740988
-10.04933744
-11.81139303
-13.7056407
-15.6986309
-17.74781427
-19.80578845
-21.82354856
-23.75363019
-25.55475901
-27.19413346
-28.64820003
-29.90323394
-30.9526897
-31.81041272
-32.47691396
-32.9651662
-33.2873612
-33.45448908
-33.48283161
-33.38917089
-33.1808604
-32.85486118
-32.41413066
-31.84881061
-31.14593471
-30.30035353
-29.30327858
-28.15165019
-26.83423309
-25.33711735
-23.64077313
-21.72776342
-19.58143419
-17.18473805
-14.5279783
-11.60112834
-8.39359774
-4.891772767
-1.083671318
3.036646715
7.475216534
12.21018226
17.22655293
22.50684279
28.0224085
33.76154682
39.69457442
45.79319345
52.02040787
58.30722395
64.61767718
70.88935266
77.07605352
83.12581301
88.98992849
94.626619
99.99372019
105.0642736
109.7541019
114.0107392
117.796608
121.1262101
123.9679736
126.2794326
128.0655509
129.3427919
130.0527576
130.2348859
129.8909449
129.0395059
127.7413245
126.0491423
124.0010248
121.6373027
119.1718956
115.98245
111.2880987
125.862121
136.861523
147.4088444
152.5840075
)


101
(
-1.296466631e-08
-1.339893789e-06
-0.000684854929
-0.00588615442
-0.02314199081
-0.0616496119
-0.1304911097
-0.2384506434
-0.3942664834
-0.606106012
-0.8823483506
-1.231762625
-1.664296869
-2.190021466
-2.822461426
-3.57667427
-4.468044106
-5.511140399
-6.722539275
-8.106038699
-9.667507901
-11.39985715
-13.28113533
-15.28415143
-17.37150763
-19.49954165
-21.62126257
-23.68889559
-25.65805276
-27.49112528
-29.15838451
-30.63918261
-31.92032901
-33.00837101
-33.90036417
-34.60467824
-35.12965386
-35.48218673
-35.67443004
-35.72047566
-35.62663916
-35.38979255
-35.0121709
-34.48165211
-33.78033226
-32.89578891
-31.81161662
-30.51891062
-29.00385088
-27.25143289
-25.23957037
-22.94653747
-20.35176366
-17.43006227
-14.17069736
-10.56622059
-6.610014202
-2.290980325
2.397260508
7.454792121
12.88565584
18.66733945
24.76807311
31.16417353
37.79722173
44.65383992
51.68592099
58.85472936
66.11564191
73.38233393
80.61015921
87.7253831
94.66863518
101.3782836
107.797814
113.8798861
119.5907193
124.9052616
129.7371529
134.0520463
137.7890195
140.9873417
143.6196782
145.6467564
147.0718996
147.9540475
148.2281952
147.928497
147.0691492
145.6686177
143.8241361
141.5444311
138.9290005
135.9740336
132.9347687
129.0535534
123.3636764
135.5423004
143.3050491
151.6003676
154.2584841
)


101
(
-1.291372182e-08
-2.222183707e-07
-0.0006359198372
-0.005523783554
-0.02180312273
-0.05821920142
-0.1234546364
-0.2258899378
-0.3739174588
-0.5754286119
-0.8385320363
-1.171725297
-1.584683319
-2.08716561
-2.692168149
-3.414300245
-4.268797035
-5.270603299