/*--------------------------------*- C++ -*----------------------------------*\
| =========                 |                                                 |
| \\      /  F ield         | OpenFOAM: The Open Source CFD Toolbox           |
|  \\    /   O peration     | Version:  2.3.1                                 |
|   \\  /    A nd           | Web:      www.OpenFOAM.org                      |
|    \\/     M anipulation  |                                                 |
\*---------------------------------------------------------------------------*/
FoamFile
{
    version     2.0;
    format      ascii;
    class       dictionary;
    location    "constant";
    object      la_r24;
}
// * * * * * * * * * * * * * * * * * * * * * * * * * * * * * * * * * * * * * //

la_r24_table
101
(

101
(
2.349292978e-07
0.001501645227
0.02932768652
0.164137406
0.4967341709
1.072983778
1.897015189
2.975562645
4.25240337
5.709694908
7.321661784
9.089869159
11.02726895
13.17410061
15.57992603
18.29440674
21.36439308
24.84611508
28.70017876
32.97868302
37.56731645
42.328487
47.24588965
52.13746651
56.82560665
61.16460598
65.02742574
68.31024093
70.9546029
72.91044948
74.1705858
74.74308637
74.66918368
74.0071419
72.79460619
71.12052161
106.0447357
166.5305916
159.5447384
151.709846
143.311438
134.5905292
125.6473391
116.6404224
107.7268033
99.00969166
90.5641836
82.50809676
74.85686682
67.7026012
61.0497243
54.92426048
49.3236443
44.24504747
39.66945548
35.55326234
31.92172774
28.6636095
25.79679921
23.24715343
21.00706299
19.00860503
17.22748559
15.64213284
14.23480792
12.95627604
11.79777749
10.74414936
9.779332694
8.888596243
8.06642516
7.302630063
6.593923851
5.93732039
8.312773687
9.377332655
7.992971399
6.778062529
5.712593826
4.782242448
3.973385598
3.279483702
2.683554901
3.549813325
3.737697512
2.719720805
1.94743706
1.367720797
0.9412996255
1.267469608
0.8028341398
0.4213238657
0.2077190245
0.1581946385
0.08089692953
0.01291410724
2.299898179e-15
-6.535606065e-31
-2.28279622e-25
1.227192819e-25
-6.871658682e-24
)


101
(
2.174289981e-07
0.001431606971
0.02758023943
0.1517737388
0.4510752282
0.9557853183
1.655286976
2.538213751
3.537849364
4.62073617
5.749613214
6.910084938
8.101636987
9.343001206
10.66853239
12.11020628
13.69806165
15.47611247
17.41518988
19.55296187
21.82785495
24.12432961
26.4530043
28.72537445
30.82262445
32.66160401
34.18277591
35.34314022
36.14025592
36.57557118
36.6694679
36.44258343
35.89423071
35.14172123
34.18962378
33.05914203
32.51698379
32.838222
32.11795942
30.7106476
29.12154537
27.48127288
25.8517918
24.25589969
22.6985427
21.19453038
19.74786978
18.36709321
17.05655853
15.82093463
14.66252454
13.58141001
12.57663765
11.64299694
10.78269675
9.994378596
9.27714934
8.623270603
8.027651212
7.484649872
6.98907516
6.535461933
6.117977337
5.732402755
5.376185111
5.045686351
4.735921175
4.444180389
4.167563465
3.90435297
3.652687007
3.411142725
3.178472934
2.953832026
2.741950899
2.538436895
2.335506144
2.13487141
1.939407067
1.751054692
1.571206772
1.400165819
1.238604268
1.088877714
0.9478873011
0.8128739486
0.6857595512
0.5690159231
0.4634517174
0.3702207785
0.2878971727
0.2143175254
0.1516681701
0.1007706833
0.06018869892
0.02954380199
0.009014979009
0.00954601639
0.01019941278
0.01106034369
0.01136714706
)


101
(
2.006538068e-07
0.001351930097
0.02628273491
0.1450953846
0.4319824654
0.916428913
1.588248505
2.435063265
3.395078335
4.433646849
5.51561261
6.62550595
7.762161506
8.941475945
10.19489832
11.5525343
13.04242894
14.70387132
16.52096648
18.51528176
20.64988297
22.82427028
25.02132329
27.17909699
29.19418836
30.98124777
32.47902891
33.64446707
34.46569065
34.94596365
35.1029556
34.95960485
34.52176919
33.85222223
32.97923121
31.93142926
31.13975635
30.85586037
30.33653817
29.31189731
27.98006877
26.5173587
25.03683523
23.58127912
22.16048863
20.78670057
19.46446973
18.19342108
16.98010692
15.8258312
14.73433836
13.70573114
12.74144242
11.83830503
10.99371165
10.20734991
9.477859095
8.805457383
8.185524606
7.614083789
7.087993265
6.602608952
6.153218216
5.737866103
5.353932385
4.998306028
4.666695109
4.357080577
4.067473533
3.794816972
3.538110394
3.294935877
3.065493793
2.846816976
2.639655455
2.443972398
2.256317878
2.07405016
1.896489492
1.724332549
1.559381981
1.402186797
1.253044474
1.112575547
0.9811281988
0.8571687511
0.7391556118
0.6280725223
0.5259080852
0.433382307
0.3503883836
0.2764849131
0.2103174004
0.153678161
0.1067102314
0.06639741823
0.03366136341
0.03677663554
0.04019282083
0.04515229533
0.04647106466
)


101
(
1.845947349e-07
0.001276709755
0.02509315379
0.1390023917
0.4145268059
0.8803613246
1.526767853
2.340631882
3.264755299
4.263899441
5.304821291
6.371361736
7.461738991
8.589496858
9.783452156
11.0720478
12.48177513
14.04823937
15.76592996
17.64677738
19.67074928
21.75385398
23.86262936
25.94975474
27.9276366
29.71318539
31.24324669
32.47291383
33.3829152
33.97316108
34.25784991
34.26067533
33.99166978
33.48926348
32.77465319
31.83105305
31.05896092
30.53031219
30.01380838
29.25681098
28.20731293
26.96821437
25.65807909
24.33899931
23.0384915
21.77517053
20.55159646
19.36720006
18.22121596
17.11754612
16.05633167
15.04148209
14.07585196
13.1577127
12.28568782
11.46267827
10.67871051
9.942359734
9.251643721
8.603082103
7.997658709
7.432257247
6.903081305
6.409355362
5.949099284
5.519474593
5.118997175
4.743749131
4.396894544
4.073384958
3.771412135
3.48834864
3.225703313
2.979981888
2.749788782
2.535121885
2.334261584
2.144698908
1.964691564
1.792535161
1.628486245
1.472538445
1.32545302
1.186753741
1.056637083
0.934727038
0.8198035859
0.7105904436
0.608221509
0.5141395595
0.4284035783
0.3511301637
0.2814477893
0.2191441075
0.1656690675
0.1165473312
0.07207168163
0.08030688435
0.08976435974
0.1066403516
0.1149849706
)


101
(
1.692423632e-07
0.001204615444
0.02395009433
0.1331336083
0.3977140977
0.8456899881
1.467889932
2.250743274
3.141396664
4.104521135
5.108656393
6.137249221
7.187976808
8.272366382
9.416853712
10.64839615
11.992228
13.48105517
15.11740613
16.90799476
18.8443761
20.85882659
22.90997036
24.95821588
26.93024143
28.74795316
30.34728409
31.68099732
32.72351289
33.46910141
33.92566989
34.1178647
34.0556166
33.77127562
33.2784522
32.58191488
31.87060253
31.29583783
30.79846458
30.20829727
29.41618171
28.42964324
27.32985927
26.17906578
25.01795471
23.87661751
22.75979374
21.66828006
20.59772081
19.55521544
18.53540027
17.54213367
16.57978316
15.65172946
14.7541494
13.88623028
13.0509415
12.24698338
11.47828847
10.73314605
10.02476205
9.353401677
8.711523987
8.105249187
7.532062894
6.98088523
6.460539237
5.9680279
5.506900133
5.077889288
4.667437899
4.284141549
3.92763114
3.598302957
3.290548254
3.005088994
2.737787724
2.49290555
2.265779839
2.055081155
1.859636981
1.67551348
1.505546929
1.348559939
1.203240407
1.068328638
0.9436194358
0.8276608406
0.7190343422
0.6184844912
0.5263546361
0.4427481197
0.367187605
0.298607622
0.2382324237
0.1804451845
0.1245558634
0.1454763151
0.1683417007
0.2134693929
0.2233420662
)


101
(
1.545867281e-07
0.001135321008
0.02284608499
0.1274613017
0.3814836043
0.8123000874
1.411403827
2.165004876
3.024351766
3.954434581
4.925478338
5.920768466
6.937513546
7.985516218
9.089044378
10.27370739
11.5637213
12.9894639
14.55962417
16.27864734
18.14612075
20.10943278
22.1251581
24.15804341
26.14673151
28.01990774
29.71388562
31.17940273
32.3855616
33.32034945
33.98627161
34.39995336
34.5754599
34.54370079
34.3107202
33.88527277
33.36516424
32.87932073
32.46011276
32.02927832
31.48272929
30.77727143
29.9461135
29.03546003
28.08501485
27.13247295
26.192236
25.2742065
24.37220486
23.48921025
22.61281119
21.74175989
20.88097143
20.04292173
19.22570815
18.40997157
17.60415187
16.81352262
16.05407245
15.27364744
14.48634039
13.74311306
12.9858743
12.25478266
11.55318829
10.84522377
10.14938873
9.465401148
8.783649298
8.166341218
7.536149085
6.928486096
6.340928355
5.79311574
5.270676901
4.777463472
4.313784147
3.881548903
3.469817899
3.095523218
2.754509834
2.44763736
2.159916674
1.903332525
1.670507827
1.461457695
1.270335997
1.10247509
0.9517540916
0.8174122847
0.6967288455
0.5889195143
0.4948017533
0.4106820611
0.3372536944
0.2659183332
0.1954194713
0.252434404
0.303315905
0.4568407095
0.5198362648
)


101
(
1.406174028e-07
0.001068704716
0.02177948678
0.1219782979
0.3658116965
0.780128136
1.35716383
2.083111071
2.91308838
3.812735522
4.753892574
5.719869901
6.707474177
7.725044825
8.794865338
9.941305608
11.18776923
12.56272834
14.07953564
15.74230512
17.55625674
19.48226864
21.47909004
23.51430455
25.53626223
27.48143823
29.28807812
30.9055008
32.29863881
33.44952728
34.35468794
35.02381726
35.46917139
35.7241834
35.79231833
35.68186848
35.44478193
35.17614909
34.94454387
34.74217016
34.50238224
34.16535341
33.73133126
33.22803006
32.68026465
32.12146394
31.5736242
31.07059648
30.60661619
30.1622921
29.73294251
29.27105985
28.78492822
28.29474787
27.83169804
27.30780278
26.72051142
26.12528161
25.50801561
24.80774132
24.04960151
23.2949632
22.45656778
21.55696377
20.65985433
19.71905619
18.73540386
17.72862984
16.67351605
15.64577699
14.60991638
13.58004323
12.54936033
11.54938718
10.57113937
9.62141781
8.7250372
7.860001315
7.024248404
6.243757671
5.51785386
4.870821335
4.261862735
3.709637657
3.215112962
2.767382682
2.361683005
2.00176396
1.692865939
1.429296529
1.193672709
0.9873643595
0.8170800615
0.6702230874
0.5490713696
0.4299806302
0.316675078
0.5107645028
0.6467788448
0.9640058147
1.082620731
)


101
(
1.273235651e-07
0.001004693997
0.02074933317
0.1166789781
0.3506776706
0.7491171868
1.305039376
2.004789802
2.807131962
3.678623117
4.592673236
5.53276082
6.495365111
7.48758002
8.529891179
9.645500276
10.8571582
12.19179276
13.66622762
15.28547028
17.05878055
18.95873469
20.94900108
22.99977868
25.06723031
27.09611775
29.02840664
30.81314552
32.4122664
33.80302657
34.97677069
35.93744435
36.69434926
37.28293213
37.71190886
37.99431222
38.15882693
38.27337268
38.42205043
38.64173392
38.90893594
39.16940396
39.41970303
39.66349184
39.89950607
40.1412121
40.38799361
40.6848175
41.04548304
41.41473453
41.79259123
42.04318875
42.21040889
42.30445683
42.34932922
42.24448025
41.98889392
41.59873539
41.09114042
40.3859304
39.52045503
38.59819585
37.52746192
36.33479063
35.05294811
33.68151695
32.19515318
30.68494444
29.08420124
27.47095991
25.84700594
24.18826194
22.52049871
20.87130528
19.26122942
17.67210571
16.15423154
14.68698542
13.27817564
11.93031942
10.63832883
9.441946715
8.343441731
7.313003146
6.385681695
5.537024181
4.754389372
4.044847935
3.426820828
2.891263679
2.422522922
1.992736697
1.642835985
1.344328167
1.094099841
0.8542160115
0.6144655686
1.053252282
1.310367838
1.802617864
1.995828254
)


101
(
1.146938563e-07
0.0009432285624
0.01975474925
0.1115580315
0.3360620535
0.7192145277
1.254911852
1.929797779
2.706057798
3.551387046
4.440739273
5.357878526
6.299025054
7.270221607
8.290325688
9.381436247
10.56576709
11.86900414
13.31054194
14.89697774
16.6406234
18.52398716
20.51717759
22.59370008
24.71606427
26.83737426
28.90535584
30.87080126
32.69444889
34.35079223
35.82860104
37.12984306
38.26324177
39.26782905
40.16846455
40.98725062
41.74388995
42.4948582
43.34075697
44.32689317
45.46837128
46.72790324
48.05989084
49.43838419
50.83323726
52.23044762
53.58855446
54.92530488
56.29308919
57.56325015
58.68329556
59.56568185
60.26062784
60.67997044
60.96814814
61.04084931
60.78255092
60.26587753
59.53933822
58.53507895
57.28932053
55.91039825
54.29670862
52.55729839
50.69805009
48.75086632
46.68642245
44.54262355
42.30657555
39.996556
37.7057668
35.39077771
33.13055687
30.88956179
28.66704716
26.48650459
24.38044101
22.34131682
20.38377769
18.50021931
16.70472481
14.99113159
13.41279977
11.9117917
10.544114
9.261090305
8.091937202
6.998241041
6.024901061
5.159221402
4.389605852
3.676011203
3.082935166
2.570798022
2.123737485
1.70154091
1.22100866
1.893992959
2.260133895
2.884306593
3.169622968
)


101
(
1.027164545e-07
0.0008842486072
0.01879489135
0.1066103658
0.3219463874
0.6903707077
1.20667128
1.857912807
2.609481411
3.430389194
4.297125098
5.193837075
6.116549853
7.070428734
8.07286381
9.144912329
10.3083385
11.58784757
13.00471981
14.56757491
16.29110568
18.16611302
20.16970177
22.28022579
24.46545639
26.68695701
28.90009012
31.06009264
33.12959121
35.08408354
36.91487255
38.63007071
40.24675976
41.80850786
43.36094036
44.94458516
46.57982602
48.31409506
50.2579072
52.40784066
54.77355253
57.30106982
59.92604541
62.56704133
65.16121611
67.66316381
69.99584829
72.16416373
74.17283964
75.88786204
77.29096754
78.34133051
79.03722896
79.32882885
79.3429818
79.00287457
78.32724398
77.25370964
75.95267443
74.37192845
72.50280661
70.49180157
68.24601247
65.87344904
63.3893147
60.82055151
58.17653655
55.45305317
52.67189122
49.85878034
47.06784576
44.28783213
41.54169958
38.85270729
36.21818435
33.64799947
31.14282813
28.72214779
26.4108463
24.17596603
22.02785643
19.98728863
18.06825764
16.25763687
14.5614839
12.96637502
11.50478928
10.11964143
8.859225321
7.716545315
6.68051902
5.725048469
4.89448259
4.167733604
3.51566473
2.880698412
2.166440963
2.965740629
3.394081489
4.069183466
4.424835584
)


101
(
9.13791712e-08
0.0008276975522
0.01786893775
0.1018311032
0.3083133248
0.66253976
1.160215804
1.788930212
2.517058769
3.315068671
4.160980241
5.039411637
5.946254995
6.885955938
7.874591042
8.932239597
10.0802739
11.3426506
12.74203055
14.28925164
16.00108319
17.87533902
19.89619069
22.0480295
24.30404592
26.63473021
29.00513634
31.37849471
33.72423258
36.02588078
38.28426613
40.52095725
42.77069983
45.08831706
47.53012165
50.14662507
52.95456247
55.97348722
59.26670244
62.75076831
66.40763391
70.1418634
73.87989804
77.4879836
80.89084467
84.02750166
86.78761446
89.16310366
91.14214262
92.66924171
93.75452539
94.40224813
94.60187202
94.33059423
93.61968154
92.56868616
91.21286999
89.46803569
87.4753241
85.2396077
82.74267025
80.09956634
77.30458854
74.39694601
71.39908411
68.34424952
65.29031217
62.19496362
59.08977473
55.97541207
52.89239629
49.84911457
46.86731916
43.95671081
41.11966122
38.35271995
35.6637645
33.07082711
30.58723762
28.19594959
25.89145102
23.69558101
21.61138295
19.6421313
17.77926542
16.00986668
14.3730075
12.82439387
11.38621024
10.07690026
8.859389797
7.735130408
6.732033137
5.840602764
5.034692576
4.209545042
3.27427732
4.133793098
4.604336802
5.260739299
5.629780488
)


101
(
8.066932273e-08
0.0007735204116
0.01697608205
0.09721552821
0.295146348
0.6356785429
1.115451017
1.72266242
2.428477584
3.20492508
4.031547725
4.893516968
5.78665133
6.714824269
7.692951363
8.740199415
9.877567175
11.12848495
12.51666446
14.05525304
15.76303029
17.64390037
19.68928526
21.89016008
24.22722897
26.6803514
29.22595323
31.84077822
34.50852729
37.22899273
40.01835562
42.91334121
45.96478074
49.24169746
52.78285991
56.61806033
60.73424808
65.0965737
69.68605505
74.33237135
78.98882495
83.52925575
87.87586161
91.89869327
95.52234334
98.67267902
101.2250326
103.1893844
104.6043174
105.4748556
105.8301834
105.7045412
105.1283846
104.0858133
102.5931448
100.8274936
98.74475016
96.37154743
93.75899507
90.98502044
88.01990559
84.93294732
81.74941165
78.49686793
75.20763274
71.89444451
68.60274211
65.33529057
62.0931784
58.87588603
55.70386183
52.58806026
49.54706739
46.58743123
43.71207941
40.9153383
38.20400537
35.59003245
33.07490447
30.66187415
28.34049169
26.11547568
23.99733344
21.9878428
20.0752282
18.24708804
16.53740994
14.92740986
13.4137244
12.01262556
10.70576106
9.487773444
8.3783284
7.38184261
6.479069554
5.531869196
4.450070867
5.27310436
5.762073795
6.416771438
6.8552001
)


101
(
7.057370876e-08
0.000721660785
0.01611553821
0.09275909666
0.2824297451
0.6097465115
1.072289101
1.658937179
2.343455553
3.099508883
3.908151658
4.755190694
5.636424902
6.555295893
7.525707154
8.565978217
9.696739166
10.94107
12.32358341
13.8598577
15.57066003
17.46550085
19.5431762
21.80145515
24.23077439
26.82320737
29.57090836
32.46966324
35.52395779
38.75397471
42.19021627
45.87770344
49.86934614
54.22787231
58.94478348
63.9968167
69.3123452
74.78444981
80.31266887
85.70028594
90.85530848
95.65535208
100.0259825
103.8747247
107.1498715
109.8016728
111.7383806
112.9728349
113.5669302
113.5911229
113.0934397
112.1321027
110.7628655
108.9954825
106.8553586
104.4631601
101.8222916
98.96777186
95.94071646
92.80711015
89.56241476
86.24203263
82.87293522
79.47352542
76.07136173
72.69088875
69.34597452
66.05323804
62.81740374
59.63016409
56.50348008
53.44304051
50.45912662
47.56082502
44.75159127
42.02742187
39.38670816
36.83680174
34.38247035
32.02400729
29.75636262
27.57792791
25.49694633
23.51531959
21.62571657
19.81239584
18.09605669
16.47936834
14.95510308
13.52348429
12.18304904
10.92866468
9.771756488
8.71691245
7.760531859
6.743378776
5.576784916
6.361383724
6.876878763
7.530557976
8.030067983
)


101
(
6.107876792e-08
0.0006720643663
0.01528653535
0.08845741719
0.2701485661
0.5847055702
1.030647804
1.597594761
2.261740938
2.998425502
3.790185321
4.623575091
5.494405534
6.405808946
7.370842133
8.407053516
9.534760643
10.77682342
12.15868075
13.69843142
15.41877127
17.33475307
19.45293987
21.77926405
24.31641209
27.07172532
30.05825677
33.29535652
36.8105916
40.63855847
44.81120601
49.36735558
54.34415421
59.76476159
65.54418111
71.59325518
77.77912097
83.94042576
89.92658817
95.55920582
100.7102609
105.2768737
109.2110793
112.4757261
115.0527471
116.9329426
118.0790968
118.5059747
118.2877838
117.5226633
116.2553459
114.5750993
112.567204
110.2446226
107.6354738
104.8169391
101.8331374
98.70092886
95.46358811
92.16044247
88.80906312
85.42369774
82.02705456
78.63402811
75.26562226
71.93762598
68.65970634
65.44702463
62.30274077
59.22716624
56.21986403
53.28336905
50.42153952
47.6415871
44.94794238
42.33905621
39.81181514
37.36853243
35.01174207
32.74303934
30.55977
28.45924125
26.44557486
24.5222793
22.68516938
20.91903708
19.23256461
17.63699089
16.13074617
14.70674288
13.36372306
12.10338153
10.93252968
9.85418014
8.87212871
7.820598199
6.61811695
7.381796655
7.933618808
8.596493139
9.135969086
)


101
(
5.217058207e-08
0.0006246780846
0.01448831817
0.08430624548
0.2582885577
0.5605199922
0.9904509558
1.538488388
2.183103468
2.901321414
3.677106006
4.497911519
5.359562276
6.264985867
7.226572734
8.261192766
9.388974194
10.63269939
12.01859278
13.56780971
15.30414371
17.24876025
19.41670076
21.82481619
24.49091362
27.43955552
30.7072325
34.33489114
38.36728071
42.84210841
47.77557135
53.17626304
59.04299203
65.34497267
71.91466511
78.60708683
85.24814054
91.65346916
97.658718
103.1041775
107.8724195
111.8985122
115.1574766
117.6536708
119.4126022
120.4710157
120.8418094
120.5432078
119.6513944
118.2598335
116.4236966
114.2396935
111.8007345
109.1274713
106.2519671
103.2232923
100.08255
96.8539544
93.56357272
90.24575142
86.91942369
83.59244079
80.27807461
76.99030051
73.74283141
70.54443933
67.40357405
64.32878826
61.32624971
58.39733975
55.53983726
52.75302408
50.03767953
47.39668225
44.83363009
42.3492761
39.94185903
37.61230579
35.36102868
33.18801777
31.09224519
29.07205436
27.13014165
25.26969626
23.4889526
21.77579755
20.13054179
18.56545
17.0834434
15.68014489
14.34875266
13.09601694
11.92345031
10.83930725
9.846275099
8.780908154
7.565209986
8.331522117
8.924160613
9.616265909
10.17872938
)


101
(
4.383480966e-08
0.0005794480759
0.01372014609
0.08030148293
0.2468361178
0.5371560698
0.9516279676
1.481483102
2.107333224
2.807879911
3.568444408
4.377519004
5.230981114
6.131623522
7.091358094
8.126477643
9.257030543
10.50593677
11.90019467
13.46433837
15.22317471
17.20511063
19.43516361
21.94269197
24.76333184
27.93904037
31.52610631
35.57704307
40.14075001
45.24503599
50.88121489
57.00782934
63.55756357
70.45630257
77.46852089
84.41924891
91.1205992
97.39446754
103.0907988
108.0718155
112.2607925
115.6108125
118.1298694
119.8634332
120.8711704
121.2111398
120.9318474
120.0744514
118.7011549
116.8900762
114.7088008
112.2413684
109.5724562
106.7382325
103.7701993
100.6992712
97.55529579
94.36466375
91.14359548
87.91850295
84.7059753
81.51541557
78.35273997
75.22702167
72.14657684
69.1171477
66.14441264
63.23388505
60.39038023
57.61708669
54.91262823
52.27499808
49.70396036
47.19874967
44.76064552
42.39100753
40.09001765
37.86097737
35.70315373
33.6157185
31.59585918
29.64268879
27.760771
25.95267943
24.21745581
22.54781594
20.93851455
19.39978171
17.93642434
16.55059545
15.23127153
13.98652685
12.81412052
11.72671534
10.7272455
9.654173525
8.43418653
9.229251173
9.863166854
10.61244788
11.2038708
)


101
(
3.605672734e-08
0.0005363214889
0.01298131918
0.07643916003
0.2357782848
0.5145821692
0.9141134299
1.426454739
2.034239493
2.717818469
3.463788605
4.261788736
5.10784752
6.004674024
6.963871614
8.001278303
9.136916548
10.3940403
11.80058651
13.38448223
15.17280621
17.20221202
19.5102409
22.13744574
25.13899645
28.57139682
32.49873095
36.97060149
42.0270598
47.67409028
53.86933592
60.51922333
67.48995843
74.67017871
81.79005657
88.67247581
95.13661378
101.0256942
106.2209151
110.6161556
114.158782
116.8403121
118.6949764
119.7821569
120.1845963
119.9800475
119.23963
118.0154555
116.3558558
114.3285961
111.9997488
109.4373381
106.7124688
103.8714684
100.9434556
97.95133759
94.91636561
91.85892617
88.78948603
85.72704831
82.68605143
79.6757915
76.70011885
73.76288323
70.8691957
68.02158815
65.22420361
62.48070751
59.79464581
57.16982907
54.60578667
52.10206205
49.658037
47.27196157
44.94238275
42.66862798
40.45275599
38.29963172
36.21318626
34.1912923
32.22848267
30.32291118
28.4809743
26.70677026
24.99966846
23.35519374
21.76693546
20.24206979
18.78435337
17.40391136
16.08775707
14.84133588
13.66353759
12.56642264
11.55590039
10.47331595
9.249459128
10.09652715
10.77623083
11.62655076
12.27439794
)


101
(
2.882120183e-08
0.0004952462115
0.01227113388
0.0727154238
0.2251026561
0.4927685635
0.8778466808
1.373288997
1.963644257
2.630880642
3.362775377
4.150183168
4.989435295
5.883210613
6.842962091
7.88422883
9.027025635
10.29518424
11.71785607
13.32546524
15.15104838
17.23944341
19.64314176
22.40936192
25.61053104
29.31243095
33.57343413
38.42543827
43.88963097
49.94210877
56.4994823
63.42761602
70.55257256
77.73107991
84.69017325
91.27294318
97.31734614
102.6903381
107.3047601
111.0940675
114.0362416
116.1502618
117.4757835
118.0843033
118.0683575
117.5136167
116.5012909
115.0885899
113.3208362
111.2502229
108.9324276
106.4229284
103.7794793
101.0483419
98.25915874
95.43095519
92.57875304
89.71665671
86.85072219
83.99298873
81.1551016
78.34647113
75.57078688
72.82953634
70.12485554
67.45675838
64.82851097
62.24194683
59.70062172
57.20763493
54.76456564
52.37252951
50.0315737
47.74123748
45.49878981
43.2999454
41.14500045
39.04249102
37.0003031
35.01888987
33.09181187
31.21337104
29.38834996
27.62608708
25.92658683
24.28674395
22.69903556
21.17108209
19.70155985
18.30898775
16.98173837
15.71784793
14.52247379
13.40389825
12.37158605
11.27218693
10.03513858
10.96329297
11.70656375
12.71890782
13.47858306
)


101
(
2.211278616e-08
0.0004561703545
0.01158881696
0.0691265509
0.2147974278
0.4716874002
0.8427718577
1.321881359
1.895376802
2.546813524
3.265086544
4.042245373
4.875126946
5.766403739
6.727503627
7.773843678
8.925549045
10.20737252
11.65023835
13.28717588
15.15884012
17.31847467
19.83260152
22.75212437
26.15862613
30.1208321
34.67888481
39.8343489
45.58504589
51.87439235
58.58054321
65.54820577
72.59506625
79.55343138
86.16697319
92.30934188
97.84710408
102.6723486
106.725486
109.9740645
112.4192965
114.0986872
115.0567589
115.3658775
115.1159966
114.3912973
113.2752107
111.8279938
110.0955802
108.1157906
105.9308904
103.5837831
101.1210007
98.58417967
96.00277056
93.39488619
90.77177589
88.14286173
85.51016467
82.87961857
80.2600542
77.65991473
75.0846069
72.53553782
70.01255844
67.51421025
65.04185762
62.59686079
60.18281486
57.80314949
55.46029419
53.15618115
50.89300277
48.67277022
46.49356935
44.34904955
42.23541883
40.16026615
38.13637141
36.16967203
34.25582161
32.38418872
30.55525263
28.78187948
27.06791711
25.4123794
23.80298674
22.25185502
20.75135341
19.32604951
17.97012732
16.67031837
15.44055502
14.28522081
13.21744677
12.09006982
10.82391399
11.8734187
12.71632848
13.97017518
14.85097935
)


101
(
1.591569229e-08
0.0004190426036
0.01093372186
0.06566892771
0.2048513256
0.4513124983
0.8088371782
1.272136871
1.829284447
2.465390799
3.170452038
3.937561473
4.764391998
5.653568441
6.616593221
7.668965328
8.831103705
10.12913684
11.59644726
13.26974539
15.19719315
17.44089434
20.07372451
23.15188509
26.75191824
30.93899824
35.72930815
41.08750385
46.98476854
53.33750474
59.99865341
66.80667302
73.59221407
80.18641881
86.35844452
92.00585596
97.02707961
101.340139
104.905584
107.7149803
109.789818
111.1785382
111.9256643
112.0984791
111.7770223
111.0367741
109.9572677
108.599119
107.0091799
105.2171194
103.2529092
101.1466983
98.93371516
96.64908409
94.32111332
91.96829967
89.60107577
87.22561172
84.84146168
82.44922812
80.05334294
77.66156637
75.28091012
72.91441345
70.56178367
68.22030888
65.88961299
63.57060121
61.26692557
58.98303333
56.72125675
54.48486867
52.2772134
50.10308398
47.9640631
45.85412473
43.76492524
41.69972074
39.67298466
37.69727963
35.77418026
33.89029733
32.03924012
30.23243449
28.48172635
26.78986005
25.13836997
23.542219
21.99083323
20.51119501
19.106418
17.7507697
16.46946083
15.25948859
14.14253664
12.97380603
11.65909003
12.88655847
13.8911726
15.49002068
16.65263154
)


101
(
1.021380029e-08
0.0003838143835
0.0103052598
0.06233905105
0.1952535647
0.4316192135
0.7759945813
1.223966607
1.765224164
2.386403342
3.078582142
3.835795463
4.656725944
5.544047762
6.509372974
7.568530615
8.742491185
10.05918815
11.55520691
13.2719472
15.26428297
17.60183072
20.35689646
23.58648655
27.35114386
31.70505062
36.6431904
42.09709159
48.00660768
54.26840535
60.72967778
67.23517911
73.63569252
79.78452164
85.48263946
90.63953383
95.18328875
99.05703986
102.2348745
104.7236344
106.5568657
107.787812
108.4589482
108.6302393
108.3685046
107.7365088
106.8047686
105.6304499
104.260464
102.7225474
101.0382116
99.22601429
97.3095382
95.31574738
93.27025013
91.19262294
89.09470865
86.98143806
84.85141683
82.70127476
80.53043691
78.34481972
76.1518853
73.95698726
71.76331363
69.56626226
67.3649065
65.15901347
62.95175757
60.74968668
58.55514331
56.37109308
54.20157124
52.05434173
49.93525336
47.84137376
45.76196762
43.69372155
41.64830854
39.6438646
37.69259728
35.77749099
33.88761973
32.02832717
30.2178218
28.46897417
26.75727378
25.09471291
23.47220716
21.91633811
20.44201095
19.0123877
17.66221487
16.38035966
15.20080433
13.97851321
12.59699135
14.08227234
15.34575029
17.43331757
19.06953805
)


101
(
4.990656781e-09
0.0003505025633
0.009702747739
0.05913353141
0.1859938568
0.4125844341
0.7442001432
1.177290426
1.70306688
2.309663523
2.989218241
3.736673559
4.551694463
5.437226568
6.405072986
7.471646018
8.658741266
9.996393389
11.52517447
13.29174323
15.35669453
17.79340339
20.66826757
24.03031777
27.91730867
32.36709869
37.35963411
42.80226824
48.60430495
54.65562504
60.81372816
66.93688495
72.89410121
78.56443107
83.79198467
88.49770352
92.63172151
96.15592964
99.0519239
101.3345492
103.0420557
104.2277918
104.9310202
105.2037044
105.1003228
104.6697296
103.9694121
103.0493267
101.9549417
100.7147327
99.34675629
97.86144841
96.27155341
94.59408792
92.8498101
91.05860547
89.23526863
87.38542676
85.50904321
83.60061909
81.65493476
79.67393958
77.66454479
75.6328646
73.58858327
71.52624328
69.44511468
67.34388161
65.22438388
63.09497069
60.95801373
58.81705242
56.67603742
54.54324345
52.42828302
50.33397839
48.24882385
46.16617893
44.09385699
42.04526011
40.04784386
38.08340838
36.13915394
34.21204527
32.32200015
30.49623034
28.70710649
26.96014255
25.24823699
23.59641007
22.03343655
20.51314913
19.08090667
17.71079705
16.45989571
15.17523321
13.71739455
15.56863883
17.23017859
20.00598454
22.32864526
)


101
(
2.276814101e-10
0.0003189827475
0.009125368008
0.05604906571
0.1770623387
0.3941863395
0.7134121829
1.132034305
1.642698063
2.235003653
2.902125492
3.639916162
4.448921121
5.332595562
6.303047233
7.377551104
8.579092049
9.939883153
11.50502531
13.32645604
15.46874828
18.00316437
20.98574474
24.45217765
28.41529467
32.89180339
37.84804998
43.17964138
48.77786989
54.53567146
60.33120136
66.04169861
71.551015
76.75188594
81.5391664
85.85042942
89.65123638
92.91571557
95.62832128
97.80529584
99.48412493
100.7142417
101.5308533
101.9790624
102.102812
101.9381536
101.5285074
100.9135868
100.1341078
99.21930597
98.18765777
97.04641375
95.80003909
94.45501196
93.02486825
91.52776699
89.98072361
88.39239116
86.76590864
85.09691845
83.37588151
81.60055753
79.77484688
77.90382256
76.00215188
74.06891909
72.10233723
70.10186223
68.06776914
66.00651918
63.92243835
61.81952387
59.70319101
57.58012945
55.46019681
53.35219498
51.24774914
49.14279566
47.03474204
44.93304105
42.87203906
40.84572302
38.83349385
36.82830213
34.84073115
32.92154364
31.04186301
29.19754135
27.38375367
25.62224304
23.95705577
22.33239886
20.80567011
19.3384597
18.01439197
16.66260126
15.12735171
17.50015427
19.75875647
23.47818318
26.75283823
)


101
(
-4.090027773e-09
0.0002891406403
0.008572585042
0.05308245163
0.1684495883
0.3764044575
0.6835923389
1.088130217
1.584014808
2.162276804
2.817094719
3.545231004
4.348052903
5.229692482
6.202712139
7.28553319
8.502783438
9.889133791
11.49378764
13.37270327
15.59178342
18.21475824
21.28344696
24.82010268
28.814247
33.25767526
38.10016304
43.23709258
48.56250197
53.97891426
59.38445116
64.67761799
69.76139547
74.53830774
78.94228175
82.92748337
86.47117143
89.5567402
92.17033614
94.32396716
96.05038721
97.39273142
98.38135472
99.05504476
99.44955298
99.5910996
99.51018754
99.23478044
98.79727477
98.22538917
97.53959208
96.74824909
95.8518349
94.8479919
93.74139917
92.54555811
91.27703651
89.94876989
88.56870736
87.13644854
85.63879201
84.07139895
82.43386463
80.72737025
78.96746501
77.1626006
75.30981858
73.40992805
71.46242744
69.47096845
67.43938394
65.37545771
63.28655575