/*--------------------------------*- C++ -*----------------------------------*\
| =========                 |                                                 |
| \\      /  F ield         | OpenFOAM: The Open Source CFD Toolbox           |
|  \\    /   O peration     | Version:  2.3.1                                 |
|   \\  /    A nd           | Web:      www.OpenFOAM.org                      |
|    \\/     M anipulation  |                                                 |
\*---------------------------------------------------------------------------*/
FoamFile
{
    version     2.0;
    format      ascii;
    class       dictionary;
    location    "constant";
    object      O2;
}
// * * * * * * * * * * * * * * * * * * * * * * * * * * * * * * * * * * * * * //

O2_table
101
(

101
(
0.0006995975997
0.002386307628
0.004054246964
0.005724687861
0.007411211641
0.009120868627
0.01085646926
0.01262153994
0.01441569732
0.01623886323
0.01809031967
0.01996940671
0.02187455697
0.02380606058
0.02576209841
0.02774147976
0.02974356184
0.03176800889
0.03381165389
0.03587697151
0.03796038163
0.04006112715
0.04218045931
0.04431651559
0.04646821538
0.04863494511
0.05081600857
0.05301063937
0.05521855879
0.05743899114
0.05967150562
0.06191533203
0.06416894554
0.06643555611
0.06871185907
0.07099799402
0.07329321272
0.07559683555
0.07791010459
0.08023281577
0.08256427999
0.08490280945
0.08724946279
0.08960359558
0.09196431141
0.09433219566
0.09670642072
0.09908733626
0.1014742849
0.1038674546
0.1062662026
0.1086705227
0.1110801911
0.1134949576
0.1159145754
0.1183388372
0.1207681722
0.1232014346
0.1256392622
0.1280809987
0.1305268104
0.1329763137
0.135429378
0.1378859435
0.1403458036
0.1428088692
0.1452749454
0.1477438748
0.1502156529
0.1526899992
0.1551668634
0.1576461075
0.1601277243
0.1626113341
0.1650965697
0.1675837925
0.1700732656
0.1725644215
0.1750570679
0.1775511043
0.1800463829
0.1825429439
0.185040489
0.1875388098
0.1900384454
0.1925390232
0.195040279
0.1975421372
0.200044477
0.2025469738
0.2050503599
0.207554036
0.2100577391
0.2125617495
0.2150657495
0.2175701278
0.220073179
0.220073179
0.220073179
0.220073179
0.220073179
)


101
(
0.0006990132123
0.002369714984
0.004022183982
0.00567599793
0.007344142486
0.009033524611
0.01074711406
0.01248798054
0.01425627615
0.01605181841
0.01787404633
0.01972228014
0.02159534092
0.02349274443
0.02541366139
0.02735672865
0.02932100883
0.03130596042
0.03331064798
0.03533332306
0.03737524692
0.03943389332
0.04150824839
0.04359947086
0.0457062192
0.04782740422
0.04996243831
0.05211080312
0.05427165659
0.05644498777
0.05863009838
0.06082675738
0.06303493535
0.06525007902
0.06747853604
0.06971668542
0.07196427412
0.07422128999
0.07648658452
0.07875964703
0.08104181442
0.08333410475
0.08563263078
0.08793901349
0.09025364217
0.0925742514
0.09490236396
0.09723632195
0.09957725183
0.1019239267
0.1042772239
0.1066361755
0.1090007921
0.1113710114
0.1137467213
0.11612757
0.1185123544
0.1209035175
0.1232982731
0.1256981837
0.1281020906
0.130510487
0.1329230721
0.1353394892
0.137759818
0.1401838122
0.1426115705
0.145042847
0.1474772801
0.1499152697
0.152356327
0.1548004296
0.1572472332
0.1596971805
0.1621498945
0.1646055233
0.1670635428
0.1695243099
0.1719878421
0.1744538577
0.1769222294
0.179392581
0.1818653358
0.1843400367
0.1868170974
0.189296438
0.191777999
0.1942614706
0.1967469046
0.1992337936
0.2017229649
0.2042137381
0.2067060736
0.2091998503
0.2116949084
0.2141874965
0.2166745171
0.2166433664
0.2166122999
0.2165819308
0.2165515625
)


101
(
0.000698428825
0.002353116838
0.003990111663
0.005627330769
0.007277167591
0.008946384051
0.0106381034
0.01235496953
0.01409761776
0.0158657999
0.01765909146
0.01947680898
0.02131811354
0.02318189567
0.02506807881
0.02697527322
0.02890228789
0.03084837229
0.03281431357
0.03479545903
0.03679605223
0.03881306553
0.04084357913
0.04289042894
0.04495265763
0.04702887462
0.04911846058
0.05122106865
0.05333554793
0.05546225289
0.05760049682
0.0597503579
0.0619128543
0.06407920636
0.06625936449
0.06844978132
0.07064994295
0.07286024614
0.07507843606
0.07730319041
0.07953664643
0.08178175367
0.08403306026
0.08629208073
0.08856018745
0.0908342347
0.09311614054
0.09540380791
0.09769872716
0.09999943455
0.1023071756
0.1046209244
0.1069406112
0.1092662702
0.1115979203
0.1139352227
0.1162762737
0.1186244614
0.120976567
0.1233342998
0.1256964084
0.1280634696
0.1304352952
0.1328114351
0.1351919714
0.1375766869
0.1399657539
0.1423589833
0.1447558875
0.1471570148
0.1495618762
0.1519704721
0.1543823463
0.1567980789
0.1592174818
0.1616407172
0.1640670643
0.1664968912
0.1689305627
0.1713678118
0.1738085331
0.1762522452
0.1786994539
0.1811498315
0.183603751
0.1860610562
0.1885221056
0.1909865111
0.1934543729
0.1959248968
0.1983994133
0.2008764678
0.2033567186
0.2058397571
0.20832505
0.2108052892
0.2132752125
0.2132128242
0.2131505993
0.2130897315
0.2130288637
)


101
(
0.0006978444376
0.00233651306
0.003958029571
0.005578685369
0.007210285312
0.008859444561
0.01052943408
0.0122225013
0.01393971684
0.01568079971
0.0174454455
0.01923298013
0.02104286284
0.0228734851
0.02472533464
0.02659709069
0.02848736071
0.03039519013
0.03232267694
0.03426322652
0.03622283757
0.03819863244
0.04018626577
0.04218935918
0.04420753386
0.0462393234
0.04828403664
0.05034142212
0.05241016748
0.05449078417
0.05658268387
0.058686164
0.06080296777
0.06292214592
0.06505453604
0.06719745716
0.06935041149
0.0715140233
0.07368557868
0.07586303165
0.07804860088
0.08024636062
0.08245074085
0.08466285101
0.08688442469
0.08911220016
0.09134806473
0.09358980773
0.09583895113
0.09809402217
0.100356363
0.1026250336
0.1048999325
0.1071811096
0.1094686649
0.1117623241
0.1140599347
0.1163650145
0.1186744474
0.1209899092
0.1233101631
0.1256357873
0.1279666609
0.1303023472
0.1326428907
0.1349881113
0.1373382067
0.1396930499
0.142052139
0.1444160456
0.1467843031
0.1491569765
0.1515335952
0.1539147246
0.1563002761
0.1586904801
0.1610846481
0.1634830269
0.1658861816
0.1682939468
0.1707063035
0.1731227538
0.1755437606
0.1779691017
0.1803992211
0.182833837
0.1852735364
0.187718057
0.1901676559
0.1926211036
0.1950802678
0.197542994
0.2000102982
0.2024818792
0.2049567017
0.2074236756
0.2098754224
0.2097817673
0.2096883568
0.209596982
0.209505604
)


101
(
0.0006972600503
0.002319903517
0.003925937266
0.005530060708
0.007143493983
0.008772703732
0.01042110289
0.01209057024
0.01378256793
0.01549680991
0.01723309891
0.01899078067
0.02076957657
0.02256748538
0.02438541069
0.02622215904
0.02807619125
0.02994636181
0.03183574854
0.03373650844
0.03565560307
0.03759059113
0.03953616678
0.04149619288
0.04347083431
0.04545872479
0.04745912901
0.04947183947
0.05149546274
0.05353056089
0.05557664852
0.05763419597
0.05970545294
0.06177848592
0.06386393034
0.06595977621
0.06806583474
0.07018288672
0.07230810446
0.07443896133
0.07657745032
0.07872814749
0.0808858253
0.08305138787
0.08522662037
0.08740833696
0.08959836284
0.09179445877
0.0939980945
0.09620781492
0.0984249789
0.1006487339
0.1028789961
0.1051158153
0.1073593283
0.1096093212
0.1118635954
0.1141255952
0.11639233
0.118665461
0.1209437887
0.1232278871
0.1255176714
0.1278127433
0.130113116
0.1324186422
0.1347295249
0.1370456879
0.1393666592
0.1416930211
0.144024308
0.1463606562
0.1487016236
0.1510477425
0.1533989723
0.1557556051
0.1581170606
0.1604834649
0.1628555083
0.1652330926
0.1676163583
0.1700048626
0.1723989986
0.1747986072
0.1772042048
0.1796154421
0.1820330825
0.1844568252
0.186887327
0.1893229551
0.191766012
0.1942136654
0.1966672375
0.199126542
0.2015901013
0.2040427745
0.2064751398
0.2063502302
0.2062256499
0.2061038128
0.2059819773
)


101
(
0.0006966756628
0.002303288072
0.003893834292
0.00548145574
0.007076791897
0.008686159111
0.01031310657
0.01195917077
0.01362616538
0.01531382256
0.01702204205
0.01875019778
0.02049824206
0.0222638706
0.02404828683
0.02585045605
0.027668745
0.02950183676
0.03135352576
0.03321521222
0.03509432364
0.03698893692
0.03889317435
0.04081084372
0.04274252491
0.04468705216
0.046643702
0.0486122903
0.0505913868
0.05258155152
0.05458237602
0.05659446752
0.05862043368
0.06064802811
0.06268735887
0.06473674247
0.06679630868
0.06886704047
0.07094617283
0.07303093555
0.07512302986
0.07722714554
0.07933843626
0.08145778315
0.08358694589
0.0857228376
0.08786724279
0.09001793705
0.09217632612
0.0943409673
0.09651319829
0.09869223163
0.1008780204
0.103070626
0.1052701998
0.1074765711
0.1096875726
0.111906547
0.114130597
0.1163613671
0.1185977081
0.1208401969
0.1230887759
0.1253430899
0.1276031315
0.1298687829
0.1321402399
0.1344174625
0.1367000224
0.138988524
0.1412824957
0.1435821391
0.1458870524
0.1481977398
0.1505141881
0.1528367414
0.1551649571
0.1574988575
0.1598392267
0.1621859841
0.1645394246
0.1668992511
0.1692658135
0.1716389885
0.1740193384
0.176406447
0.1788012873
0.1812034701
0.1836139422
0.1860309137
0.1884570715
0.1908888337
0.1933278704
0.1957739638
0.1982253866
0.2006626824
0.2030744685
0.2029183467
0.2027626273
0.2026102698
0.2024579047
)


101
(
0.0006960912756
0.002286666595
0.003861720209
0.005432869438
0.007010177377
0.008599808282
0.01020544188
0.01182829738
0.01347050354
0.0151318299
0.01681226543
0.01851121891
0.02022884664
0.02196261643
0.02371394206
0.02548195983
0.02726498943
0.02906156698
0.03087599642
0.03269926367
0.03453896056
0.03639365942
0.03825720715
0.04013322262
0.04202255563
0.04392427409
0.04583772169
0.04776274143
0.04969789571
0.05164371859
0.05359984769
0.0555669878
0.05754799717
0.05953069293
0.06152464779
0.0635282541
0.0655418532
0.06756662132
0.06959995189
0.07163901338
0.07368527161
0.07574333087
0.07780863543
0.07988212186
0.08196552843
0.08405586494
0.08615488985
0.08826042381
0.09037382019
0.09249364689
0.09462119709
0.09675572415
0.09889721899
0.1010457646
0.1032015252
0.1053643595
0.1075321624
0.1097081761
0.1118895819
0.1140779939
0.116272312
0.1184731218
0.1206803916
0.1228938146
0.1251133728
0.1273389836
0.1295708245
0.1318088759
0.1340527502
0.1363030835
0.1385594054
0.1408219795
0.1430904467
0.1453652837
0.1476464972
0.1499344733
0.1522289204
0.1545297772
0.156837918
0.159153248
0.1614761708
0.1638065576
0.1661447925
0.1684907978
0.170845161
0.1732073834
0.1755786391
0.177958458
0.1803480017
0.182745389
0.1851537721
0.1875687947
0.1899924194
0.1924243365
0.1948626877
0.1972835179
0.1996734713
0.1994861049
0.1992992229
0.1991164001
0.1989335775
)


101
(
0.0006955068881
0.00227003893
0.003829594525
0.005384300693
0.006943648627
0.008513648682
0.01009810543
0.01169794441
0.01331557639
0.01495082392
0.01660375925
0.0182738313
0.01996137706
0.02166369929
0.02338235396
0.02511664766
0.02686489279
0.02862550595
0.03040313953
0.03218859953
0.03398946668
0.03580473941
0.03762819992
0.03946324222
0.04131086253
0.04317034907
0.04504115188
0.04692315703
0.04881494446
0.05071701694
0.05262903252
0.0545517557
0.05648820926
0.05842646773
0.06037567614
0.06233418483
0.06430241915
0.06628168722
0.06826956939
0.07026329332
0.07226418266
0.07427668761
0.07629644966
0.07832446457
0.08036246385
0.08240755056
0.08446146162
0.08652208282
0.08859073613
0.09066600875
0.09274913891
0.0948393943
0.09693679113
0.09904144084
0.1011535238
0.1032729232
0.1053976074
0.1075307365
0.1096695565
0.1118156403
0.1139679283
0.1161270116
0.1182928845
0.1204652918
0.122644217
0.1248296248
0.1270216739
0.1292203497
0.1314252902
0.1336371629
0.1358555095
0.1380806581
0.1403122956
0.142550873
0.1447964093
0.1470493225
0.1493094753
0.1515767411
0.1538520913
0.1561354049
0.1584271633
0.1607273735
0.1630364953
0.1653545461
0.1676821438
0.1700186931
0.172365574
0.1747222008
0.1770899495
0.1794667602
0.1818564403
0.1842537987
0.1866610952
0.1890778389
0.191502108
0.1939053957
0.1962721401
0.1960535475
0.1958355293
0.1956223288
0.195409144
)


101
(
0.0006949225008
0.002253404945
0.003797456789
0.005335748455
0.006877203926
0.008427677844
0.009991093948
0.0115681064
0.01316137801
0.01477079686
0.01639651397
0.01803802262
0.01969582026
0.02136709699
0.02305349991
0.0247544968
0.02646842486
0.02819360965
0.02993492896
0.0316831646
0.03344579167
0.03522215151
0.03700609955
0.03880082313
0.04060737591
0.04242522809
0.04425395399
0.04609350139
0.04794249096
0.04980140043
0.05166989254
0.05354875736
0.0554411121
0.05733537583
0.05924038158
0.06115442298
0.06307791913
0.06501223135
0.06695510353
0.06890387703
0.07085981927
0.07282723252
0.07480189887
0.07678485203
0.07877782026
0.08077799652
0.08278709186
0.08480306526
0.08682722393
0.08885819096
0.09089715892
0.09294339413
0.09499691295
0.09705784665
0.09912639907
0.1012024778
0.1032841294
0.1053744458
0.1074707432
0.1095745466
0.1116848242
0.113802162
0.1159265757
0.1180578589
0.1201960064
0.1223410455
0.1244931302
0.1266522443
0.1288180323
0.1309911759
0.1331712329
0.135358608
0.1375530413
0.1397549603
0.141964392
0.1441817746
0.1464071174
0.1486402438
0.1508822329
0.1531329367
0.1553928944
0.1576622269
0.1599414617
0.162230754
0.1645307733
0.1668408259
0.1691625108
0.1714950871
0.1738401626
0.1761954135
0.1785653956
0.1809441151
0.1833340925
0.1857346536
0.1881437439
0.1905282638
0.192870568
0.1926207955
0.1923717211
0.1921284
0.1918851602
)


101
(
0.0006943381132
0.002236764473
0.00376530648
0.005287211561
0.006810841399
0.008341893108
0.009884403915
0.01143877763
0.01300790209
0.01459174058
0.01619051962
0.01780378013
0.01943216249
0.02107278769
0.02272735632
0.02439548341
0.0260755555
0.02776583514
0.02947133303
0.03118290791
0.03290788254
0.03464586181
0.03639085787
0.03814589207
0.03991202106
0.04168885179
0.04347608182
0.04527373409
0.04708049111
0.04889681912
0.05072238041
0.05255796501
0.05440672523
0.05625744811
0.05811874541
0.05998888924
0.06186825731
0.06375819813
0.065656568
0.06756082963
0.06947224562
0.07139500272
0.07332500994
0.07526331595
0.07721164186
0.07916726869
0.08113187456
0.08310348908
0.08508341413
0.08707032126
0.08906537118
0.09106783457
0.09307771592
0.09509514159
0.0971203302
0.09915321886
0.1011919329
0.103239509
0.1052933451
0.1073549212
0.1094232248
0.1114988274
0.1135817535
0.1156718349
0.1177690764
0.1198735821
0.121985524
0.1241048934
0.1262313332
0.1283655157
0.1305069977
0.1326562652
0.1348131247
0.1369779933
0.1391509059
0.1413323103
0.143522345
0.1457207876
0.1479288452
0.1501463484
0.1523738743
0.1546116397
0.156860235
0.1591199685
0.1613915807
0.1636742774
0.1659699038
0.1682775609
0.1705990415
0.1729317652
0.1752809952
0.1776400516
0.1800116655
0.182394992
0.1847877512
0.1871522766
0.1894687997
0.1891880304
0.1889081396
0.1886352105
0.1883625934
)


101
(
0.0006937537259
0.002220117383
0.00373314315
0.005238688956
0.006744559314
0.008256291999
0.009778032061
0.01130995275
0.01285514255
0.01441364735
0.01598576671
0.01757109177
0.01917039056
0.02078075096
0.02240390019
0.02403958405
0.02568625619
0.02734214233
0.029012318
0.03068778226
0.0323756872
0.03407583296
0.03578243137
0.03749838418
0.03922472492
0.04096115625
0.04270748494
0.04446381388
0.04622890344
0.04800322549
0.04978644623
0.05157933969
0.05338504807
0.05519271311
0.05701077936
0.05883754573
0.06067335504
0.06251951093
0.06437393302
0.06623417642
0.06810151365
0.0699800449
0.07186581792
0.07375988796
0.07566396609
0.07757541954
0.07949588551
0.08142345263
0.08335942127
0.08530252279
0.08725389755
0.08921282902
0.0911793119
0.09315345939
0.09513548164
0.0971253363
0.09912122889
0.1011261478
0.1031375858
0.1051569884
0.1071833636
0.1092172602
0.1112587023
0.1133075439
0.1153637874
0.1174276116
0.1194992308
0.1215786683
0.1236655716
0.1257605875
0.127863246
0.1299741005
0.1320930342
0.1342204685
0.1363564563
0.1385014488
0.1406557039
0.1428189394
0.1449924929
0.1471762044
0.1493706849
0.1515762081
0.1537934234
0.1560228034
0.1582651923
0.1605196621
0.1627883256
0.1650701799
0.1673671284
0.1696763403
0.1720037227
0.1743420604
0.1766942207
0.1790592097
0.181434446
0.1837777238
0.1860670759
0.1857556989
0.1854454501
0.1851436441
0.1848421005
)


101
(
0.0006931693386
0.002203463508
0.003700966269
0.005190179458
0.006678355757
0.008170871813
0.009671974833
0.01118162609
0.01270309288
0.01423650897
0.01578224522
0.01733994496
0.01891049053
0.0204909663
0.02208310768
0.02368677406
0.02530049791
0.02692249161
0.02855784719
0.03019774077
0.0318491521
0.03351202144
0.03518077586
0.03685823929
0.03854541547
0.04024207164
0.04194810453
0.04366369273
0.04538768347
0.04712057048
0.04886203529
0.05061283086
0.05237605562
0.05414117986
0.05591649974
0.05770038096
0.05949315932
0.06129609354
0.06310713517
0.06492389433
0.06674764169
0.06858239815
0.07042436015
0.07227460235
0.07413482463
0.07600248247
0.07787917429
0.07976303512
0.08165534779
0.08355491159
0.08546285764
0.08737849679
0.08930181887
0.09123292188
0.09317199912
0.09511900871
0.09707222704
0.09903459247
0.1010037052
0.1029809912
0.1049654857
0.1069577168
0.1089577002
0.1109653
0.1129804987
0.1150035347
0.1170346646
0.119073977
0.121121148
0.1231768027
0.1252404236
0.127312601
0.1293932836
0.1314829117
0.1335815742
0.1356897333
0.13780776
0.1399352987
0.1420737957
0.1442231222
0.1463839554
0.1485565886
0.1507416982
0.1529399361
0.1551522841
0.1573776858
0.1596184637
0.1618736014
0.1641451025
0.1664297929
0.1687342536
0.1710507664
0.1733823502
0.1757278482
0.1780843421
0.1804050755
0.1826658598
0.1823244722
0.1819845471
0.1816548407
0.1813256563
)


101
(
0.0006925849512
0.002186802684
0.00366877532
0.005141681897
0.006612228831
0.008085629872
0.009566228718
0.01105379209
0.01255174656
0.0140603173
0.01557994522
0.01711032727
0.01865244856
0.02020341395
0.02176495516
0.02333702857
0.02491825204
0.02650684522
0.02810788238
0.0297127379
0.03132822442
0.03295438009
0.03458584667
0.03622540172
0.03787402505
0.0395315279
0.04119787758
0.04287331841
0.04455678563
0.04624880691
0.04794909315
0.04965838173
0.05137970793
0.05310283817
0.0548359188
0.05657740176
0.05832764568
0.06008788465
0.06185610093
0.06362993239
0.0654106153
0.06720207902
0.06900066879
0.07080749473
0.07262425618
0.07444849934
0.07628178653
0.07812229625
0.0799712852
0.08182760576
0.08369238527
0.08556497307
0.08744536978
0.08933366439
0.09123002646
0.09313440467
0.09504512865
0.09696507709
0.09889195835
0.1008271922
0.1027698577
0.1047204663
0.106679027
0.1086454072
0.1106195528
0.112601743
0.1145922589
0.1165912644
0.1185984985
0.1206145907
0.1226389729
0.1246722463
0.1267143932
0.1287658699
0.1308268178
0.1328977313
0.1349790914
0.1370704665
0.1391733964
0.1412877653
0.1434143471
0.145553474
0.1477057913
0.1498721066
0.1520535927
0.1542491184
0.1564611142
0.1586885879
0.1609337189
0.1631929069
0.1654733667
0.1677669447
0.1700768223
0.1724016468
0.1747381655
0.1770350187
0.1792658768
0.1788953206
0.1785265998
0.1781699294
0.1778137958
)


101
(
0.0006920005639
0.002170134745
0.003636569773
0.005093195084
0.006546176604
0.008000563452
0.009460790159
0.01092644519
0.01240109695
0.0138850641
0.01537885668
0.01688222631
0.01839625063
0.01991807458
0.02144941916
0.02299032229
0.02453949005
0.0260951664
0.02766238485
0.02923272806
0.03081285127
0.03240285945
0.03399759762
0.03559981848
0.03721048945
0.03882945525
0.04045673707
0.04209263264
0.0437361602
0.04538788718
0.04704756703
0.0487159323
0.0503959489
0.05207765508
0.05376903166
0.05546861654
0.0571768104
0.0588948501
0.0606207687
0.06235222271
0.06409038955
0.06583908127
0.06759477094
0.06935860562
0.07113230446
0.07291351499
0.0747037715
0.07650129785
0.07830731119
0.08012070805
0.08194260898
0.08377240442
0.08561011413
0.08745583326
0.08930971466
0.09117168646
0.09304012059
0.0949178231
0.09680259634
0.09869586161
0.1005967571
0.1025057867
0.10442296
0.106348151
0.1082812645
0.1102225933
0.1121724206
0.1141309742
0.1160980737
0.118074393
0.1200593313
0.1220534934
0.1240568625
0.126069884
0.12809275
0.1301260061
0.1321702686
0.1342250324
0.1362919103
0.1383707817
0.1404625197
0.1425675371
0.1446864206
0.1468200748
0.148969879
0.151134721
0.1533170949
0.15551597
0.157733774
0.1599665312
0.1622219381
0.1644914644
0.166778498
0.1690814664
0.1713967861
0.1736684646
0.1758680571
0.1754692526
0.1750726609
0.1746897815
0.17430762
)


101
(
0.000691416176
0.002153459508
0.003604349064
0.005044717769
0.006480197059
0.007915669726
0.009355655474
0.01079957972
0.01225113721
0.01371074093
0.01517896937
0.01665562944
0.01814188244
0.01963492899
0.021136476
0.02264662933
0.02416418307
0.02568741898
0.02722131516
0.02875766581
0.03030297948
0.03185740646
0.03341597921
0.03498143677
0.03655474647
0.03813578371
0.03972461214
0.0413215712
0.04292575246
0.04453776202
0.04615740488
0.04778542326
0.04942471812
0.05106558106
0.0527158131
0.05437402404
0.05604065958
0.05771697909
0.05940109371
0.06109070012
0.06278690422
0.06449337015
0.06620666865
0.06792796618
0.06965901496
0.07139758329
0.07314518422
0.0749000948
0.07666349828
0.07843431379
0.08021364381
0.08200092564
0.08379620341
0.08559958312
0.08741121782
0.08923101567
0.09105737969
0.09289302985
0.09473584958
0.09658725593
0.09844645475
0.1003139569
0.1021897776
0.1040738077
0.105965914
0.1078663922
0.1097755047
0.1116935102
0.1136203113
0.1155566472
0.1175019248
0.1194567652
0.1214211412
0.1233954513
0.1253799097
0.1273751144
0.129381846
0.1313995485
0.1334299137
0.1354727832
0.1375291013
0.1395993984
0.1416842379
0.1437845517
0.1459018725
0.1480352056
0.1501871616
0.1523565446
0.1545460619
0.1567514652
0.1589807986
0.161225188
0.1634882415
0.1657681711
0.1680610902
0.1703063334
0.1724733273
0.1720470707
0.1716233546
0.171214705
0.1708072361
)


101
(
0.0006908317882
0.002136776807
0.003572112663
0.004996248751
0.006414288241
0.007830945944
0.009250821086
0.01067319019
0.01210186061
0.01353733947
0.01498027318
0.01643052432
0.01788932994
0.01935395867
0.02082610258
0.02230592403
0.02379230257
0.02528356834
0.02678463449
0.02828750699
0.02979855726
0.03131796754
0.03284094045
0.03437020468
0.03590673708
0.03745044606
0.03900143166
0.04056006594
0.04212550278
0.04369838007
0.04527855687
0.04686679742
0.04846595067
0.05006655552
0.05167621945
0.05329360667
0.05491919632
0.05655427741
0.05819706214
0.05984531992
0.06150009519
0.06316489474
0.06483634513
0.06651560039
0.06820443444
0.06990075731
0.07160608649
0.07331875442
0.07503991302
0.07676850629
0.07850560158
0.080250667
0.08200378152
0.08376507015
0.08553469072
0.08731255007
0.08909707389
0.09089088526
0.09269193221
0.09450161497
0.09631920692
0.09814524459
0.09997975478
0.1018226514
0.1036737692
0.1055334128
0.1074018083
0.1092792203
0.1111656059
0.1130617711
0.1149671659
0.1168824609
0.1188076262
0.1207429999
0.1226887776
0.1246455748
0.1266143433
0.1285945231
0.1305879198
0.1325943053
0.134614662
0.1366496304
0.1386998006
0.1407661368
0.1428502347
0.144951216
0.147071945
0.1492109936
0.1513712652
0.15354837
0.1557506375
0.157968807
0.160206796
0.1624625076
0.164731841
0.1669494207
0.1690825156
0.1686294049
0.168179031
0.1677445544
0.1673105812
)


101
(
0.0006902474013
0.002120086487
0.00353986005
0.00494778684
0.006348448201
0.00774638937
0.009146283444
0.01054727119
0.01195326045
0.01336485148
0.01478275808
0.01620689873
0.01763857911
0.0190751455
0.02051827619
0.02196818073
0.02342382011
0.02488358055
0.02635230486
0.02782220815
0.02929953351
0.03078448788
0.03227242767
0.03376606934
0.03526640411
0.03677337726
0.0382871244
0.03980804478
0.04133534537
0.04286968527
0.04441097325
0.04596000308
0.04751958598
0.04908051274
0.05065019351
0.0522273288
0.05381241225
0.05540675318
0.05700867762
0.05861605966
0.0602299144
0.06185359485
0.06348375766
0.06512150346
0.06676859953
0.06842309731
0.07008654228
0.07175734269
0.07343662735
0.07512336226
0.07681857325
0.07852174696
0.080232985
0.08195244122
0.08368028844
0.08541643772
0.08715935596
0.08891155781
0.09067103525
0.09243915671
0.09421525814
0.09599990731
0.09779315772
0.09959495068
0.1014050926
0.1032239135
0.1050515975
0.106888395
0.108734288
0.1105901352
0.1124554403
0.1143309517
0.1162166707
0.1181128803
0.1200197383
0.121937828
0.1238682295
0.1258104222
0.12776636
0.1297357878
0.1317196792
0.1337187244
0.1357335779
0.1377652948
0.1398154586
0.1418832623
0.1439719184
0.1460798067
0.1482098892
0.150357713
0.1525319521
0.1547227924
0.1569346485
0.159164978
0.161409522
0.1635981823
0.1656961948
0.1652164221
0.1647394325
0.1642787392
0.1638185034
)


101
(
0.0006896630135
0.002103388308
0.003507590527
0.004899330603
0.006282674657
0.007661996837
0.009042038473
0.01042181672
0.01180532928
0.01319326781
0.01458641301
0.01598473932
0.0173896147
0.01879847032
0.02021297295
0.02163337193
0.02305870536
0.02448742025
0.02592428627
0.02736172422
0.0288058556
0.03025690894
0.03171038211
0.03316897275
0.03463368789
0.03610451177
0.03758161755
0.03906543069
0.04055520536
0.04205161141
0.04355459716
0.04506498616
0.04658556403
0.04810738334
0.04963766469
0.05117513206
0.05272027308
0.05427440149
0.05583595116
0.05740291787
0.05897632922
0.06055940885
0.06214884239
0.06374564046
0.06535151747
0.06696464244
0.06858660617
0.07021592024
0.07185370116
0.07349894644
0.07515263571
0.07681425691
0.07848392603
0.08016182411
0.08184814513
0.08354281956
0.08524435908
0.08695518131
0.08867331233
0.0904000644
0.09213481822
0.09387817256
0.09563022512
0.09739094801
0.0991601299
0.10093813
0.102725098
0.1045212697
0.1063266225
0.1081420456
0.1099670814
0.1118025717
0.1136485832
0.1155053701
0.1173730623
0.119252184
0.1211438819
0.1230476262
0.1249655907
0.126897552
0.1288444752
0.130807024
0.13278591
0.1347823294
0.136797862
0.138831666
0.1408873512
0.1429632266
0.1450621889
0.1471797137
0.1493249452
0.1514873327
0.1536719302
0.155875728
0.158094234
0.1602527456
0.1623144321
0.1618078085
0.1613038617
0.1608163383
0.1603290243
)


101
(
0.0006890786256
0.002086682102
0.003475303568
0.0048508788
0.006216965578
0.007577765501
0.008938082509
0.01029682132
0.01165806025
0.01302258004
0.01439122766
0.01576403364
0.01714242239
0.01852391529
0.01991017062
0.02130147175
0.02269692938
0.02409505419
0.02550054108
0.02690601216
0.02831747347
0.02973517452
0.03115474514
0.03257885704
0.03400853038
0.03544378833
0.03688484304
0.03833214882
0.03978500613
0.04124408812
0.04270936945
0.0441816956
0.04566383303
0.04714710636
0.04863856364
0.05013695106
0.05164273356
0.05315720534
0.05467889033
0.05620591108
0.0577393369
0.05928230248
0.06083154003
0.06238795627
0.0639531692
0.06552542174
0.06710633489
0.06869454876
0.0702912018
0.07189532502
0.07350785836
0.07512828494
0.07675671232
0.07839334179
0.08003839452
0.08169182832
0.08335221775
0.08502189059
0.08669890446
0.08838449907
0.09007807549
0.09178025725
0.09349118699
0.0952108837
0.09693912635
0.09867630211
0.1004225422
0.1021780687
0.1039428443
0.1057177602
0.107502374
0.1092976271
0.1111036597
0.112920728
0.1147489721
0.1165888623
0.1184415475
0.1203064344
0.1221859087
0.1240798419
0.1259892422
0.1279147365
0.1298569986
0.1318173974
0.1337975615
0.1357965673
0.1378183467
0.1398612826
0.1419281845
0.1440143528
0.1461295201
0.1482623304
0.1504184583
0.1525945263
0.1547857117
0.1569127823
0.1589368713
0.158402885
0.1578713647
0.157356355
0.1568412339
)


101
(
0.0006884942387
0.002069967694
0.00344299861
0.004802430158
0.006151318884
0.007493692457
0.008834411811
0.01017227952
0.01151144642
0.01285277962
0.01419719163
0.01554476912
0.01689698773
0.0182514627
0.01960984708
0.02097245422
0.02233846292
0.02370644895
0.02508103182
0.02645502956
0.02783433784
0.02921922829
0.03060545624
0.03199566132
0.03339087114
0.03479114525
0.03619673482
0.03760812622
0.03902466929
0.04044703832
0.04187522258
0.04331007605
0.04475434317
0.04619962876
0.04765282597
0.0491127149
0.05057972877
0.05205512363
0.05353748896
0.0550250575
0.05651895472
0.05802226607
0.05953180435
0.06104838716
0.06257350899
0.06410542943
0.0656457678
0.06719329232
0.06874919277
0.0703125631
0.07188430838
0.07346390328
0.07505143731
0.07664710932
0.07825116415
0.079863597
0.08148305585
0.08311180093
0.08474792819
0.08639259446
0.08804519015
0.08970634726
0.09137624763
0.09305497074
0.09474230181
0.09643865228
0.0981441463
0.09985899761
0.1015831526
0.1033174856
0.1050615544
0.1068163735
0.1085821562
0.1103591824
0.1121476414
0.1139479857
0.1157613588
0.1175870233
0.1194275076
0.1212828158
0.1231540781
0.1250419228
0.1269469006
0.1288705035
0.1308145181
0.1327778923
0.1347648097
0.1367737979
0.1388076608
0.1408613702
0.1429453332
0.1450473879
0.1471737955
0.1493208609
0.151483379
0.1535776535
0.1555627883
0.1550007898
0.1544410055
0.1538979584
0.1533546201
)


101
(
0.0006879098509
0.002053244827
0.00341067493
0.004753983162
0.006085732159
0.007409774365
0.008731022113
0.01004818522
0.01136548009
0.01268385716
0.01400429352
0.01532693204
0.01665329496
0.01798109361
0.01931197911
0.02064629193
0.02198327482
0.02332156919
0.02466571877
0.02600873249
0.02735639857
0.02870901224
0.03006245144
0.03141931914
0.03278064425
0.03414651688
0.03551722472
0.03689328867
0.0382741128
0.03966037609
0.04105207644
0.0424500597
0.04385703874
0.04526489652
0.04668038939
0.04810234905
0.04953118316
0.05096809303
0.05241171031
0.05386035261
0.05531519727
0.05677930509
0.05824960915
0.05972687077
0.06121246267
0.06270462303
0.06420490907
0.06571219151
0.06722772886
0.06875071334
0.0702820352
0.07182116752
0.07336817078
0.07492322143
0.07648656938
0.078058249
0.07963699449
0.08122501986
0.08282047451
0.08442443831
0.08603627562
0.08765658429
0.08928557606
0.09092338969
0.09256983949
0.09422536775
0.09589009443
0.09756422708
0.09924770551
0.1009413832
0.1026447963
0.1043590028
0.1060842804
0.1078209354
0.1095692257
0.1113296401
0.1131033484
0.114889425
0.1166904546
0.1185065443
0.1203390026
0.122188525
0.1240555322
0.1259415436
0.1278485367
0.1297754094
0.1317264918
0.1337004468
0.1357002258
0.1377203244
0.1397718607
0.1418419394
0.1439373084
0.146054022
0.1481864469
0.1502465131
0.1521912565
0.1516006376
0.1510120164
0.1504406075
0.1498687988
)


101
(
0.0006873254639
0.002036513335
0.003378331909
0.004705536553
0.006020203323
0.007326008318
0.008627909693
0.009924533059
0.01122015439
0.01251580417
0.01381252303
0.01511050987
0.01641132967
0.01771279073
0.01901654541
0.02032295944
0.02163133596
0.02294038164
0.02425456476
0.02556707945
0.02688360852