/*--------------------------------*- C++ -*----------------------------------*\
| =========                 |                                                 |
| \\      /  F ield         | OpenFOAM: The Open Source CFD Toolbox           |
|  \\    /   O peration     | Version:  2.3.1                                 |
|   \\  /    A nd           | Web:      www.OpenFOAM.org                      |
|    \\/     M anipulation  |                                                 |
\*---------------------------------------------------------------------------*/
FoamFile
{
    version     2.0;
    format      ascii;
    class       dictionary;
    location    "constant";
    object      OH;
}
// * * * * * * * * * * * * * * * * * * * * * * * * * * * * * * * * * * * * * //

OH_table
101
(

101
(
3.25205937e-08
2.02592439e-06
6.031308943e-06
1.047428813e-05
1.472481927e-05
1.85646391e-05
2.189604263e-05
2.465432563e-05
2.682739671e-05
2.842431951e-05
2.943630539e-05
2.988077271e-05
2.978815769e-05
2.916284369e-05
2.80696653e-05
2.65737934e-05
2.474862501e-05
2.26872077e-05
2.050228209e-05
1.82825358e-05
1.611354445e-05
1.405177088e-05
1.216104577e-05
1.045802075e-05
8.947971576e-06
7.628470979e-06
6.488016788e-06
5.509866956e-06
4.679852814e-06
3.976692585e-06
3.383326608e-06
2.881156609e-06
2.450034087e-06
2.099747732e-06
1.800198542e-06
1.546653159e-06
1.367778226e-06
1.244669965e-06
1.075138197e-06
9.321805587e-07
8.105087118e-07
7.038566645e-07
6.126582915e-07
5.337171468e-07
4.644826341e-07
4.046987283e-07
3.52315461e-07
3.069660891e-07
2.671836702e-07
2.325727333e-07
2.021728544e-07
1.755603789e-07
1.522397224e-07
1.318042143e-07
1.138570953e-07
9.806237508e-08
8.445817969e-08
7.237420446e-08
6.193964645e-08
5.277127365e-08
4.482346655e-08
3.791543256e-08
3.189533872e-08
2.671721388e-08
2.228365593e-08
1.845245809e-08
1.518012772e-08
1.240475857e-08
1.007097255e-08
8.102895413e-09
6.469349227e-09
5.112101854e-09
4.004234337e-09
3.102620477e-09
2.540150725e-09
2.035066778e-09
1.517854914e-09
1.120170129e-09
8.136908175e-10
5.78540088e-10
4.028048701e-10
2.779799485e-10
1.868639869e-10
1.396224084e-10
9.801642437e-11
6.231692119e-11
3.873472175e-11
2.352888857e-11
1.399439523e-11
1.00465345e-11
5.716210313e-12
3.001137934e-12
1.649308657e-12
8.673537806e-13
4.578586748e-13
1.449753482e-13
-2.999693605e-20
1.727116723e-38
7.856679689e-31
-1.177337312e-30
0
)


101
(
3.240456415e-08
1.996716647e-06
5.94856758e-06
1.034507672e-05
1.456012852e-05
1.837476746e-05
2.16927196e-05
2.445097616e-05
2.663781271e-05
2.826167264e-05
2.931637102e-05
2.981713966e-05
2.97928355e-05
2.925070494e-05
2.824616425e-05
2.68408501e-05
2.510384712e-05
2.312151449e-05
2.099623422e-05
1.882054315e-05
1.66734143e-05
1.461611051e-05
1.271069419e-05
1.098111795e-05
9.436643594e-06
8.077558827e-06
6.895417341e-06
5.875889644e-06
5.005168715e-06
4.264658468e-06
3.637240561e-06
3.105214433e-06
2.649353364e-06
2.270129157e-06
1.948921495e-06
1.675944076e-06
1.464530964e-06
1.310625962e-06
1.155058492e-06
1.007155104e-06
8.770388701e-07
7.63244076e-07
6.649796687e-07
5.801476527e-07
5.062610884e-07
4.421046112e-07
3.860867763e-07
3.372603028e-07
2.945344188e-07
2.571793377e-07
2.244240457e-07
1.956780122e-07
1.704306099e-07
1.482059998e-07
1.286460825e-07
1.114357084e-07
9.64201779e-08
8.322546665e-08
7.168234198e-08
6.156694701e-08
5.271922461e-08
4.499368707e-08
3.824153996e-08
3.236035636e-08
2.726585227e-08
2.286937948e-08
1.90736378e-08
1.581137666e-08
1.302184798e-08
1.065225113e-08
8.652748936e-09
6.972482642e-09
5.568533179e-09
4.395340514e-09
3.480615503e-09
2.765245187e-09
2.15860087e-09
1.65280133e-09
1.244138845e-09
9.200501483e-10
6.686123851e-10
4.777022222e-10
3.346952668e-10
2.339512938e-10
1.635848382e-10
1.123980311e-10
7.534289579e-11
4.886861821e-11
3.098962869e-11
1.965992046e-11
1.230196677e-11
7.599434805e-12
4.519425978e-12
2.603469417e-12
1.548902179e-12
8.40691006e-13
2.247200338e-13
2.278595707e-13
2.44356988e-13
3.698782472e-13
4.956456635e-13
)


101
(
3.22885346e-08
1.96758573e-06
5.866107584e-06
1.021628588e-05
1.439622284e-05
1.818643168e-05
2.149204166e-05
2.425172419e-05
2.645420288e-05
2.810731022e-05
2.920714701e-05
2.976701165e-05
2.981403735e-05
2.935769124e-05
2.844544717e-05
2.713467428e-05
2.549015517e-05
2.359197286e-05
2.15328968e-05
1.940682536e-05
1.728785426e-05
1.523991856e-05
1.332482246e-05
1.157155892e-05
9.993942828e-06
8.595477205e-06
7.37071376e-06
6.307886478e-06
5.394270383e-06
4.613263812e-06
3.948536071e-06
3.383175186e-06
2.898756368e-06
2.490589978e-06
2.143722358e-06
1.848186778e-06
1.609173153e-06
1.424810596e-06
1.262853807e-06
1.111528387e-06
9.739915155e-07
8.516392043e-07
7.448938012e-07
6.5230821e-07
5.717426957e-07
5.016860708e-07
4.404961328e-07
3.869497762e-07
3.399646192e-07
2.987042581e-07
2.624072325e-07
2.304435116e-07
2.022772907e-07
1.774030951e-07
1.553907989e-07
1.359048957e-07
1.187141813e-07
1.035430406e-07
9.017446928e-08
7.837757867e-08
6.798129715e-08
5.88156734e-08
5.07296937e-08
4.361592929e-08
3.737632749e-08
3.191740593e-08
2.713719338e-08
2.296326073e-08
1.933424965e-08
1.618344067e-08
1.346890903e-08
1.113473806e-08
9.148685506e-09
7.449322446e-09
6.019185702e-09
4.839819427e-09
3.865906437e-09
3.060579949e-09
2.397258455e-09
1.853256286e-09
1.413998535e-09
1.063295568e-09
7.875607665e-10
5.738889367e-10
4.12179962e-10
2.919923257e-10
2.066206837e-10
1.442420186e-10
9.810608591e-11
6.591035206e-11
4.341240733e-11
2.802422301e-11
1.861117137e-11
1.191547337e-11
7.839664255e-12
4.944012921e-12
1.909197999e-12
2.549390323e-12
3.327642114e-12
5.286670828e-12
7.186741761e-12
)


101
(
3.217250505e-08
1.938531774e-06
5.783925585e-06
1.008790097e-05
1.423305705e-05
1.799953144e-05
2.129382687e-05
2.405626987e-05
2.627610883e-05
2.796057279e-05
2.910777513e-05
2.97292867e-05
2.985042145e-05
2.948230898e-05
2.866570727e-05
2.745330502e-05
2.590553815e-05
2.409653638e-05
2.211011137e-05
2.00396785e-05
1.795536236e-05
1.592236968e-05
1.400295429e-05
1.222975131e-05
1.062104427e-05
9.184010811e-06
7.916280338e-06
6.808735444e-06
5.850275558e-06
5.02601978e-06
4.32079845e-06
3.718674452e-06
3.201984219e-06
2.763502125e-06
2.388550121e-06
2.066300457e-06
1.801023295e-06
1.587170706e-06
1.407712799e-06
1.247765091e-06
1.102168581e-06
9.707011569e-07
8.543771461e-07
7.52453478e-07
6.63385154e-07
5.857854324e-07
5.178917483e-07
4.583344326e-07
4.058358105e-07
3.595117123e-07
3.185172567e-07
2.822316922e-07
2.500937581e-07
2.215700752e-07
1.961890632e-07
1.735881749e-07
1.534325134e-07
1.354723789e-07
1.195067025e-07
1.052784291e-07
9.262440299e-08
8.135754693e-08
7.131242062e-08
6.236615526e-08
5.440451134e-08
4.73227687e-08
4.103020336e-08
3.54365774e-08
3.049979654e-08
2.613418141e-08
2.228405349e-08
1.889536659e-08
1.594211491e-08
1.336354176e-08
1.111844289e-08
9.183426488e-09
7.530430053e-09
6.129423312e-09
4.951358197e-09
3.96636173e-09
3.14806744e-09
2.46873097e-09
1.912174956e-09
1.460053939e-09
1.097608632e-09
8.119386603e-10
5.929309115e-10
4.326762167e-10
3.107930849e-10
2.175444954e-10
1.496715872e-10
1.019617712e-10
7.05534477e-11
4.763709408e-11
3.24518569e-11
2.100718676e-11
8.227336794e-12
1.432854445e-11
2.153901366e-11
3.837599966e-11
5.635426396e-11
)


101
(
3.205647551e-08
1.909554985e-06
5.702018335e-06
9.959907701e-06
1.407058709e-05
1.781396888e-05
2.109789868e-05
2.386432471e-05
2.610309225e-05
2.782083257e-05
2.901744395e-05
2.970292568e-05
2.99007375e-05
2.962316082e-05
2.890527383e-05
2.779492032e-05
2.634809834e-05
2.463327528e-05
2.272591611e-05
2.071750449e-05
1.867460124e-05
1.666273537e-05
1.474487654e-05
1.29563071e-05
1.131946832e-05
9.845401944e-06
8.534989392e-06
7.381910275e-06
6.377060903e-06
5.50723989e-06
4.758551256e-06
4.116302918e-06
3.563605444e-06
3.092487544e-06
2.687553033e-06
2.33852898e-06
2.043661046e-06
1.800103637e-06
1.597393116e-06
1.422187303e-06
1.26549162e-06
1.123654904e-06
9.967659249e-07
8.842505602e-07
7.850635577e-07
6.982087111e-07
6.219716977e-07
5.549203678e-07
4.95576615e-07
4.429626309e-07
3.961043161e-07
3.543505346e-07
3.171325647e-07
2.839211008e-07
2.541861112e-07
2.274936136e-07
2.035384664e-07
1.819616014e-07
1.625916669e-07
1.451246986e-07
1.294300057e-07
1.153224921e-07
1.02613588e-07
9.117560946e-08
8.086729718e-08
7.154175383e-08
6.312599368e-08
5.553982504e-08
4.873145671e-08
4.262223512e-08
3.711326198e-08
3.21687426e-08
2.775768831e-08
2.383650545e-08
2.034839018e-08
1.725669474e-08
1.452518528e-08
1.214535731e-08
1.008252522e-08
8.309338244e-09
6.799811801e-09
5.510875453e-09
4.421034192e-09
3.505810983e-09
2.74190081e-09
2.113172058e-09
1.602905094e-09
1.205175817e-09
9.034487598e-10
6.643555779e-10
4.771123635e-10
3.364668704e-10
2.356303444e-10
1.659740971e-10
1.167526671e-10
7.75713364e-11
3.515686926e-11
6.990582514e-11
1.094090956e-10
1.944246923e-10
2.768947482e-10
)


101
(
3.194044594e-08
1.880655586e-06
5.620382703e-06
9.832292142e-06
1.390876994e-05
1.762964858e-05
2.090408564e-05
2.367561421e-05
2.593474113e-05
2.768750745e-05
2.893541107e-05
2.968700663e-05
2.996388353e-05
2.977905235e-05
2.916275256e-05
2.815799431e-05
2.681628513e-05
2.52006413e-05
2.337872953e-05
2.143904165e-05
1.94446271e-05
1.746062681e-05
1.555073459e-05
1.375214702e-05
1.209100031e-05
1.058225001e-05
9.230160036e-06
8.031357145e-06
6.979046489e-06
6.061800634e-06
5.267210847e-06
4.581571972e-06
3.989190082e-06
3.482401623e-06
3.04479974e-06
2.666229782e-06
2.341421373e-06
2.06729099e-06
1.837502437e-06
1.64164566e-06
1.469607598e-06
1.315002281e-06
1.17613662e-06
1.051812164e-06
9.410606383e-07
8.432784869e-07
7.569944233e-07
6.808961776e-07
6.133430151e-07
5.531717342e-07
4.992454134e-07
4.508375128e-07
4.073701994e-07
3.683469223e-07
3.332235684e-07
3.0146508e-07
2.727437536e-07
2.46647069e-07
2.230265151e-07
2.014949283e-07
1.819101146e-07
1.64158083e-07
1.479925151e-07
1.333077931e-07
1.199542494e-07
1.077297266e-07
9.653118698e-08
8.628252187e-08
7.692913889e-08
6.846159375e-08
6.07072673e-08
5.362013486e-08
4.715904178e-08
4.130770369e-08
3.60123621e-08
3.123156097e-08
2.692355443e-08
2.306255849e-08
1.961019099e-08
1.656647252e-08
1.390609859e-08
1.159804104e-08
9.579126239e-09
7.841121026e-09
6.344149336e-09
5.071857761e-09
3.989612376e-09
3.101534423e-09
2.393390798e-09
1.834419403e-09
1.372864571e-09
1.012296828e-09
7.380876636e-10
5.307681545e-10
3.86021469e-10
2.653007843e-10
1.357752409e-10
2.570168851e-10
4.135052399e-10
8.685723826e-10
1.326244163e-09
)


101
(
3.182441641e-08
1.851833888e-06
5.539015743e-06
9.705040795e-06
1.374756366e-05
1.744647751e-05
2.071222093e-05
2.348987217e-05
2.577065798e-05
2.756003555e-05
2.886095859e-05
2.968064185e-05
3.003879728e-05
2.994882533e-05
2.943680285e-05
2.854103893e-05
2.730856274e-05
2.579708766e-05
2.406696873e-05
2.220295512e-05
2.026442506e-05
1.831553648e-05
1.642058707e-05
1.461808837e-05
1.293732334e-05
1.1397098e-05
1.000514476e-05
8.761133185e-06
7.660838638e-06
6.694774803e-06
5.852154824e-06
5.120406226e-06
4.484924677e-06
3.93915258e-06
3.46596082e-06
3.055058376e-06
2.698964782e-06
2.393345845e-06
2.133907134e-06
1.913066073e-06
1.721265962e-06
1.550574459e-06
1.397613369e-06
1.259988765e-06
1.136266104e-06
1.025992222e-06
9.279554165e-07
8.41146052e-07
7.638797643e-07
6.948006312e-07
6.325968666e-07
5.763584561e-07
5.254678184e-07
4.794589606e-07
4.378505505e-07
4.00000615e-07
3.655209892e-07
3.339490426e-07
3.051199472e-07
2.786299229e-07
2.543251488e-07
2.320784211e-07
2.116381895e-07
1.928688664e-07
1.756651188e-07
1.598028931e-07
1.451060669e-07
1.314808112e-07
1.188620618e-07
1.072636401e-07
9.657393238e-08
8.66930306e-08
7.754178053e-08
6.909394255e-08
6.131638848e-08
5.418305273e-08
4.766961943e-08
4.170568471e-08
3.624743768e-08
3.130879705e-08
2.688165677e-08
2.296894561e-08
1.946701316e-08
1.636910907e-08
1.364766398e-08
1.125981386e-08
9.165721873e-09
7.364643545e-09
5.868107502e-09
4.65444659e-09
3.622036428e-09
2.767220541e-09
2.105372718e-09
1.576202836e-09
1.186585651e-09
8.286325006e-10
4.603373895e-10
9.959136692e-10
1.652146829e-09
3.347784072e-09
4.99733765e-09
)


101
(
3.170838684e-08
1.823090245e-06
5.457914541e-06
9.578140367e-06
1.358692816e-05
1.726436919e-05
2.052215339e-05
2.330685921e-05
2.561047015e-05
2.743788472e-05
2.879341082e-05
2.968299414e-05
3.012448753e-05
3.013138669e-05
2.972617919e-05
2.894265835e-05
2.782343967e-05
2.642108312e-05
2.478905536e-05
2.300784465e-05
2.113289178e-05
1.922681808e-05
1.735428779e-05
1.555466694e-05
1.385978594e-05
1.229213623e-05
1.086297886e-05
9.575082359e-06
8.426967096e-06
7.411272093e-06
6.518995796e-06
5.738852095e-06
5.057266853e-06
4.469225702e-06
3.957329073e-06
3.511241803e-06
3.121960973e-06
2.783641395e-06
2.492654479e-06
2.243443735e-06
2.027756255e-06
1.837211282e-06
1.667379085e-06
1.514510556e-06
1.3762853e-06
1.252047795e-06
1.140638521e-06
1.0413765e-06
9.527303963e-07
8.732601674e-07
8.014562359e-07
7.361651761e-07
6.766959738e-07
6.225496845e-07
5.732749164e-07
5.282423542e-07
4.870238433e-07
4.49006984e-07
4.140247897e-07
3.816184255e-07
3.516386669e-07
3.239705889e-07
2.983594143e-07
2.746633186e-07
2.527581534e-07
2.324464275e-07
2.134782936e-07
1.957468226e-07
1.791242657e-07
1.636328782e-07
1.49232935e-07
1.357911878e-07
1.232194539e-07
1.114438738e-07
1.004430216e-07
9.019076624e-08
8.071680794e-08
7.193425994e-08
6.377268779e-08
5.621062554e-08
4.925432793e-08
4.296264847e-08
3.726843258e-08
3.208438267e-08
2.744694087e-08
2.328636215e-08
1.954656918e-08
1.620309998e-08
1.332949902e-08
1.089401587e-08
8.81396096e-09
6.977183972e-09
5.504097389e-09
4.296282456e-09
3.330628968e-09
2.451457371e-09
1.494834722e-09
3.293996265e-09
5.465890969e-09
1.083879557e-08
1.60525915e-08
)


101
(
3.159235732e-08
1.794425085e-06
5.377076438e-06
9.451578064e-06
1.342682472e-05
1.708324189e-05
2.033374569e-05
2.312636377e-05
2.545383076e-05
2.732055501e-05
2.873213111e-05
2.969328978e-05
3.022004053e-05
3.032573243e-05
3.002973296e-05
2.93615546e-05
2.835949877e-05
2.707112964e-05
2.554341025e-05
2.385223578e-05
2.204881544e-05
2.019368306e-05
1.835150993e-05
1.656221562e-05
1.485954688e-05
1.326938823e-05
1.180655993e-05
1.047697107e-05
9.281981839e-06
8.216509111e-06
7.273518664e-06
6.443195037e-06
5.712998854e-06
5.079659516e-06
4.525884288e-06
4.041576389e-06
3.616742252e-06
3.244121044e-06
2.919940798e-06
2.639715606e-06
2.396574903e-06
2.182494672e-06
1.992571799e-06
1.821978008e-06
1.667380367e-06
1.527617874e-06
1.40129913e-06
1.287941161e-06
1.186251274e-06
1.094805859e-06
1.011911061e-06
9.362887728e-07
8.670622734e-07
8.03553999e-07
7.454325754e-07
6.921079095e-07
6.430566908e-07
5.975818503e-07
5.555086797e-07
5.16282728e-07
4.797247316e-07
4.45714962e-07
4.139629747e-07
3.844072196e-07
3.569079485e-07
3.313111591e-07
3.073210779e-07
2.847177782e-07
2.63331116e-07
2.431018207e-07
2.241322303e-07
2.062832022e-07
1.89543638e-07
1.737199003e-07
1.587125073e-07
1.445325312e-07
1.312494608e-07
1.18812418e-07
1.071303857e-07
9.611302858e-08
8.57985188e-08
7.623966894e-08
6.74979279e-08
5.936183807e-08
5.193755238e-08
4.51028464e-08
3.892103238e-08
3.31810244e-08
2.810791954e-08
2.364998525e-08
1.97288377e-08
1.616587204e-08
1.322487353e-08
1.073683188e-08
8.623582642e-09
6.7097387e-09
4.426219925e-09
9.457853393e-09
1.543127644e-08
2.937690075e-08
4.348284664e-08
)


101
(
3.14763277e-08
1.765838857e-06
5.296498786e-06
9.32534167e-06
1.326721568e-05
1.690301498e-05
2.014686252e-05
2.294818213e-05
2.530040718e-05
2.720756224e-05
2.867649876e-05
2.971077549e-05
3.032456778e-05
3.053088101e-05
3.034634741e-05
2.979646109e-05
2.891534007e-05
2.774572389e-05
2.632842566e-05
2.473456648e-05
2.301085066e-05
2.121518681e-05
1.941174647e-05
1.764086946e-05
1.593760484e-05
1.433080798e-05
1.283875295e-05
1.147051508e-05
1.023037415e-05
9.115647849e-06
8.121433698e-06
7.239603173e-06
6.458764241e-06
5.777480828e-06
5.17871598e-06
4.653067744e-06
4.190095215e-06
3.78132681e-06
3.422395767e-06
3.109060051e-06
2.835431974e-06
2.594237135e-06
2.380836403e-06
2.189686748e-06
2.016526868e-06
1.859516679e-06
1.71674796e-06
1.587756125e-06
1.471343929e-06
1.366253474e-06
1.270766112e-06
1.183514291e-06
1.103340967e-06
1.02937711e-06
9.612470849e-07
8.983891953e-07
8.404151485e-07
7.8637782e-07
7.362311297e-07
6.89291748e-07
6.452496423e-07
6.040247335e-07
5.652551602e-07
5.289158407e-07
4.948806032e-07
4.630323214e-07
4.331379326e-07
4.048453731e-07
3.779327887e-07
3.522638585e-07
3.279383508e-07
3.048738089e-07
2.830448327e-07
2.623290131e-07
2.425515707e-07
2.236590303e-07
2.05680224e-07
1.886874477e-07
1.726430519e-07
1.573045743e-07
1.426736084e-07
1.289339282e-07
1.161445796e-07
1.041615379e-07
9.290189509e-08
8.23446591e-08
7.273054436e-08
6.3594983e-08
5.526593242e-08
4.776151526e-08
4.094072888e-08
3.468553595e-08
2.927116331e-08
2.458688514e-08
2.040105608e-08
1.650242884e-08
1.190853311e-08
2.393285846e-08
3.787083651e-08
6.757493169e-08
9.94015879e-08
)


101
(
3.136029818e-08
1.737332172e-06
5.216179373e-06
9.199420308e-06
1.310806686e-05
1.672361268e-05
1.996137167e-05
2.277211124e-05
2.514989268e-05
2.709846941e-05
2.862593352e-05
2.973472431e-05
3.043719566e-05
3.074585132e-05
3.067490223e-05
3.024609883e-05
2.948952391e-05
2.844328885e-05
2.714238245e-05
2.565308538e-05
2.401739436e-05
2.229012298e-05
2.053436747e-05
1.879059695e-05
1.709477653e-05
1.547819068e-05
1.39623047e-05
1.255933943e-05
1.127657212e-05
1.011385454e-05
9.068534154e-06
8.134326385e-06
7.301191793e-06
6.569758714e-06
5.923210793e-06
5.353172666e-06
4.849320098e-06
4.402307712e-06
4.006915665e-06
3.658637014e-06
3.352050801e-06
3.080584299e-06
2.840418216e-06
2.625718596e-06
2.431548213e-06
2.255391968e-06
2.094559203e-06
1.948349653e-06
1.815546028e-06
1.695159902e-06
1.585520228e-06
1.485238425e-06
1.392912783e-06
1.307416227e-06
1.228084726e-06
1.15457878e-06
1.086589678e-06
1.022984498e-06
9.637694229e-07
9.082073135e-07
8.558208397e-07
8.064744751e-07
7.598677544e-07
7.158670708e-07
6.743463072e-07
6.352265807e-07
5.985092859e-07
5.637061633e-07
5.305634324e-07
4.987365964e-07
4.682850646e-07
4.391600277e-07
4.11444966e-07
3.850243146e-07
3.596943021e-07
3.352567079e-07
3.117446197e-07
2.893214265e-07
2.67963285e-07
2.474272039e-07
2.275822757e-07
2.086909904e-07
1.908224761e-07
1.739859064e-07
1.578707594e-07
1.423825918e-07
1.281203075e-07
1.145057225e-07
1.01715745e-07
9.002858522e-08
7.902009349e-08
6.882356991e-08
5.971452333e-08
5.164344883e-08
4.424470631e-08
3.698150208e-08
2.833967449e-08
5.388835386e-08
8.247369409e-08
1.361708399e-07
1.89521403e-07
)


101
(
3.124426887e-08
1.708905624e-06
5.136115934e-06
9.073803079e-06
1.294934438e-05
1.65449602e-05
1.977714298e-05
2.25979525e-05
2.500199201e-05
2.699286485e-05
2.857987746e-05
2.976443348e-05
3.055707042e-05
3.096967444e-05
3.101429318e-05
3.070920508e-05
3.008060638e-05
2.916220809e-05
2.79835026e-05
2.660594497e-05
2.506667094e-05
2.341702489e-05
2.171846499e-05
2.001105986e-05
1.833153158e-05
1.671296028e-05
1.517957684e-05
1.374670701e-05
1.242471263e-05
1.121608589e-05
1.012052984e-05
9.133716543e-06
8.247128722e-06
7.463809927e-06
6.767109363e-06
6.149843819e-06
5.602257745e-06
5.114593978e-06
4.680843978e-06
4.295925574e-06
3.95438763e-06
3.650040443e-06
3.380073454e-06
3.138852218e-06
2.921059626e-06
2.723634811e-06
2.542995765e-06
2.377983658e-06
2.227217974e-06
2.089936817e-06
1.964546522e-06
1.849722032e-06
1.743938221e-06
1.645755757e-06
1.554204204e-06
1.469130451e-06
1.39000371e-06
1.315800381e-06
1.246446102e-06
1.181354952e-06
1.119830029e-06
1.061573091e-06
1.006296815e-06
9.538009798e-07
9.040157368e-07
8.56781878e-07
8.121797052e-07
7.699798349e-07
7.297988224e-07
6.911326416e-07
6.539123022e-07
6.180125825e-07
5.8358912e-07
5.506063164e-07
5.188963054e-07
4.881559905e-07
4.583680404e-07
4.297192779e-07
4.02083601e-07
3.754342267e-07
3.495390137e-07
3.245246807e-07
3.005936315e-07
2.778711557e-07
2.558690892e-07
2.342843016e-07
2.140473402e-07
1.948322473e-07
1.764475707e-07
1.591082032e-07
1.425633562e-07
1.270980479e-07
1.12845947e-07
9.993354172e-08
8.80031632e-08
7.592676808e-08
6.160344833e-08
1.081698063e-07
1.595483373e-07
2.480373742e-07
3.376882001e-07
)


101
(
3.112824011e-08
1.680559915e-06
5.056306533e-06
8.948479669e-06
1.279101524e-05
1.636698352e-05
1.9594046e-05
2.242550946e-05
2.485642643e-05
2.689035604e-05
2.853778683e-05
2.979921994e-05
3.068336031e-05
3.120139592e-05
3.136342936e-05
3.118452711e-05
3.068716131e-05
2.990086112e-05
2.884998133e-05
2.759122395e-05
2.615670266e-05
2.459405069e-05
2.296255022e-05
2.130123181e-05
1.964736819e-05
1.803539575e-05
1.649189532e-05
1.503505994e-05
1.367832141e-05
1.242686202e-05
1.128285181e-05
1.0244062e-05
9.303628423e-06
8.467239444e-06
7.718489997e-06
7.051481207e-06
6.457332886e-06
5.92635226e-06
5.452084559e-06
5.028892869e-06
4.650741795e-06
4.311399303e-06
4.008958624e-06
3.738330165e-06
3.494160063e-06
3.273113677e-06
3.070824088e-06
2.885498604e-06
2.71532586e-06
2.559669168e-06
2.416985359e-06
2.286107913e-06
2.165501951e-06
2.053482599e-06
1.9487985e-06
1.85110859e-06
1.759912254e-06
1.674059601e-06
1.593610509e-06
1.518009966e-06
1.446534963e-06
1.378636189e-06
1.313996043e-06
1.252298519e-06
1.193443354e-06
1.137421783e-06
1.084123616e-06
1.033562613e-06
9.854982087e-07
9.392222295e-07
8.946058726e-07
8.513455759e-07
8.094584793e-07
7.690723786e-07
7.301291465e-07
6.923767751e-07
6.556044095e-07
6.199142749e-07
5.852803169e-07
5.516054428e-07
5.1869845e-07
4.866611623e-07
4.556787475e-07
4.259348531e-07
3.971301089e-07
3.684988206e-07
3.40895419e-07
3.147164975e-07
2.895435017e-07
2.652270147e-07
2.416685616e-07
2.195866165e-07
1.988139761e-07
1.794489937e-07
1.614812625e-07
1.430029158e-07
1.213517455e-07
1.98967521e-07
2.828927736e-07
4.147372471e-07
5.459821157e-07
)


101
(
3.101221136e-08
1.65229584e-06
4.976749425e-06
8.823440041e-06
1.263304713e-05
1.618960954e-05
1.941194732e-05
2.225458139e-05
2.471294256e-05
2.679059167e-05
2.849912662e-05
2.983841278e-05
3.08152432e-05
3.144004104e-05
3.172118477e-05
3.167077867e-05
3.13077734e-05
3.065769741e-05
2.974007495e-05
2.860699348e-05
2.728534504e-05
2.581896328e-05
2.426453142e-05
2.265949588e-05
2.104129806e-05
1.944528904e-05
1.790002705e-05
1.64262695e-05
1.504040753e-05
1.375026809e-05
1.256056873e-05
1.147134845e-05
1.047753998e-05
9.587617873e-06
8.785486864e-06
8.066630886e-06
7.423273658e-06
6.846248521e-06
6.329132419e-06
5.865916541e-06
5.449677967e-06
5.073667026e-06
4.736566207e-06
4.433894492e-06
4.160590922e-06
3.913406338e-06
3.687430903e-06
3.480225539e-06
3.289323425e-06
3.114017518e-06
2.952602754e-06
2.804182644e-06
2.667434411e-06
2.540418405e-06
2.42160231e-06
2.310317191e-06
2.206284519e-06
2.107927149e-06
2.015551764e-06
1.928522856e-06
1.846329623e-06
1.768057344e-06
1.693351388e-06
1.621853913e-06
1.553431022e-06
1.487919704e-06
1.425199709e-06
1.365472846e-06
1.308520643e-06
1.253896847e-06
1.201207757e-06
1.15005535e-06
1.100126033e-06
1.051596675e-06
1.004518666e-06
9.587957487e-07
9.142877102e-07
8.709560704e-07
8.284715224e-07
7.869429702e-07
7.460770193e-07
7.061128624e-07
6.670375275e-07
6.291184247e-07
5.924169685e-07
5.55830141e-07
5.196341522e-07
4.850346474e-07
4.516930122e-07
4.192555738e-07
3.871900249e-07
3.570104848e-07
3.281163504e-07
3.009386914e-07
2.752986974e-07
2.489064057e-07
2.185607964e-07
3.36777491e-07
4.625547583e-07
6.447835793e-07
8.271195631e-07
)


101
(
3.089618251e-08
1.624114252e-06
4.897442957e-06
8.698674374e-06
1.247540801e-05
1.601276626e-05
1.92307158e-05
2.208496893e-05
2.457129112e-05
2.66932406e-05
2.846338204e-05
2.988135998e-05
3.095192179e-05
3.168465624e-05
3.208644901e-05
3.216667631e-05
3.194101119e-05
3.143114727e-05
3.065200576e-05
2.965131024e-05
2.845041275e-05
2.708940058e-05
2.5622059e-05
2.408383922e-05
2.251189942e-05
2.094200191e-05
1.940425379e-05
1.792161098e-05
1.65132646e-05
1.518966671e-05
1.395812936e-05
1.28210186e-05
1.177515902e-05
1.083200702e-05
9.975866006e-06
9.203675701e-06
8.508907939e-06
7.883285065e-06
7.320928934e-06
6.81577043e-06
6.360001945e-06
5.945991464e-06
5.572587572e-06
5.235667994e-06
4.930667412e-06
4.654819462e-06
4.402955253e-06
4.172128535e-06
3.959170198e-06
3.762983622e-06
3.581589939e-06
3.41434085e-06
3.26020622e-06
3.117056423e-06
2.983207728e-06
2.857638898e-06
2.740031626e-06
2.628563859e-06
2.523417842e-06
2.42415553e-06
2.330487297e-06
2.241235416e-06
2.155792788e-06
2.073965235e-06
1.995523181e-06
1.919951992e-06
1.847329568e-06
1.777614028e-06
1.711093049e-06
1.647255199e-06
1.585682197e-06
1.525969133e-06
1.467505184e-06
1.410293362e-06
1.354304549e-06
1.299570013e-06
1.246388089e-06
1.194492563e-06
1.143445127e-06
1.093239128e-06
1.043345985e-06
9.942929476e-07
9.461133903e-07
8.988595788e-07
8.527399959e-07
8.070260422e-07
7.612738099e-07
7.166382524e-07
6.735777408e-07
6.317521192e-07
5.895860936e-07
5.499365239e-07
5.108966711e-07
4.743522096e-07
4.394769472e-07
4.037029648e-07
3.626162106e-07
5.290815502e-07
7.042251863e-07
9.430823587e-07
1.188759758e-06
)


101
(
3.078015367e-08
1.596016144e-06
4.818385763e-06
8.57417335e-06
1.231806619e-05
1.58363815e-05
1.905022253e-05
2.191647378e-05
2.443122737e-05
2.659798879e-05
2.843009264e-05
2.99274113e-05
3.109261417e-05
3.193432647e-05
3.245816508e-05
3.267098983e-05
3.258541851e-05
3.221951946e-05
3.158378455e-05
3.072174356e-05
2.964925142e-05
2.840261896e-05
2.703253921e-05
2.557194093e-05
2.40573234e-05
2.252441209e-05
2.100431832e-05
1.952177355e-05
1.809857037e-05
1.674777645e-05
1.547937284e-05
1.429801583e-05
1.320236137e-05
1.220714001e-05
1.129713816e-05
1.047085852e-05
9.723083911e-06
9.046672372e-06
8.436760882e-06
7.887615136e-06
7.390819695e-06
6.937623495e-06
6.526679067e-06
6.153882666e-06
5.815085217e-06
5.508221735e-06
5.228216778e-06
4.971956359e-06
4.735503637e-06
4.517245665e-06
4.314899616e-06
4.127773026e-06
3.955056178e-06
3.794746289e-06
3.645023354e-06
3.504532459e-06
3.372800421e-06
3.247768388e-06
3.129339092e-06
3.017177082e-06
2.911165039e-06
2.810361496e-06
2.713736314e-06
2.621221075e-06
2.5323337e-06
2.446318179e-06
2.363261758e-06
2.283122568e-06
2.206383496e-06
2.132487378e-06
2.061184297e-06
1.992128955e-06
1.924452504e-06
1.858096754e-06
1.792640422e-06
1.727887704e-06
1.664673149e-06
1.602966509e-06
1.542505146e-06
1.482594101e-06
1.422650534e-06
1.363258568e-06
1.304469023e-06
1.246602353e-06
1.189666631e-06
1.133089413e-06
1.076327337e-06
1.020099413e-06
9.652534787e-07
9.122770521e-07
8.581936786e-07
8.07197389e-07
7.562788171e-07
7.082531163e-07
6.624778566e-07
6.153191115e-07
5.61315758e-07
7.830619282e-07
1.014316782e-06
1.31582766e-06
1.61371846e-06
)


101
(
3.0664125e-08
1.568002631e-06
4.739576723e-06
8.449927931e-06
1.216099083e-05
1.566038479e-05
1.887034118e-05
2.17488983e-05
2.429250841e-05
2.650453626e-05
2.83988374e-05
2.997592804e-05
3.123654702e-05
3.218816932e-05
3.283531547e-05
3.318253451e-05
3.323954565e-05
3.302103182e-05
3.253326965e-05
3.18156138e-05
3.087894812e-05
2.975558111e-05
2.849304301e-05
2.712107502e-05
2.567520583e-05
2.419077535e-05
2.269925975e-05
2.122672741e-05
1.979735077e-05
1.842671117e-05
1.712742747e-05
1.590647712e-05
1.476433163e-05
1.371913395e-05
1.275633057e-05
1.187609683e-05
1.107452898e-05
1.034569918e-05
9.686143831e-06
9.090971208e-06
8.551446898e-06
8.057870609e-06
7.608504695e-06
7.198734003e-06
6.824535306e-06
6.484664125e-06
6.174481506e-06
5.891030409e-06
5.629598357e-06
5.388162957e-06
5.164049147e-06
4.956276767e-06
4.764001348e-06
4.585658821e-06
4.419240053e-06
4.263094353e-06
4.116874269e-06
3.978054819e-06
3.84609429e-06
3.720576903e-06
3.601737612e-06
3.488830633e-06
3.380759335e-06
3.277301549e-06
3.177484058e-06
3.081005121e-06
2.987256757e-06
2.896230575e-06
2.808599048e-06
2.723875951e-06
2.642120538e-06
2.562782243e-06
2.485133738e-06
2.408947065e-06
2.333472895e-06
2.25803702e-06
2.183281407e-06
2.110397889e-06
2.038891239e-06
1.968094051e-06
1.897100411e-06
1.825891453e-06
1.754607744e-06
1.684387359e-06
1.614722197e-06
1.545356854e-06
1.475518888e-06
1.405818766e-06
1.336671835e-06
1.270079926e-06
1.202083942e-06
1.136973083e-06
1.07218746e-06
1.010052461e-06
9.510293354e-07
8.90433244e-07
8.218160758e-07
1.104617858e-06
1.398398775e-06
1.77279881e-06
2.146853929e-06
)


101
(
3.054809615e-08
1.54007477e-06
4.661018256e-06
8.325928709e-06
1.200415071e-05
1.548470652e-05
1.869094723e-05
2.158204518e-05
2.415487221e-05
2.641257308e-05
2.836922734e-05
3.002630363e-05
3.138296253e-05
3.244531095e-05
3.321688151e-05
3.370012315e-05
3.390195358e-05
3.383393571e-05
3.34983892e-05
3.293029341e-05
3.213657282e-05
3.114514653e-05
3.000032823e-05
2.872808125e-05
2.736255495e-05
2.593849353e-05
2.448719985e-05
2.303556406e-05
2.160982033e-05
2.022784834e-05
1.890471994e-05
1.764979746e-05
1.646551315e-05
1.537342969e-05
1.435984032e-05
1.342674701e-05
1.257153844e-05
1.178945751e-05
1.107860059e-05
1.043539383e-05
9.851359025e-06
9.316151865e-06
8.827556852e-06
8.380146458e-06
7.969585846e-06
7.595270905e-06
7.253171686e-06
6.940835767e-06
6.653116322e-06
6.387569794e-06
6.140987067e-06
5.912019991e-06
5.699598175e-06
5.502516652e-06
5.31883119e-06
5.146555953e-06
4.98552674e-06
4.832731935e-06
4.687383127e-06
4.548533331e-06
4.416630319e-06
4.291206822e-06
4.171515384e-06
4.056918222e-06
3.946138662e-06
3.839083161e-06
3.734428341e-06
3.63234511e-06
3.533392706e-06
3.437513926e-06
3.344567618e-06
3.253973201e-06
3.165382562e-06
3.078397656e-06
2.992043145e-06
2.9053363e-06
2.818422923e-06
2.732444831e-06
2.647957572e-06
2.564610767e-06
2.481175232e-06
2.396377354e-06
2.310798143e-06
2.225863238e-06
2.141177016e-06
2.05647105e-06
1.97070395e-06
1.885030521e-06
1.798636986e-06
1.71523131e-06
1.630791028e-06
1.54806421e-06
1.46637764e-06
1.3871775e-06
1.311533925e-06
1.234798724e-06
1.148891146e-06
1.500764778e-06
1.865871649e-06
2.329231201e-06
2.794482697e-06
)


101
(
3.043206731e-08
1.512233849e-06
4.582705957e-06
8.202167155e-06
1.184751608e-05
1.530927938e-05
1.851191972e-05
2.141572119e-05