/*--------------------------------*- C++ -*----------------------------------*\
| =========                 |                                                 |
| \\      /  F ield         | OpenFOAM: The Open Source CFD Toolbox           |
|  \\    /   O peration     | Version:  2.3.1                                 |
|   \\  /    A nd           | Web:      www.OpenFOAM.org                      |
|    \\/     M anipulation  |                                                 |
\*---------------------------------------------------------------------------*/
FoamFile
{
    version     2.0;
    format      ascii;
    class       dictionary;
    location    "constant";
    object      PM11;
}
// * * * * * * * * * * * * * * * * * * * * * * * * * * * * * * * * * * * * * //

PM11_table
101
(

101
(
-1.526983279e-12
-5.780692567e-14
4.348207986e-14
9.023358314e-14
8.471835336e-14
4.078766895e-14
1.176315931e-13
9.812247075e-14
1.129886299e-13
1.160239207e-13
1.277725607e-13
1.102206457e-13
1.515207144e-13
1.333908462e-13
1.249769398e-13
1.307567923e-13
1.442738381e-13
8.990750383e-14
1.438639632e-13
9.617354339e-14
7.884635065e-14
9.716950452e-14
7.729918215e-14
5.901374935e-14
4.701091893e-14
3.57189671e-14
2.445348068e-14
1.549337186e-14
5.926562252e-15
-2.569038073e-15
-9.941302112e-15
-1.282523371e-14
-2.958847478e-14
-3.187308064e-14
-3.473924748e-14
-3.900233574e-14
-3.833329532e-14
-4.148065084e-14
-5.548315161e-14
-6.212771309e-14
-5.164998029e-14
-5.847292509e-14
-6.191262729e-14
-5.537294012e-14
-6.084293665e-14
-5.943394534e-14
-6.436880351e-14
-6.369134406e-14
-6.709170931e-14
-6.487618267e-14
-6.458162963e-14
-6.480343152e-14
-6.364080205e-14
-6.149042454e-14
-5.995425687e-14
-6.778257356e-14
-5.972732829e-14
-6.238834947e-14
-6.052838892e-14
-6.088141261e-14
-5.954837832e-14
-5.710917007e-14
-5.67593332e-14
-5.562245779e-14
-5.492457675e-14
-5.316026181e-14
-5.134631357e-14
-5.194463917e-14
-5.004629727e-14
-4.887020311e-14
-4.830372737e-14
-4.915224823e-14
-4.606027141e-14
-4.310639921e-14
-3.627733663e-14
-3.376826624e-14
-3.443840397e-14
-3.307990204e-14
-3.056851183e-14
-2.836336336e-14
-2.907435708e-14
-2.75191495e-14
-2.729666502e-14
-2.170094738e-14
-1.778925956e-14
-1.733598831e-14
-1.669219716e-14
-1.605746322e-14
-1.722609044e-14
-1.104616175e-14
-9.100985379e-15
-1.089039276e-14
-8.771939798e-15
-8.615586181e-15
-5.214781079e-15
1.131983682e-14
2.540600607e-14
3.866873218e-20
-1.043060175e-28
-3.396769914e-30
2.077894027e-28
)


101
(
-1.506224967e-12
-4.610663825e-14
4.616390434e-14
7.170701619e-14
4.272825546e-14
-2.119758419e-14
3.184443632e-14
-1.033475673e-15
1.731199643e-15
-3.299003939e-15
2.21537846e-15
-1.583635754e-14
1.877787258e-14
4.045941177e-15
-8.635346863e-16
6.562505926e-15
2.152982034e-14
-1.660296551e-14
3.140433937e-14
1.216610211e-15
-4.12985139e-15
1.595281961e-14
9.13070268e-15
3.966991469e-15
2.324863424e-15
1.113712798e-15
-1.539313878e-16
-8.69014252e-17
-7.332014873e-16
-1.086460657e-15
-1.213982829e-15
8.411465001e-16
-5.473286488e-15
-3.003367572e-15
-2.903048454e-15
-2.387651809e-15
1.701759126e-16
2.687792266e-16
-5.386616e-15
-7.595571428e-15
-1.813480415e-15
-4.473542945e-15
-3.889751674e-15
-1.681419256e-16
-2.185691142e-15
-1.649122271e-16
-2.673546584e-15
-1.759118592e-15
-3.731149404e-15
-2.377151378e-15
-2.537704593e-15
-2.241127626e-15
-1.752937879e-15
-9.437482073e-16
-4.353456681e-16
-4.005279042e-15
-8.898874233e-16
-3.554691844e-15
-2.288611738e-15
-3.595872525e-15
-3.289501337e-15
-3.132187171e-15
-3.463053665e-15
-3.501626143e-15
-4.035143858e-15
-4.096015883e-15
-4.283976085e-15
-5.293085909e-15
-5.468370269e-15
-6.286770544e-15
-6.905334837e-15
-7.978179679e-15
-7.28251051e-15
-6.759769085e-15
-4.579183339e-15
-4.632186324e-15
-5.326997619e-15
-5.593324235e-15
-5.416518816e-15
-5.297311222e-15
-6.377553459e-15
-6.579356906e-15
-7.520828108e-15
-6.575145038e-15
-6.412111839e-15
-6.150818917e-15
-6.198149114e-15
-6.621200525e-15
-7.577636993e-15
-6.914299548e-15
-7.382843099e-15
-7.374460545e-15
-7.588163733e-15
-8.352131293e-15
2.188546917e-15
4.328923142e-14
1.812998144e-13
2.637020274e-13
2.6744737e-13
2.709191125e-13
2.716359692e-13
)


101
(
-1.485446059e-12
-3.628222274e-14
5.017897069e-14
7.297726078e-14
4.340748201e-14
-1.940610375e-14
2.73929608e-14
-9.166024247e-16
-5.254618212e-16
-5.423878361e-15
-1.373634726e-15
-1.727904865e-14
1.062765262e-14
1.185864803e-15
-4.887041785e-15
2.287111922e-16
1.327877465e-14
-1.547171422e-14
1.710734481e-14
9.437083346e-16
-7.425751657e-15
6.918968518e-15
5.885772467e-15
1.535242558e-15
-4.341089106e-16
-1.408153831e-15
-2.271623089e-15
-2.136786473e-15
-2.308164714e-15
-2.396054672e-15
-2.406184719e-15
-1.207487708e-15
-3.706188686e-15
-4.224307821e-15
-3.752943676e-15
-3.268752088e-15
-1.578067543e-15
-5.277952017e-16
-3.286664204e-15
-6.25566668e-15
-4.575704404e-15
-4.375095799e-15
-4.506510658e-15
-2.643793566e-15
-2.461240653e-15
-1.922355074e-15
-2.704766084e-15
-3.125990853e-15
-4.136780512e-15
-4.341637124e-15
-4.343063608e-15
-4.359854087e-15
-4.240295144e-15
-3.929278579e-15
-3.629208993e-15
-5.133139626e-15
-5.201963268e-15
-5.892156598e-15
-6.264438509e-15
-6.842617696e-15
-7.322928498e-15
-7.518729249e-15
-7.832988839e-15
-8.190223264e-15
-8.710378864e-15
-9.171656162e-15
-9.565932861e-15
-1.029056475e-14
-1.10215317e-14
-1.184363084e-14
-1.270216284e-14
-1.35775671e-14
-1.370580905e-14
-1.321642649e-14
-1.22102472e-14
-1.192826228e-14
-1.252698308e-14
-1.293138531e-14
-1.275186876e-14
-1.257231916e-14
-1.317996668e-14
-1.378119797e-14
-1.421069415e-14
-1.431995089e-14
-1.431229859e-14
-1.424336127e-14
-1.404798096e-14
-1.412290913e-14
-1.464680068e-14
-1.490120739e-14
-1.502787224e-14
-1.518727331e-14
-1.531546096e-14
-1.554454961e-14
5.277091567e-15
7.191137537e-14
3.371600543e-13
5.254770537e-13
5.324648332e-13
5.389426133e-13
5.403797609e-13
)


101
(
-1.464648359e-12
-2.661784491e-14
5.420322542e-14
7.42968457e-14
4.412545372e-14
-1.763713424e-14
2.3260055e-14
-1.040345601e-15
-2.602603957e-15
-7.520362765e-15
-4.794648386e-15
-1.889671299e-14
3.283541953e-15
-2.216732648e-15
-8.728876975e-15
-5.67686373e-15
5.44612103e-15
-1.58267571e-14
5.541684369e-15
-1.674146124e-15
-1.037417579e-14
-8.618884552e-16
1.487887576e-15
-1.270386169e-15
-3.199770711e-15
-4.025665184e-15
-4.530413093e-15
-4.262570938e-15
-4.019186738e-15
-3.792660205e-15
-3.573231176e-15
-2.753090218e-15
-3.379978978e-15
-4.324628125e-15
-4.276329207e-15
-3.843738193e-15
-2.648568221e-15
-1.351153333e-15
-2.265956277e-15
-4.595929252e-15
-4.941917117e-15
-4.499393462e-15
-4.432751456e-15
-3.498932082e-15
-2.77216517e-15
-2.398620685e-15
-2.590700575e-15
-3.13030733e-15
-3.886456893e-15
-4.517582986e-15
-4.795765105e-15
-4.984594666e-15
-5.099939276e-15
-5.115941751e-15
-5.08165103e-15
-5.785506645e-15
-6.53630931e-15
-7.125107097e-15
-7.777540518e-15
-8.379944737e-15
-9.0336282e-15
-9.540874225e-15
-1.000547586e-14
-1.050667566e-14
-1.108324367e-14
-1.169276453e-14
-1.227607001e-14
-1.299377905e-14
-1.386710109e-14
-1.482328175e-14
-1.579831328e-14
-1.664880407e-14
-1.695473978e-14
-1.660803556e-14
-1.602550495e-14
-1.59849834e-14
-1.664033781e-14
-1.716159063e-14
-1.704014224e-14
-1.679956889e-14
-1.716192916e-14
-1.769078809e-14
-1.794375742e-14
-1.813257215e-14
-1.831125966e-14
-1.842598537e-14
-1.825903518e-14
-1.801833979e-14
-1.793852005e-14
-1.80089263e-14
-1.816855498e-14
-1.809703048e-14
-1.777897794e-14
-1.691140897e-14
1.647042751e-14
1.117712544e-13
4.968155695e-13
7.867235816e-13
7.972516601e-13
8.069562658e-13
8.09053283e-13
)


101
(
-1.443833794e-12
-1.71151579e-14
5.823263984e-14
7.566332252e-14
4.488234206e-14
-1.588689762e-14
1.943411079e-14
-1.373073929e-15
-4.524130295e-15
-9.571621097e-15
-8.05220579e-15
-2.065142466e-14
-3.354139163e-15
-6.005564964e-15
-1.247568967e-14
-1.119583664e-14
-1.966273356e-15
-1.73656593e-14
-4.010524052e-15
-5.769286895e-15
-1.341354267e-14
-7.614464555e-15
-3.564127671e-15
-4.568020222e-15
-6.074918859e-15
-6.726364567e-15
-6.915195907e-15
-6.466173152e-15
-5.853906026e-15
-5.2813979e-15
-4.764785637e-15
-4.007385168e-15
-3.709570869e-15
-4.230543411e-15
-4.365627685e-15
-4.074777686e-15
-3.198604708e-15
-1.920427777e-15
-1.767827199e-15
-3.113115555e-15
-4.069319434e-15
-3.97947755e-15
-3.84069118e-15
-3.266758052e-15
-2.489334032e-15
-2.056350056e-15
-1.94114231e-15
-2.304638113e-15
-2.854163204e-15
-3.515195712e-15
-3.94437747e-15
-4.253664188e-15
-4.493173365e-15
-4.695542315e-15
-4.867684747e-15
-5.32105103e-15
-6.10901745e-15
-6.738621388e-15
-7.461489982e-15
-8.097085567e-15
-8.788208701e-15
-9.422934082e-15
-1.00144064e-14
-1.061282992e-14
-1.123795652e-14
-1.190378534e-14
-1.258636491e-14
-1.33491926e-14
-1.425929705e-14
-1.527366001e-14
-1.631792119e-14
-1.717058031e-14
-1.747806124e-14
-1.713548182e-14
-1.664421188e-14
-1.672772032e-14
-1.749788284e-14
-1.816380103e-14
-1.813741204e-14
-1.786624536e-14
-1.804435967e-14
-1.838855941e-14
-1.843255057e-14
-1.843268174e-14
-1.848491024e-14
-1.85824168e-14
-1.844589813e-14
-1.814431161e-14
-1.761078478e-14
-1.711809765e-14
-1.66551212e-14
-1.610245273e-14
-1.501036273e-14
-1.278615993e-14
3.014116177e-14
1.579119868e-13
6.59653768e-13
1.048582785e-12
1.062925389e-12
1.076242005e-12
1.079118046e-12
)


101
(
-1.423004212e-12
-7.775181796e-15
6.226282793e-14
7.707420071e-14
4.567808087e-14
-1.41527829e-14
1.590397396e-14
-1.885514946e-15
-6.311117483e-15
-1.156622536e-14
-1.115128515e-14
-2.251097284e-14
-9.372947115e-15
-1.005429899e-14
-1.618380512e-14
-1.637538968e-14
-8.968833791e-15
-1.983309974e-14
-1.209558479e-14
-1.073354922e-14
-1.675534694e-14
-1.358794304e-14
-8.918894752e-15
-8.346292595e-15
-9.145753959e-15
-9.522724328e-15
-9.415495397e-15
-8.752131925e-15
-7.79984586e-15
-6.867436766e-15
-6.009805932e-15
-5.115586083e-15
-4.317363303e-15
-4.229360962e-15
-4.215905404e-15
-3.982378542e-15
-3.293768533e-15
-2.123966511e-15
-1.409134875e-15
-1.864180503e-15
-2.669608952e-15
-2.784300661e-15
-2.681217989e-15
-2.237664619e-15
-1.487099194e-15
-9.82577937e-16
-6.591519365e-16
-7.899747342e-16
-1.1040618e-15
-1.623739173e-15
-2.02283837e-15
-2.339255255e-15
-2.595623479e-15
-2.84905786e-15
-3.11813287e-15
-3.501494316e-15
-4.209841126e-15
-4.796773666e-15
-5.498000654e-15
-6.098674267e-15
-6.740340012e-15
-7.364670068e-15
-7.977584296e-15
-8.60318149e-15
-9.234897452e-15
-9.888559287e-15
-1.056208529e-14
-1.129721316e-14
-1.217961426e-14
-1.317008874e-14
-1.4205574e-14
-1.501268734e-14
-1.524104596e-14
-1.478910459e-14
-1.421145799e-14
-1.425839317e-14
-1.500993046e-14
-1.566959911e-14
-1.568210609e-14
-1.542281418e-14
-1.551060937e-14
-1.564340309e-14
-1.538922772e-14
-1.508582125e-14
-1.482201567e-14
-1.461658839e-14
-1.430563858e-14
-1.383506445e-14
-1.293400261e-14
-1.185040699e-14
-1.048623573e-14
-8.98988692e-15
-6.993883741e-15
-2.994668823e-15
5.334492435e-14
2.077458682e-13
8.270776253e-13
1.311625467e-12
1.328409132e-12
1.343949321e-12
1.347436843e-12
)


101
(
-1.402161442e-12
1.397621979e-15
6.628932671e-14
7.852682906e-14
4.651227936e-14
-1.243271326e-14
1.265773179e-14
-2.551663397e-15
-7.98211134e-15
-1.349538695e-14
-1.409455523e-14
-2.444485167e-14
-1.484202318e-14
-1.425048296e-14
-1.987655266e-14
-2.124905117e-14
-1.556343255e-14
-2.299332578e-14
-1.911615311e-14
-1.613897137e-14
-2.045187385e-14
-1.900480058e-14
-1.433753712e-14
-1.251990728e-14
-1.24598013e-14
-1.243657728e-14
-1.202151868e-14
-1.111989407e-14
-9.846093213e-15
-8.550867476e-15
-7.324983513e-15
-6.172900796e-15
-5.04025511e-15
-4.37578709e-15
-4.000696736e-15
-3.647719479e-15
-3.023550619e-15
-1.953151882e-15
-9.612897351e-16
-7.423505855e-16
-1.097554015e-15
-1.136133813e-15
-1.020239695e-15
-6.014552732e-16
1.529041763e-16
7.385918356e-16
1.230980073e-15
1.325192948e-15
1.249345914e-15
9.391084691e-16
6.810621168e-16
4.580923442e-16
2.834331359e-16
9.554956233e-17
-1.514857343e-16
-4.755824921e-16
-1.079718788e-15
-1.574075812e-15
-2.192301419e-15
-2.69455625e-15
-3.21821961e-15
-3.728956833e-15
-4.250494676e-15
-4.80833087e-15
-5.376544528e-15
-5.949235214e-15
-6.518976644e-15
-7.129747365e-15
-7.876053604e-15
-8.732271695e-15
-9.65409719e-15
-1.032692056e-14
-1.037885356e-14
-9.702502202e-15
-8.895694205e-15
-8.744592338e-15
-9.299414885e-15
-9.775209844e-15
-9.662997847e-15
-9.313864364e-15
-9.303827217e-15
-9.192436825e-15
-8.577928665e-15
-7.855722788e-15
-7.143579457e-15
-6.39452676e-15
-5.616939472e-15
-4.780493439e-15
-3.552052686e-15
-1.800335575e-15
5.855302768e-16
3.346455097e-15
6.66793188e-15
1.267717037e-14
8.3235944e-14
2.649494109e-13
9.978196454e-13
1.57389028e-12
1.594384829e-12
1.613374435e-12
1.617559429e-12
)


101
(
-1.381307683e-12
2.743074231e-12
1.417764794e-12
8.001825957e-14
4.73839949e-14
-1.072554732e-14
9.682346133e-15
-3.349632838e-15
-9.554808913e-15
-1.53541156e-14
-1.688654616e-14
-2.642785125e-14
-1.982769085e-14
-1.851052893e-14
-2.357360758e-14
-2.586146828e-14
-2.176678633e-14
-2.666035668e-14
-2.537409366e-14
-2.171888584e-14
-2.448399361e-14
-2.404588935e-14
-1.968580451e-14
-1.698358577e-14
-1.603177325e-14
-1.549365891e-14
-1.473388018e-14
-1.357272006e-14
-1.19898002e-14
-1.03358922e-14
-8.728060695e-15
-7.243600106e-15
-5.823336781e-15
-4.657191076e-15
-3.832503891e-15
-3.202909909e-15
-2.497670881e-15
-1.456936129e-15
-3.269926796e-16
3.527484929e-16
4.945437712e-16
7.240240996e-16
9.673479719e-16
1.444418375e-15
2.244638005e-15
2.924442681e-15
3.565677361e-15
3.855989527e-15
3.993424219e-15
3.898208788e-15
3.813375004e-15
3.733944363e-15
3.695697728e-15
3.640383083e-15
3.506744466e-15
3.295807682e-15
2.816141528e-15
2.439331046e-15
1.96182002e-15
1.615652817e-15
1.275543416e-15
9.748791812e-16
6.625965922e-16
2.948785189e-16
-1.07809628e-16
-5.084533394e-16
-8.743522679e-16
-1.23817045e-15
-1.706999805e-15
-2.27885623e-15
-2.918850358e-15
-3.303278174e-15
-3.039897489e-15
-1.9984571e-15
-7.923857794e-16
-2.62744951e-16
-4.457008607e-16
-5.436932007e-16
-4.825920659e-17
6.295946266e-16
8.92779101e-16
1.304222361e-15
2.369279333e-15
3.629996515e-15
4.920952755e-15
6.339938261e-15
7.828331414e-15
9.367308535e-15
1.11306183e-14
1.353648044e-14
1.69389895e-14
2.129069478e-14
2.639383236e-14
3.466646781e-14
1.129490045e-13
3.292283757e-13
1.172519515e-12
1.836557601e-12
1.861499067e-12
1.887795627e-12
1.889233628e-12
)


101
(
-1.360444904e-12
2.751323383e-12
1.421311496e-12
8.154517884e-14
4.829232553e-14
-9.029451455e-15
6.966896148e-15
-4.256839964e-15
-1.104327896e-14
-1.713796444e-14
-1.953076314e-14
-2.84364221e-14
-2.438582766e-14
-2.276299802e-14
-2.727418676e-14
-3.02495396e-14
-2.759712201e-14
-3.067759263e-14
-3.108595176e-14
-2.730113128e-14
-2.878839448e-14
-2.885072291e-14
-2.489891404e-14
-2.163085482e-14
-1.985148304e-14
-1.872353914e-14
-1.757124367e-14
-1.612438876e-14
-1.423552951e-14
-1.222895023e-14
-1.023374571e-14
-8.373728173e-15
-6.662763637e-15
-5.056047927e-15
-3.773236509e-15
-2.768592306e-15
-1.853105146e-15
-7.509131834e-16
4.757422172e-16
1.461044737e-15
2.029595998e-15
2.592051415e-15
3.041650194e-15
3.632342401e-15
4.508983318e-15
5.288151325e-15
6.058615512e-15
6.513533908e-15
6.828316511e-15
6.916650189e-15
7.001678596e-15
7.088206293e-15
7.210184207e-15
7.328464991e-15
7.380007462e-15
7.352390828e-15
7.065830826e-15
6.886980496e-15
6.629340267e-15
6.528108452e-15
6.478760722e-15
6.514729713e-15
6.564788239e-15
6.56473316e-15
6.507652318e-15
6.441680218e-15
6.429686052e-15
6.479127567e-15
6.486786626e-15
6.425892044e-15
6.296909523e-15
6.413804633e-15
7.195585927e-15
8.804232035e-15
1.062560831e-14
1.17705901e-14
1.219333198e-14
1.271344175e-14
1.387039762e-14
1.518745324e-14
1.597952254e-14
1.685645283e-14
1.847214116e-14
2.038687053e-14
2.242671665e-14
2.463822287e-14
2.707417992e-14
2.960077795e-14
3.22225772e-14
3.536096925e-14
3.982307473e-14
4.584772175e-14
5.302376868e-14
6.383957726e-14
1.571967473e-13
4.053270113e-13
1.352149669e-12
2.102313047e-12
2.133903635e-12
2.174663652e-12
2.166876069e-12
)


101
(
-1.33957514e-12
2.789255846e-14
7.830029276e-14
9.792169418e-13
4.923528854e-14
-7.343205425e-15
4.501218435e-15
-5.250349992e-15
-1.246024865e-14
-1.884706425e-14
-2.203158918e-14
-3.044826382e-14
-2.85617404e-14
-2.694916412e-14
-3.096496367e-14
-3.443924828e-14
-3.307095815e-14
-3.491255075e-14
-3.640632288e-14
-3.278170898e-14
-3.328875598e-14
-3.351503888e-14
-2.995737798e-14
-2.637960183e-14
-2.389878459e-14
-2.215156506e-14
-2.055723315e-14
-1.879201479e-14
-1.659320851e-14
-1.423942016e-14
-1.185649815e-14
-9.598993755e-15
-7.580872839e-15
-5.573141903e-15
-3.863700844e-15
-2.448309388e-15
-1.233498695e-15
2.040045151e-17
1.348072581e-15
2.531497598e-15
3.415948886e-15
4.281471884e-15
4.955189799e-15
5.689932687e-15
6.659652012e-15
7.536803367e-15
8.422395873e-15
9.025864647e-15
9.501898443e-15
9.768665187e-15
1.004175791e-14
1.032556067e-14
1.066350691e-14
1.102937984e-14
1.136148825e-14
1.164368185e-14
1.169124097e-14
1.185153504e-14
1.195905436e-14
1.22598042e-14
1.266807648e-14
1.322229496e-14
1.384915536e-14
1.446383924e-14
1.501596523e-14
1.553702457e-14
1.611189745e-14
1.679381676e-14
1.751753947e-14
1.824804921e-14
1.893825807e-14
1.986227825e-14
2.144329097e-14
1.524096117e-14
2.65924421e-14
2.865869554e-14
2.999904168e-14
3.143286198e-14
3.354152828e-14
3.584869459e-14
3.755445521e-14
3.922132163e-14
4.156528303e-14
4.430696154e-14
4.729771154e-14
5.051699375e-14
5.410471957e-14
5.785415748e-14
6.170964451e-14
6.576654291e-14
7.136025423e-14
7.907753746e-14
8.861336301e-14
1.02262493e-13
2.109848143e-13
4.875535872e-13
1.538451975e-12
2.377544206e-12
2.419116095e-12
2.470599287e-12
2.458478649e-12
)


101
(
-1.318700703e-12
3.637307598e-14
8.226429734e-14
9.801878699e-13
5.02110118e-14
-5.665252448e-15
2.276103771e-15
-6.307934201e-15
-1.381547158e-14
-2.048311274e-14
-2.439214081e-14
-3.244383112e-14
-3.239197019e-14
-3.102719489e-14
-3.46306367e-14
-3.84497016e-14
-3.820518446e-14
-3.926018215e-14
-4.143088565e-14
-3.811158876e-14
-3.790878484e-14
-3.809137016e-14
-3.486616331e-14
-3.116120099e-14
-2.813028128e-14
-2.578080814e-14
-2.370602101e-14
-2.158834853e-14
-1.907239746e-14
-1.637863772e-14
-1.361450929e-14
-1.095327291e-14
-8.614855508e-15
-6.230540732e-15
-4.138859108e-15
-2.324971515e-15
-7.747023602e-16
6.848306636e-16
2.127595528e-15
3.451754084e-15
4.554898618e-15
5.653902663e-15
6.537520258e-15
7.422781669e-15
8.498596578e-15
9.493765001e-15
1.051784864e-14
1.129509175e-14
1.197630065e-14
1.247249982e-14
1.300194076e-14
1.357079493e-14
1.423142066e-14
1.496957645e-14
1.573472047e-14
1.651152698e-14
1.708548777e-14
1.779623324e-14
1.847796411e-14
1.939284763e-14
2.047885163e-14
2.178179007e-14
2.323527783e-14
2.474375899e-14
2.622228103e-14
2.765671886e-14
2.911857725e-14
3.071064807e-14
3.243002883e-14
3.426165221e-14
3.61202419e-14
3.821900225e-14
4.095862592e-14
3.584578349e-14
3.991175361e-14
5.18325437e-14
5.446743358e-14
5.721187247e-14
6.063593584e-14
6.430620629e-14
6.738451328e-14
7.031123326e-14
7.376987316e-14
7.759311999e-14
8.180879875e-14
8.637539693e-14
9.137989779e-14
9.666658643e-14
1.021694224e-13
1.075963261e-13
1.143972085e-13
1.2390696e-13
1.36140228e-13
1.529463871e-13
2.738320791e-13
5.822965605e-13
1.735126716e-12
2.659607716e-12
2.706223505e-12
2.772795934e-12
2.757320615e-12
)


101
(
-1.297823991e-12
4.467415636e-14
8.61994438e-14
8.629782597e-14
5.12175559e-14
-3.99423811e-15
2.822615755e-16
-7.409868671e-15
-1.511703661e-14
-2.204748776e-14
-2.661546749e-14
-3.44070747e-14
-3.590844918e-14
-3.496297225e-14
-3.825248446e-14
-4.229662422e-14
-4.302313918e-14
-4.363343668e-14
-4.623102471e-14
-4.326801498e-14
-4.258219821e-14
-4.261808126e-14
-3.963355888e-14
-3.591621722e-14
-3.248257163e-14
-2.958446487e-14
-2.701515862e-14
-2.452010978e-14
-2.168178949e-14
-1.865971972e-14
-1.552956705e-14
-1.247181156e-14
-9.809324475e-15
-7.067352542e-15
-4.640595481e-15
-2.470935847e-15
-5.950312892e-16
1.093332485e-15
2.6727465e-15
4.111447005e-15
5.369424475e-15
6.649642607e-15
7.732844685e-15
8.78455718e-15
1.000212988e-14
1.116034324e-14
1.238287761e-14
1.342305592e-14
1.441027197e-14
1.524781676e-14
1.615284466e-14
1.714081596e-14
1.827762631e-14
1.955588385e-14
2.094426479e-14
2.242130118e-14
2.375718475e-14
2.526130314e-14
2.67618394e-14
2.853871619e-14
3.054411697e-14
3.283873625e-14
3.537530956e-14
3.806273463e-14
4.079042964e-14
4.349661248e-14
4.620529049e-14
4.903527962e-14
5.205058434e-14
6.470929821e-14
6.793142958e-14
6.235875957e-14
6.667411311e-14
7.185740578e-14
6.873637515e-14
8.240601235e-14
8.67665326e-14
9.125820865e-14
9.648277421e-14
1.019724241e-13
1.069019926e-13
1.116695859e-13
1.168349943e-13
1.221447564e-13
1.279680234e-13
1.343434017e-13
1.412454239e-13
1.484892023e-13
1.561208615e-13
1.635008288e-13
1.719176447e-13
1.835760201e-13
1.989135403e-13
2.193701964e-13
3.527307992e-13
6.930631223e-13
1.945941533e-12
2.955796026e-12
3.01257554e-12
3.102029784e-12
3.08125572e-12
)


101
(
-1.276946742e-12
2.782551949e-12
9.009982546e-14
8.792522639e-14
5.225273077e-14
-2.328888525e-15
-1.488545948e-15
-8.536738315e-15
-1.637247543e-14
-2.354292529e-14
-2.870378999e-14
-3.632157775e-14
-3.913975704e-14
-3.87271867e-14
-4.180443782e-14
-4.599128637e-14
-4.754694508e-14
-4.796888062e-14
-5.085478625e-14
-4.824997454e-14
-4.725745261e-14
-4.709806936e-14
-4.426099999e-14
-4.059838495e-14
-3.68918019e-14
-3.352212198e-14
-3.047516824e-14
-2.759406594e-14
-2.443378886e-14
-2.109983308e-14
-1.762632161e-14
-1.419139463e-14
-1.121359932e-14
-8.133254221e-15
-5.414647585e-15
-2.941918945e-15
-7.719513235e-16
1.148063091e-15
2.883010544e-15
4.445436702e-15
5.84960289e-15
7.297730276e-15
8.586075458e-15
9.846530251e-15
1.12681178e-14
1.267225981e-14
1.419668561e-14
1.561039435e-14
1.703457293e-14
1.837245728e-14
1.981172063e-14
2.138005986e-14
2.315944528e-14
2.515824263e-14
2.736132144e-14
2.974290224e-14
3.208188799e-14
3.462422542e-14
3.721031891e-14
4.009809636e-14
4.326724383e-14
4.680237166e-14
5.06701165e-14
5.479982673e-14
5.908755237e-14
6.341832446e-14
6.774509365e-14
7.218399833e-14
7.680320265e-14
9.128156789e-14
9.637425046e-14
9.26841502e-14
9.901059822e-14
1.06230012e-13
1.138547318e-13
1.209787238e-13
1.359771691e-13
1.342511718e-13
1.418124805e-13
1.496379483e-13
1.649539436e-13
1.641921305e-13
1.71743043e-13
1.792167112e-13
1.871574869e-13
1.958294362e-13
2.052425064e-13
2.187382456e-13
2.254653836e-13
2.391960969e-13
2.499215725e-13
2.606635122e-13
2.796417262e-13
3.045367461e-13
4.508628845e-13
8.232832472e-13
2.180088807e-12
3.281815952e-12
3.353591928e-12
3.451787023e-12
3.416741168e-12
)


101
(
-1.256070809e-12
2.789898914e-12
9.39596429e-14
8.956669706e-14
5.331414361e-14
-6.682766655e-16
-3.044709166e-15
-9.670862456e-15
-1.758709227e-14
-2.497237629e-14
-3.06602126e-14
-3.817495706e-14
-4.210857323e-14
-4.229897678e-14
-4.52641628e-14
-4.95415471e-14
-5.179584753e-14
-5.222269961e-14
-5.532200001e-14
-5.30649919e-14
-5.1895081e-14
-5.152841536e-14
-4.876320694e-14
-4.518672869e-14
-4.131976642e-14
-3.757110128e-14
-3.408619133e-14
-3.082162433e-14
-2.734225307e-14
-2.371641686e-14
-1.993085007e-14
-1.614980768e-14
-1.287515485e-14
-9.477389585e-15
-6.501947505e-15
-3.771826286e-15
-1.341082968e-15
8.086039067e-16
2.731076447e-15
4.455313265e-15
6.029221696e-15
7.669595874e-15
9.208298639e-15
1.075497062e-14
1.24733282e-14
1.421781972e-14
1.614736836e-14
1.806512852e-14
2.007483982e-14
2.206731467e-14
2.421012699e-14
2.653116017e-14
2.912120689e-14
3.200395655e-14
3.518521946e-14
3.866875942e-14
4.221777999e-14
4.604636515e-14
4.996691916e-14
5.421076147e-14
5.87883715e-14
6.379852095e-14
6.922940557e-14
7.505123519e-14
8.116957108e-14
8.742375032e-14
9.3753499e-14
1.201523469e-13
1.263692827e-13
1.137553203e-13
1.211882153e-13
1.291817072e-13
1.379345991e-13
1.476612167e-13
1.57855778e-13
1.762855273e-13
1.853506007e-13
1.862588308e-13
1.966765072e-13
2.074663193e-13
2.257977904e-13
2.280343352e-13
2.386861687e-13
2.569212163e-13
2.674704022e-13
2.712850442e-13
2.839270072e-13
3.007765971e-13
3.147002299e-13
3.283631074e-13
3.423271603e-13
3.565140972e-13
3.833329336e-13
4.136022523e-13
5.700687951e-13
9.785903925e-13
2.437105221e-12
3.607830342e-12
3.682350942e-12
3.799168375e-12
3.767842812e-12
)


101
(
-1.235198895e-12
6.845970782e-14
1.442108868e-12
9.121732426e-14
5.439913546e-14
9.882002759e-16
-4.395150931e-15
-1.079669522e-14
-1.876301183e-14
-2.633785051e-14
-3.249170169e-14
-3.99558674e-14
-4.483482748e-14
-4.566776763e-14
-4.861907431e-14
-5.295285723e-14
-5.579006691e-14
-5.634986537e-14
-5.963755113e-14
-5.769897819e-14
-5.645622979e-14
-5.590428817e-14
-5.315663522e-14
-4.967498591e-14
-4.574154949e-14
-4.171310074e-14
-3.784395946e-14
-3.420938409e-14
-3.041950204e-14
-2.652649746e-14
-2.246639957e-14
-1.837716731e-14
-1.483147717e-14
-1.113597535e-14
-7.924934788e-15
-4.964425121e-15
-2.29231941e-15
9.39424144e-17
2.240847872e-15
4.177932689e-15
5.980416431e-15
7.869081399e-15
9.725621533e-15
1.164239732e-14
1.376143859e-14
1.59602633e-14
1.840340706e-14
2.093144691e-14
2.365151529e-14
2.645022653e-14
2.945496776e-14
3.26935059e-14
3.62519576e-14
4.016616842e-14
4.447900891e-14
4.921217418e-14
5.414498386e-14
5.946447219e-14
6.493528529e-14
7.078389315e-14
7.699836436e-14
8.370028244e-14
9.09166882e-14
9.866928259e-14
1.068379482e-13
1.15292592e-13
1.239367826e-13
1.326974506e-13
1.615186559e-13
1.510170837e-13
1.609098207e-13
1.809290663e-13
1.830725031e-13
1.957364358e-13
2.089829122e-13
2.306365747e-13
2.428361144e-13
2.552864825e-13
2.605994451e-13
2.748586653e-13
2.886661437e-13
3.106642929e-13
3.170470399e-13
3.390498114e-13
3.530610138e-13
3.602825214e-13
3.766925955e-13
3.976634629e-13
4.159500091e-13
4.303149543e-13
4.521728231e-13
4.740402557e-13
5.023709742e-13
5.391448155e-13
7.101583153e-13
1.147863809e-12
2.6940089e-12
3.929740281e-12
4.010926965e-12
4.12474265e-12
4.13223959e-12
)


101
(
-1.214333547e-12
7.600382862e-14
1.445441552e-12
9.287208871e-14
5.550471108e-14
2.640840065e-15
-5.54845315e-15
-1.189973381e-14
-1.990058479e-14
-2.764136538e-14
-3.42054592e-14
-4.165353327e-14
-4.733560267e-14
-4.882812039e-14
-5.185551682e-14
-5.622794587e-14
-5.954470857e-14
-6.031360512e-14
-6.378129195e-14
-6.213241907e-14
-6.090421936e-14
-6.020793679e-14
-5.745379067e-14
-5.406162595e-14
-5.013430529e-14
-4.592610954e-14
-4.174095244e-14
-3.776735127e-14
-3.368158693e-14
-2.954547733e-14
-2.524967109e-14
-2.089425555e-14
-1.710596361e-14
-1.312579064e-14
-9.685571941e-15
-6.500782778e-15
-3.588880007e-15
-9.494180035e-16
1.463656081e-15
3.679818156e-15
5.778575819e-15
7.979433974e-15
1.022742097e-14
1.260525046e-14
1.523175131e-14
1.798687724e-14
2.10377873e-14
2.427659501e-14
2.780742375e-14
3.152015683e-14
3.55303373e-14
3.983706449e-14
4.450546902e-14
4.959564197e-14
5.515822542e-14
6.124784795e-14
6.769318265e-14
7.465161907e-14
8.186975277e-14
1.138089161e-13
9.759727753e-14
1.062059993e-13
1.15435173e-13
1.253239407e-13
1.357173191e-13
1.46608914e-13
1.578405822e-13
1.488296346e-13
1.809857845e-13
2.028616442e-13
2.056742658e-13
2.286746363e-13
2.244614271e-13
2.405599674e-13
2.663973418e-13
2.828733408e-13
3.074788532e-13
3.235533917e-13
3.324806168e-13
3.506169696e-13
3.767832565e-13
3.947933579e-13
4.053168627e-13
4.239508379e-13
4.49940057e-13
4.687024624e-13
4.816775568e-13
5.074061662e-13
5.306303496e-13
5.499548052e-13
5.806081782e-13
6.036447973e-13
6.34266709e-13
6.784216423e-13
8.680516608e-13
1.33478561e-12
2.968941798e-12
4.260258297e-12
4.355322903e-12
4.434181667e-12
4.468648215e-12
)


101
(
-1.193477261e-12
2.810784305e-12
1.052225577e-13
9.452585073e-14
5.662771388e-14
4.28961205e-15
-6.512530315e-15
-1.296666896e-14
-2.099715871e-14
-2.888247863e-14
-3.580706492e-14
-4.326148224e-14
-4.962376974e-14
-5.177570405e-14
-5.495598762e-14
-5.937076628e-14
-6.307047658e-14
-6.409068181e-14
-6.773869088e-14
-6.636096043e-14
-6.521997223e-14
-6.44413946e-14
-6.166583684e-14
-5.835182429e-14
-5.447864509e-14
-5.01835533e-14
-4.576351749e-14
-4.149825808e-14
-3.713903498e-14
-3.278154836e-14
-2.828406284e-14
-2.370224869e-14
-1.970052187e-14
-1.544702161e-14
-1.177071339e-14
-8.351308419e-15
-5.186266159e-15
-2.268107748e-15
4.552783031e-16
3.013196362e-15
5.476425001e-15
8.062437267e-15
1.076714844e-14
1.367674881e-14
1.689315941e-14
2.030407212e-14
2.406232613e-14
2.808095179e-14
3.249017555e-14
3.720556414e-14
4.23182864e-14
4.780915106e-14
5.372693662e-14
6.011608946e-14
6.703353114e-14
7.456721796e-14
8.261065706e-14
9.131168923e-14
1.004186192e-13
1.346878516e-13
1.442539328e-13
1.309052026e-13
1.423424538e-13
1.545072627e-13
1.673278637e-13
1.808471538e-13
1.948284513e-13
2.092337988e-13
2.239103895e-13
2.48972469e-13
2.645161493e-13
2.713368608e-13
2.797988655e-13
2.99347113e-13
3.198594112e-13
3.40390322e-13
3.692903584e-13
3.981140863e-13
4.108099983e-13
4.331743054e-13
4.639061358e-13
4.781781469e-13
5.094140474e-13
5.247912005e-13
5.55470854e-13
5.8629731e-13
6.035208883e-13
6.191680616e-13
6.589303985e-13
6.836574949e-13
7.127688482e-13
7.446705415e-13
7.814495464e-13
8.335139728e-13
1.035076001e-12
1.534721348e-12
3.247790338e-12
4.576431767e-12
4.689037739e-12
4.753005576e-12
4.801828552e-12
)


101
(
-1.172632483e-12
2.817343585e-12
1.088462249e-13
9.617330246e-14
7.347590767e-13
5.933365875e-15
-7.295998104e-15
-1.398662226e-14
-2.204769415e-14
-3.005668611e-14
-3.730304975e-14
-4.477800018e-14
-5.17150674e-14
-5.450878367e-14
-5.790060542e-14
-6.237037561e-14
-6.637119874e-14
-6.765920142e-14
-7.149889838e-14
-7.039786521e-14
-6.940500463e-14
-6.860404322e-14
-6.580132229e-14
-6.255320872e-14
-5.876168028e-14
-5.445729673e-14
-4.989403749e-14
-4.54017732e-14
-4.080166745e-14
-3.624049271e-14
-3.156669543e-14
-2.67940509e-14
-2.260552474e-14
-1.808863918e-14
-1.41640852e-14
-1.048906581e-14
-7.046622841e-15
-3.82093355e-15
4.472231039e-14
4.615385181e-14
5.101926884e-15
8.13149928e-15
1.134052204e-14
1.483347874e-14
1.870892867e-14
2.28528283e-14
2.739119616e-14
3.225722001e-14
3.759591437e-14