/*--------------------------------*- C++ -*----------------------------------*\
| =========                 |                                                 |
| \\      /  F ield         | OpenFOAM: The Open Source CFD Toolbox           |
|  \\    /   O peration     | Version:  2.3.1                                 |
|   \\  /    A nd           | Web:      www.OpenFOAM.org                      |
|    \\/     M anipulation  |                                                 |
\*---------------------------------------------------------------------------*/
FoamFile
{
    version     2.0;
    format      ascii;
    class       dictionary;
    location    "constant";
    object      PM12;
}
// * * * * * * * * * * * * * * * * * * * * * * * * * * * * * * * * * * * * * //

PM12_table
101
(

101
(
-10482.04543
-336.441781
-166.0441512
-110.8482761
-84.83529944
-69.94201847
-60.25557679
-53.44267855
-48.22160094
-44.03447532
-40.53721482
-37.5349761
-34.90285689
-32.55985196
-30.45573768
-28.54980653
-26.80528686
-25.19374067
-23.74265012
-22.34537796
-21.09490019
-19.94028781
-18.82727615
-17.81016329
-16.87462754
-16.00469519
-15.19635836
-14.44799517
-13.74625038
-13.09786923
-12.49457566
-11.93882111
-11.44246237
-10.9181873
-10.4674345
-10.04629776
-9.65618403
-9.300001856
-8.957169649
-8.623170146
-8.312324392
-8.039758885
-7.771278281
-7.520305538
-7.292235209
-7.070095133
-6.865316316
-6.666948793
-6.482675781
-6.305283441
-6.140553772
-5.983684593
-5.83501874
-5.69462346
-5.562343147
-5.437101361
-5.313306124
-5.201839266
-5.091721412
-4.989206706
-4.890157495
-4.79666332
-4.7079266
-4.622906005
-4.54206974
-4.464784293
-4.391496811
-4.32176069
-4.254608428
-4.191285093
-4.130702863
-4.072904132
-4.017083572
-3.964641718
-3.915167915
-3.868709315
-3.823613989
-3.780974162
-3.741037683
-3.7034483
-3.668119222
-3.634274131
-3.602918262
-3.573428207
-3.546160581
-3.520950024
-3.49781597
-3.476501585
-3.457112103
-3.439255985
-3.423655679
-3.409534463
-3.39702213
-3.38606777
-3.37646383
-3.36338752
-3.34466226
-3.300929997
-3.258164484
-3.216673909
-3.176028549
)


101
(
-10482.04545
-336.4055945
-166.0143257
-110.8072291
-84.78451409
-69.88868992
-60.2051143
-53.39663238
-48.18526164
-44.00850288
-40.52235655
-37.53120395
-34.90941933
-32.57717227
-30.48189283
-28.58409582
-26.8478067
-25.24458565
-23.79560668
-22.41021234
-21.15946742
-20.00724974
-18.90274011
-17.88636965
-16.95075511
-16.08154631
-15.27347592
-14.52441664
-13.8229452
-13.17301551
-12.56840962
-12.01024257
-11.50821703
-10.9933963
-10.5358439
-10.11168717
-9.718581023
-9.358318082
-9.015081691
-8.682514082
-8.370285622
-8.091662769
-7.82309929
-7.570487053
-7.338718665
-7.116059522
-6.9088269
-6.709907188
-6.523655976
-6.34548889
-6.178767056
-6.020559273
-5.870555531
-5.728676019
-5.594781977
-5.468066662
-5.344335708
-5.230419531
-5.119863806
-5.015870423
-4.916040371
-4.821385747
-4.731494651
-4.645571712
-4.563734684
-4.485565861
-4.411263803
-4.340550481
-4.272694427
-4.208382385
-4.146980304
-4.08843133
-4.032135784
-3.978855569
-3.928436419
-3.880914264
-3.835261139
-3.791938078
-3.75121975
-3.712866606
-3.676797718
-3.642488983
-3.610456572
-3.580386377
-3.552462143
-3.526565658
-3.502832253
-3.481004884
-3.461138591
-3.442832095
-3.426718366
-3.412067268
-3.399159673
-3.387792536
-3.377739211
-3.364179961
-3.344763373
-3.301042982
-3.258289596
-3.216816008
-3.176187489
)


101
(
-10482.04545
-336.3332514
-165.9549015
-110.7254845
-84.68311858
-69.78184458
-60.10360797
-53.30352641
-48.11105146
-43.95468227
-40.49047709
-37.52127188
-34.9201189
-32.60904864
-30.53168385
-28.65019673
-26.93026267
-25.34360548
-23.90023215
-22.53651177
-21.28788002
-20.14019896
-19.05115799
-18.03816713
-17.10300312
-16.23519555
-15.42787005
-14.67783517
-13.97677012
-13.32434724
-12.71716402
-12.15453698
-11.64240109
-11.14145058
-10.67518603
-10.24483836
-9.845714334
-9.477685359
-9.132218285
-8.801357458
-8.487239446
-8.198778985
-7.928142178
-7.672413733
-7.434245013
-7.209397719
-6.997795827
-6.797033566
-6.607257017
-6.427085493
-6.256827565
-6.095787169
-5.94307486
-5.798306031
-5.661287841
-5.531590369
-5.4071468
-5.289353585
-5.177219638
-5.070557515
-4.968889791
-4.872015542
-4.779860644
-4.692014884
-4.608185408
-4.528183268
-4.451898152
-4.379231072
-4.309809527
-4.243618457
-4.180507345
-4.120362171
-4.062880262
-4.008033194
-3.955869319
-3.906398163
-3.859399929
-3.814653887
-3.772374688
-3.732487782
-3.694937629
-3.659520485
-3.626175184
-3.594902119
-3.565703588
-3.538472145
-3.51344626
-3.490487397
-3.469609649
-3.450342527
-3.433214927
-3.417511671
-3.403654162
-3.391409719
-3.380391598
-3.365755038
-3.344937653
-3.301233803
-3.258496289
-3.21703845
-3.176425836
)


101
(
-10482.04545
-336.2610232
-165.8959848
-110.6444652
-84.58222558
-69.67500374
-60.0015789
-53.20940473
-48.03504216
-43.89862632
-40.45596915
-37.50841114
-34.9278178
-32.63744765
-30.57830247
-28.71315205
-27.00931669
-25.4389584
-24.00329621
-22.65780712
-21.41521972
-20.27187266
-19.19542952
-18.18849674
-17.25498226
-16.38849145
-15.58210104
-14.83169231
-14.13076077
-13.47675644
-12.86716548
-12.30068378
-11.78058555
-11.28520923
-10.816905
-10.38111942
-9.976311591
-9.601343538
-9.251513212
-8.920011961
-8.604864344
-8.310410515
-8.035449415
-7.776490593
-7.533497643
-7.305007915
-7.089649274
-6.886021629
-6.693215623
-6.510435867
-6.33722241
-6.173229065
-6.01775707
-5.870231733
-5.73031022
-5.597671781
-5.471296748
-5.350906721
-5.236423132
-5.127404117
-5.023556951
-4.924551867
-4.830217501
-4.740313973
-4.654497804
-4.572582773
-4.494376908
-4.419778345
-4.348582562
-4.280621251
-4.215743574
-4.153887821
-4.094881697
-4.038533716
-3.984798267
-3.933646986
-3.885074602
-3.838822584
-3.794989378
-3.753540161
-3.714482044
-3.677710495
-3.643057966
-3.610512551
-3.580057666
-3.551546528
-3.525175292
-3.500892098
-3.478854141
-3.45852179
-3.440347731
-3.423575191
-3.408569487
-3.395316677
-3.383239517
-3.367336111
-3.345084277
-3.30137952
-3.258640442
-3.217176362
-3.176557016
)


101
(
-10482.04449
-336.1888742
-165.8375617
-110.5641722
-84.48184542
-69.56818564
-59.89904876
-53.11429858
-47.95726844
-43.84035298
-40.41884316
-37.49262803
-34.93249304
-32.66241552
-30.62166437
-28.77292545
-27.08498419
-25.53065411
-24.10433728
-22.77476601
-21.54063555
-20.40221309
-19.33623897
-18.33669951
-17.40622655
-16.54136182
-15.7360708
-14.98575002
-14.28493281
-13.62995612
-13.01835598
-12.44853911
-11.92201161
-11.4275497
-10.95907223
-10.51974964
-10.11002929
-9.728917617
-9.373856577
-9.039823717
-8.723202294
-8.424840839
-8.145506345
-7.88288818
-7.635763146
-7.403351208
-7.18424307
-6.977346473
-6.781474211
-6.595864664
-6.419788685
-6.252878568
-6.094585703
-5.944323756
-5.801631076
-5.666167154
-5.537382815
-5.414589719
-5.297705518
-5.186317718
-5.080185755
-4.978977558
-4.882467229
-4.790454442
-4.702612086
-4.618741459
-4.538607973
-4.462082694
-4.389025001
-4.319262303
-4.252609644
-4.189005694
-4.128330488
-4.070377708
-4.015052189
-3.962295557
-3.912148972
-3.864355396
-3.81896557
-3.775923439
-3.735288016
-3.697043443
-3.661000533
-3.627118312
-3.595355404
-3.565550932
-3.537867956
-3.512201854
-3.488816926
-3.467297566
-3.447989158
-3.430083216
-3.413897354
-3.399452961
-3.3862429
-3.368953727
-3.345216803
-3.301495342
-3.258742868
-3.217284454
-3.176670522
)


101
(
-10482.04546
-336.116896
-165.7796798
-110.4846478
-84.38202202
-69.46143564
-59.79606178
-53.01825904
-47.87778442
-43.77989835
-40.3791257
-37.47394273
-34.93413718
-32.68399963
-30.66171655
-28.82948182
-27.15728072
-25.61871468
-24.20299081
-22.88783414
-21.66359469
-20.53101349
-19.47408691
-18.48246093
-17.55627495
-16.69363027
-15.88968372
-15.13982034
-14.43922993
-13.78372969
-13.1706035
-12.59798117
-12.06617449
-11.57010951
-11.10131258
-10.65991939
-10.24630422
-9.859950789
-9.49956637
-9.161792244
-8.842817352
-8.541336095
-8.258113277
-7.991735395
-7.740743608
-7.504457195
-7.281580263
-7.071212961
-6.872138376
-6.683557784
-6.504587849
-6.334770415
-6.173611416
-6.020568733
-5.875135511
-5.736923592
-5.60557492
-5.480337794
-5.361054767
-5.247289731
-5.13882363
-5.035341781
-4.936604325
-4.842424835
-4.752498864
-4.666627237
-4.584541711
-4.506077865
-4.431109245
-4.359485296
-4.291019024
-4.225636204
-4.163229456
-4.103593154
-4.046613568
-3.992219239
-3.940473334
-3.891117836
-3.84417085
-3.799542827
-3.757287688
-3.717468265
-3.679938926
-3.644641242
-3.611510889
-3.580363035
-3.551340621
-3.524308464
-3.499479149
-3.476623518
-3.45607394
-3.436959262
-3.419562409
-3.403797096
-3.38936242
-3.370623456
-3.345322515
-3.301600705
-3.258848009
-3.21738925
-3.17677431
)


101
(
-10482.04545
-336.0449813
-165.722294
-110.4058725
-84.28275268
-69.35476122
-59.69263043
-52.92130888
-47.79661915
-43.71727539
-40.33682125
-37.45235276
-34.93272417
-32.70221725
-30.69840093
-28.8827632
-27.22619348
-25.70314576
-24.29894624
-22.99727371
-21.78375303
-20.65798632
-19.60928096
-18.62564701
-17.70471999
-16.84503219
-16.04280283
-15.29373524
-14.59354209
-13.9378702
-13.32370779
-12.74885247
-12.21272378
-11.71381266
-11.24386489
-10.80095337
-10.38448208
-9.993874851
-9.628558682
-9.286480274
-8.964341869
-8.65979224
-8.373043165
-8.103013189
-7.848309176
-7.60825927
-7.381639574
-7.167700835
-6.965295787
-6.773625888
-6.591709194
-6.418976324
-6.254918524
-6.099035585
-5.950825034
-5.809867054
-5.675883202
-5.548142298
-5.426438202
-5.310291936
-5.199473723
-5.093674653
-4.992654305
-4.89624056
-4.804155267
-4.716218313
-4.632142136
-4.551722106
-4.474812434
-4.401273185
-4.330936708
-4.263726814
-4.199539731
-4.138166396
-4.079479466
-4.023393733
-3.969989182
-3.919024068
-3.870499157
-3.824287061
-3.780413378
-3.738954992
-3.699840436
-3.663030188
-3.628451043
-3.595898289
-3.565499153
-3.537070512
-3.510800112
-3.486474574
-3.464578486
-3.444162294
-3.425478065
-3.408340428
-3.392577012
-3.372379261
-3.345408181
-3.301698598
-3.258953912
-3.2174774
-3.176844697
)


101
(
-10482.04545
-335.973155
-165.6654211
-110.3278686
-84.18406678
-69.24819684
-59.58879116
-52.82349272
-47.71382219
-43.65251636
-40.29195217
-37.42787221
-34.92824595
-32.71709318
-30.73168411
-28.93272179
-27.29171199
-25.78395962
-24.39196474
-23.10322768
-21.90089416
-20.7828489
-19.74198259
-18.76622975
-17.85125048
-16.99527888
-16.19525557
-15.44734556
-14.74775599
-14.09219722
-13.47743832
-12.90093112
-12.36136116
-11.8591679
-11.38721512
-10.94272323
-10.52403781
-10.13008842
-9.760506592
-9.414089852
-9.088261797
-8.780400803
-8.490234214
-8.216667127
-7.958377895
-7.714693024
-7.484402485
-7.266859477
-7.061016559
-6.866131573
-6.681199326
-6.505544986
-6.338582602
-6.179818724
-6.028778067
-5.885033681
-5.748342512
-5.61801984
-5.49384261
-5.375295934
-5.262118395
-5.153982504
-5.050644069
-4.951936173
-4.857610166
-4.767520655
-4.68139028
-4.598983006
-4.520111969
-4.444619255
-4.372353414
-4.30325542
-4.237231019
-4.174070593
-4.113631928
-4.055810553
-4.00068781
-3.948048088
-3.897893406
-3.85006894
-3.80456716
-3.761451645
-3.720684912
-3.68227559
-3.646156518
-3.612113087
-3.580285428
-3.550415686
-3.522697342
-3.49683187
-3.473492771
-3.45168221
-3.431624209
-3.413076415
-3.395873583
-3.37414178
-3.345489967
-3.301773909
-3.259018109
-3.217505935
-3.176830267
)


101
(
-10482.04351
-335.9013508
-165.6090314
-110.2506274
-84.08597031
-69.14175712
-59.48456238
-52.72483846
-47.62943036
-43.5856426
-40.24453034
-37.40050465
-34.92068612
-32.72863674
-30.76153335
-28.97930239
-27.35381119
-25.86115881
-24.48185311
-23.20575634
-22.01486805
-20.90532741
-19.87223735
-18.90422257
-17.99563929
-17.14408037
-16.34682466
-15.60048345
-14.90174889
-14.24655112
-13.63157184
-13.05395713
-12.51175885
-12.00636966
-11.53182946
-11.08538341
-10.66470001
-10.26808227
-9.894961209
-9.54453144
-9.214836818
-8.903409683
-8.609767902
-8.332699538
-8.070896847
-7.823685263
-7.589824839
-7.368709135
-7.159372867
-6.961154382
-6.773090612
-6.594469403
-6.424616502
-6.262973041
-6.109070372
-5.962498761
-5.823031863
-5.690027805
-5.563290805
-5.442290186
-5.326728672
-5.21624622
-5.110577384
-5.009541276
-4.912904608
-4.820563824
-4.732283615
-4.647825495
-4.566965335
-4.489497732
-4.415258219
-4.344209385
-4.276278966
-4.211269493
-4.149030579
-4.089434852
-4.032544253
-3.978160597
-3.926310001
-3.876828034
-3.829665016
-3.784867759
-3.742410984
-3.702344059
-3.664610734
-3.628986412
-3.595644199
-3.564285757
-3.535069011
-3.507653033
-3.482765757
-3.459487019
-3.437969781
-3.417968971
-3.399238754
-3.375880448
-3.345566536
-3.3018197
-3.259023531
-3.217426289
-3.176640574
)


101
(
-10482.04352
-335.8296789
-165.5531879
-110.1742032
-83.98851756
-69.03549601
-59.3799952
-52.62540094
-47.54350855
-43.51670344
-40.19459237
-37.37027428
-34.91004825
-32.73686815
-30.78793764
-29.02246674
-27.41247282
-25.93475486
-24.56846872
-23.30487663
-22.12557654
-21.02518765
-20.00002076
-19.03964627
-18.13773192
-17.29117537
-16.49727736
-15.75297204
-15.05539342
-14.40079224
-13.7859053
-13.20766581
-12.66358904
-12.15539628
-11.67804582
-11.22923739
-10.80645036
-10.40751318
-10.03147111
-9.677533138
-9.34410167
-9.02899242
-8.731778979
-8.451175775
-8.185872197
-7.935196985
-7.697860139
-7.473232522
-7.260400263
-7.058779353
-6.867465673
-6.685772208
-6.512989824
-6.348483099
-6.191723493
-6.042303222
-5.900011207
-5.764240212
-5.634841089
-5.51129596
-5.39329143
-5.28043462
-5.172427079
-5.069054268
-4.970069578
-4.875393243
-4.784850435
-4.698240528
-4.615330031
-4.535862927
-4.459626175
-4.386576833
-4.316670554
-4.249736934
-4.185633142
-4.124213335
-4.065514967
-4.009329512
-3.955706425
-3.904506435
-3.855648416
-3.80913024
-3.764940584
-3.723160609
-3.683762649
-3.646481602
-3.611523726
-3.578627829
-3.547852095
-3.518860426
-3.492336292
-3.467524452
-3.444478471
-3.422960811
-3.402643171
-3.377641822
-3.34560459
-3.301792642
-3.25891752
-3.217190336
-3.176278965
)


101
(
-10482.04721
-335.7581931
-165.4979227
-110.0986293
-83.89174724
-68.92945479
-59.27512986
-52.52522463
-47.45611335
-43.44574301
-40.14216959
-37.33720008
-34.89633175
-32.74179783
-30.81088498
-29.0621748
-27.46766822
-26.00474722
-24.65170127
-23.40056367
-22.23293561
-21.1422242
-20.12525081
-19.1725036
-18.27742688
-17.43633895
-16.64637038
-15.904613
-15.20855077
-14.55479342
-13.94025979
-13.36179493
-12.81649348
-12.3060617
-11.82600175
-11.37457518
-10.94943894
-10.54824586
-10.16968976
-9.812749915
-9.475916508
-9.157209721
-8.856371697
-8.572181874
-8.303344089
-8.049208994
-7.808459526
-7.580403085
-7.364102743
-7.159048259
-6.964398476
-6.779521652
-6.603714151
-6.436307444
-6.276703045
-6.124440066
-5.979307812
-5.840710079
-5.708554604
-5.582359464
-5.461820296
-5.346527861
-5.236152403
-5.130439842
-5.02910369
-4.932051759
-4.839147689
-4.750263076
-4.665196595
-4.583670409
-4.505413462
-4.430337012
-4.358399997
-4.289463825
-4.223413122
-4.160101831
-4.099551881
-4.041525387
-3.98606026
-3.933059245
-3.882459956
-3.834189165
-3.788212926
-3.744651687
-3.70353183
-3.664552789
-3.62788481
-3.593370215
-3.561002843
-3.530375712
-3.502167664
-3.475741051
-3.451101122
-3.427994903
-3.406038148
-3.379353822
-3.345559296
-3.301641367
-3.258645257
-3.216755637
-3.175679742
)


101
(
-10482.04654
-335.6866365
-165.4431136
-110.0238361
-83.79561986
-68.82361073
-59.16995179
-52.42430547
-47.36725758
-43.37276556
-40.08725698
-37.30126792
-34.87950634
-32.74340395
-30.83033957
-29.0983642
-27.51934042
-26.07110814
-24.73144019
-23.49275876
-22.33685324
-21.25622732
-20.24778436
-19.30274656
-18.41463494
-17.57937308
-16.79385128
-16.05517264
-15.36104733
-14.70841765
-14.09446949
-13.51610313
-12.97012609
-12.45806515
-11.97564356
-11.52157729
-11.09387853
-10.690302
-10.30938896
-9.949848667
-9.610024978
-9.287972572
-8.983572436
-8.695776753
-8.423363338
-8.165730586
-7.921571444
-7.690147133
-7.470451518
-7.261977394
-7.063940173
-6.875780943
-6.696840408
-6.52644902
-6.363966083
-6.208868262
-6.060902938
-5.919457252
-5.784477768
-5.655532099
-5.532352459
-5.414532986
-5.301727768
-5.193651477
-5.089967341
-4.990541318
-4.895227166
-4.803957412
-4.71660254
-4.632914539
-4.552584621
-4.475459726
-4.401457794
-4.330454097
-4.262369654
-4.197084566
-4.134615111
-4.074704869
-4.017355751
-3.962476437
-3.910057371
-3.860003253
-3.812201252
-3.766783436
-3.72385002
-3.683142803
-3.644705775
-3.608461577
-3.57445404
-3.542143918
-3.512209884
-3.484083373
-3.457784329
-3.433015858
-3.409365706
-3.380934265
-3.345378178
-3.301313471
-3.258161165
-3.216119821
-3.174886223
)


101
(
-10482.04608
-335.6151179
-165.3888236
-109.9498776
-83.70019029
-68.71801871
-59.06451257
-52.32269716
-47.27700911
-43.29782714
-40.02989599
-37.26250644
-34.859583
-32.74169834
-30.84630175
-29.13100781
-27.56746136
-26.13383483
-24.80762338
-23.58141857
-22.43726733
-21.36704176
-20.36747971
-19.43031268
-18.54929336
-17.72013845
-16.93950699
-16.20442353
-15.51269945
-14.86153462
-14.24840944
-13.67039599
-13.12417619
-12.61106591
-12.12678265
-11.67029035
-11.2399577
-10.83381964
-10.45051694
-10.0885884
-9.746137107
-9.421089634
-9.113340456
-8.821988657
-8.545981042
-8.284807185
-8.037199864
-7.802418744
-7.579385694
-7.367541271
-7.166122313
-6.974621585
-6.792442939
-6.618961452
-6.453526037
-6.295563656
-6.144766585
-6.000482557
-5.862648167
-5.730876745
-5.60495634
-5.484500045
-5.369169287
-5.258667113
-5.152619524
-5.050830809
-4.953107791
-4.85939327
-4.769631968
-4.683649585
-4.601148237
-4.521929004
-4.445842623
-4.372733554
-4.302541304
-4.235186167
-4.170707632
-4.108847443
-4.049575546
-3.992763452
-3.93843505
-3.886540425
-3.836893072
-3.789564763
-3.744715619
-3.702207807
-3.661978738
-3.623911234
-3.588156989
-3.554143716
-3.52242631
-3.492523618
-3.464494301
-3.437986866
-3.412591853
-3.382361394
-3.34501734
-3.300796981
-3.25748935
-3.215362497
-3.17405526
)


101
(
-10482.04217
-335.5435001
-165.3349919
-109.8767255
-83.60545129
-68.61268317
-58.95882072
-52.22041441
-47.18540025
-43.22095369
-39.97010112
-37.22091883
-34.83654924
-32.7366674
-30.85875069
-29.16006106
-27.61198108
-26.192897
-24.88018644
-23.66648186
-22.53410316
-21.47451564
-20.48417046
-19.55509702
-18.68131751
-17.85849776
-17.08312755
-16.3521213
-15.66328875
-15.0139834
-14.40195322
-13.82451758
-13.27838532
-12.76471764
-12.27911746
-11.82059764
-11.38776385
-10.97897006
-10.5931276
-10.2288305
-9.883996022
-9.556307907
-9.245529727
-8.950782415
-8.671211351
-8.40647402
-8.155371257
-7.917202898
-7.690856862
-7.475692201
-7.270917964
-7.076068168
-6.890591886
-6.713915522
-6.545435123
-6.384545966
-6.230893616
-6.083770199
-5.94307838
-5.808442681
-5.6797003
-5.556504795
-5.438536245
-5.325509055
-5.217037973
-5.112876648
-5.012763203
-4.916599113
-4.824361401
-4.735957933
-4.651157628
-4.569756757
-4.491552316
-4.416321546
-4.343977443
-4.274464525
-4.207872758
-4.143972055
-4.082719634
-4.023932435
-3.967617721
-3.913789999
-3.862263084
-3.813006459
-3.766164194
-3.721741106
-3.679687615
-3.639748351
-3.602130437
-3.566363192
-3.532819627
-3.501063912
-3.47123359
-3.442907198
-3.415710868
-3.383646374
-3.344469943
-3.300137178
-3.256727962
-3.214625671
-3.173329821
)


101
(
-10482.03827
-335.4718975
-165.2816805
-109.8044338
-83.51145843
-68.50766033
-58.85293015
-52.1175116
-47.0924973
-43.14220401
-39.90792182
-37.1765378
-34.81042136
-32.72832352
-30.86769262
-29.18550777
-27.6528687
-26.24827671
-24.94908391
-23.74790348
-22.62730699
-21.57852945
-20.59770745
-19.67698827
-18.81062513
-17.9943397
-17.22453857
-16.49804065
-15.81259009
-15.16558778
-14.55497484
-13.97834142
-13.43255631
-12.91872297
-12.43231185
-11.97226107
-11.53724648
-11.12586453
-10.73735309
-10.37058253
-10.0234295
-9.693370644
-9.379916237
-9.082062159
-8.799046115
-8.53075274
-8.276127182
-8.034522765
-7.804846844
-7.586401357
-7.378318369
-7.180124609
-6.991326049
-6.811388982
-6.639759494
-6.475868236
-6.319316198
-6.169335038
-6.025786665
-5.88826797
-5.756646056
-5.630629985
-5.509922315
-5.394257006
-5.283257266
-5.176665257
-5.074158251
-4.975564889
-4.880836395
-4.789927284
-4.702697873
-4.618993009
-4.538595887
-4.461222005
-4.386715709
-4.314996094
-4.24619005
-4.180136891
-4.116823415
-4.056018292
-3.99766319
-3.941801396
-3.888318226
-3.837119949
-3.788249655
-3.741794369
-3.697841944
-3.656002816
-3.616435804
-3.578820217
-3.54340748
-3.509732255
-3.478043828
-3.447830305
-3.418764157
-3.38483749
-3.343794508
-3.299427032
-3.256012598
-3.214088064
-3.17298457
)


101
(
-10482.04606
-335.4006669
-165.2290745
-109.7331381
-83.41832994
-68.40305817
-58.74693911
-52.01408184
-46.99840161
-43.06167051
-39.84344061
-37.12942564
-34.78124357
-32.71670375
-30.87315883
-29.20735853
-27.69011593
-26.29996898
-25.01429496
-23.82565235
-22.71684324
-21.67899815
-20.70796133
-19.79587419
-18.9371375
-18.12757684
-17.36360068
-16.64197598
-15.9603708
-15.316148
-14.70733989
-14.13176749
-13.58653744
-13.07283651
-12.58604433
-12.12497125
-11.68822503
-11.2745018
-10.88332636
-10.51393615
-10.16438817
-9.832082514
-9.516255041
-9.215650249
-8.929433182
-8.657662893
-8.399508449
-8.154432704
-7.92138156
-7.699654434
-7.48830924
-7.286810161
-7.094679835
-6.911440783
-6.736582778
-6.569590149
-6.410078721
-6.257219091
-6.110808616
-5.970400131
-5.835866101
-5.706963393
-5.583430809
-5.465023066
-5.351378273
-5.242253232
-5.137300852
-5.036278339
-4.93907185
-4.845628549
-4.755870676
-4.66972793
-4.587018776
-4.507440253
-4.430767185
-4.356835698
-4.285756534
-4.217437054
-4.151949559
-4.089065975
-4.028642213
-3.970674286
-3.915128148
-3.861941225
-3.811032003
-3.76246001
-3.716499233
-3.672725599
-3.631151857
-3.591585104
-3.554264907
-3.518599131
-3.485001054
-3.452852345
-3.42184749
-3.38600167
-3.343082008
-3.298806915
-3.255528486
-3.213935079
-3.173216183
)


101
(
-10482.04606
-335.3291669
-165.1768834
-109.6626464
-83.32593563
-68.29878152
-58.64077108
-51.9100633
-46.90307277
-42.979317
-39.77662247
-37.07953832
-34.74895893
-32.70174687
-30.87508767
-29.22553815
-27.72363499
-26.34788904
-25.07572871
-23.89963498
-22.8026173
-21.77578163
-20.81474687
-19.91156634
-19.06070287
-18.25807259
-17.50014618
-16.78369914
-16.10635311
-15.46539138
-14.858835
-14.28465292
-13.74019585
-13.22684201
-12.74000225
-12.2783601
-11.84037917
-11.42472213
-11.03107031
-10.6589934
-10.30691219
-9.972307807
-9.654286234
-9.351278211
-9.06221331
-8.787163562
-8.525517276
-8.276951739
-8.040488997
-7.81545411
-7.600863674
-7.396105082
-7.200664787
-7.014102912
-6.835961793
-6.665780265
-6.50321944
-6.347433543
-6.198156026
-6.054869231
-5.917416412
-5.785578508
-5.659149765
-5.537908945
-5.421513792
-5.30974069
-5.202248011
-5.098754524
-4.999070547
-4.903094696
-4.810760768
-4.722067326
-4.636905235
-4.555005074
-4.476120152
-4.399991756
-4.326639472
-4.255978221
-4.188189583
-4.123126717
-4.060601118
-4.000498652
-3.942794327
-3.887532776
-3.834570168
-3.783841048
-3.735752617
-3.689988517
-3.646375387
-3.604765343
-3.565495936
-3.527780975
-3.492206947
-3.458090849
-3.425090751
-3.387281276
-3.342478705
-3.29844701
-3.255459833
-3.214318381
-3.17410087
)


101
(
-10482.03827
-335.2573814
-165.1250894
-109.5929718
-83.23430186
-68.19486428
-58.53446039
-51.80549229
-46.80655618
-42.89518446
-39.70750872
-37.02690606
-34.71358022
-32.68345234
-30.87347145
-29.24002313
-27.75338611
-26.39199748
-25.13333986
-23.96980791
-22.88458404
-21.86880242
-20.91793084
-20.02390843
-19.18118386
-18.38571812
-17.63405471
-16.92303697
-16.2502972
-15.61304982
-15.00922721
-14.43683354
-13.89341825
-13.38059802
-12.89394668
-12.43210319
-11.99337164
-11.5762788
-11.18050343
-10.80584214
-10.45111034
-10.114065
-9.793863346
-9.488696572
-9.197157109
-8.919148836
-8.654154831
-8.402109034
-8.162208778
-7.9338312
-7.715992343
-7.508012212
-7.309303062
-7.119422701
-6.937958751
-6.764515034
-6.598811474
-6.440026267
-6.287855086
-6.141697761
-6.001337703
-5.866548609
-5.737170904
-5.613025711
-5.493793781
-5.379265258
-5.2691197
-5.163072898
-5.060879724
-4.962370055
-4.867448196
-4.776138433
-4.688396917
-4.604023017
-4.522813147
-4.44446778
-4.368875346
-4.295867261
-4.225684412
-4.15830804
-4.093599726
-4.031352713
-3.971439829
-3.913998984
-3.858940563
-3.806051818
-3.755740378
-3.707896761
-3.662226881
-3.618504308
-3.577225174
-3.537433283
-3.499802819
-3.463688672
-3.428651979
-3.388858935
-3.342163977
-3.298512759
-3.255945858
-3.215337653
-3.175579297
)


101
(
-10482.04608
-335.1860397
-165.0740432
-109.524372
-83.14364143
-68.09149335
-58.42817462
-51.7005211
-46.70900356
-42.80941127
-39.63623025
-36.97164407
-34.67520115
-32.66189473
-30.86837319
-29.25085931
-27.77939456
-26.43231091
-25.18713855
-24.03618032
-22.96275028
-21.95804649
-21.01744228
-20.13279273
-19.29846825
-18.51042324
-17.76524847
-17.05988133
-16.39202773
-15.75888687
-15.15827749
-14.58813259
-14.04610053
-13.53403364
-13.04774309
-12.58596467
-12.14688634
-11.72885622
-11.33143477
-10.95448486
-10.59712273
-10.25749323
-9.934978591
-9.627728487
-9.33402983
-9.053452665
-8.785388743
-8.529953089
-8.286604721
-8.054849655
-7.83373844
-7.622559538
-7.420637954
-7.227471059
-7.042670955
-6.865897183
-6.696955788
-6.535077164
-6.379958579
-6.230931203
-6.087681883
-5.9499509
-5.817591749
-5.690484487
-5.568345504
-5.450972489
-5.338069313
-5.229365713
-5.124596257
-5.023531144
-4.926020184
-4.832069627
-4.741667961
-4.654678454
-4.570980961
-4.49031793
-4.412491609
-4.33718201
-4.264580052
-4.194775619
-4.127757529
-4.063321907
-4.001189179
-3.941479194
-3.884242735
-3.829195501
-3.776615599
-3.726583152
-3.678834518
-3.632951596
-3.589586405
-3.547701418
-3.507954933
-3.469798104
-3.432687671
-3.390885979
-3.34229779
-3.299143104
-3.257089897
-3.217047271
-3.177799065
)


101
(
-10482.04607
-335.1143712
-165.023393
-109.4566145
-83.05379535
-67.98855152
-58.32182005
-51.59507041
-46.61035966
-42.72194911
-39.56273547
-36.91370555
-34.63376021
-32.63700239
-30.85971964
-29.25796774
-27.80156943
-26.4687303
-25.23701802
-24.09864583
-23.03701743
-22.04340172
-21.11313513
-20.23802767
-19.41235138
-18.6319986
-17.8935647
-17.1940703
-16.53133302
-15.9026137
-15.30565814
-14.73825404
-14.19803469
-13.68701142
-13.20125533
-12.73972025
-12.30059815
-11.88207348
-11.48353041
-11.1047327
-10.74495398
-10.40269539
-10.07769973
-9.768282569
-9.472580754
-9.189804194
-8.919054713
-8.6604536
-8.413695076
-8.178539971
-7.954124028
-7.739745472
-7.534665997
-7.338282671
-7.150168747
-6.970033072
-6.797757051
-6.632667132
-6.474507562
-6.322580248
-6.176467868
-6.035822907
-5.900482898
-5.770366043
-5.645254119
-5.524967055
-5.409221101
-5.297758355
-5.190324403
-5.086655374
-4.986544894
-4.889951415
-4.796858093
-4.707159157
-4.620814008
-4.537668143
-4.45753217
-4.379947504
-4.304962168
-4.232680928
-4.163228576
-4.096502786
-4.032134709
-3.97010821
-3.910586212
-3.853346629
-3.798496637
-3.74617597
-3.696302292
-3.648225205
-3.602692432
-3.558688121
-3.516792944
-3.476537333
-3.437313324
-3.393496907
-3.343008384
-3.300423827
-3.258934878
-3.219453492
-3.180812569
)


101
(
-10482.04606
-335.0426069
-164.9733098
-109.3897943
-82.96485359
-67.88612631
-58.21547753
-51.48921637
-46.51070924
-42.63287971
-39.4870915
-36.85315727
-34.58930266
-32.60880094
-30.84752833
-29.26135732
-27.81990548
-26.5012371
-25.28294795
-24.15716241
-23.1073468
-22.12482733
-21.20494334
-20.339498
-19.52268422
-18.75029434
-18.01887328
-17.32548899
-16.66807991
-16.04403006
-15.45109175
-14.88691451
-14.34899856
-13.83939235
-13.35441096
-12.89326049
-12.45430069
-12.03561596
-11.63642737
-11.25631404
-10.89451616
-10.54975944
-10.22217867
-9.910416152
-9.612683446
-9.327955178
-9.05492859
-8.79352183
-8.543512541
-8.304952044
-8.077192251
-7.859597401
-7.651389949
-7.451874039
-7.260528369
-7.077041486
-6.901375241
-6.732950277
-6.571618875
-6.416702278
-6.267724355
-6.124204613
-5.985919426
-5.852785351
-5.724643285
-5.601373276
-5.482709358
-5.368400979
-5.258207251
-5.15185916
-5.04911023
-4.94987351
-4.854091187
-4.761647178
-4.672543342
-4.586739399
-4.50413684
-4.424226843
-4.346896061
-4.272150855
-4.200183318
-4.131040012
-4.064381839
-4.000020416
-3.938118182
-3.878604421
-3.821485557
-3.766808266
-3.714733762
-3.664435132
-3.616658162
-3.570484406
-3.526409272
-3.484000098
-3.442617755
-3.396759533
-3.344369565
-3.302380549
-3.261460861
-3.222545116
-3.184429681
)


101
(
-10482.04539
-334.9706551
-164.9237419
-109.3239245
-82.87684406
-67.78425487
-58.10918503
-51.38299727
-46.41010413
-42.5422551
-39.40934287
-36.7900341
-34.54185321
-32.57729719
-30.83179689
-29.26101733
-27.83437998
-26.52979748
-25.32488391
-24.21167448
-23.17368224
-22.20227088
-21.29279591
-20.43709478
-19.62931431
-18.86513834
-18.14101655
-17.4540065
-16.80214477
-16.18297064
-15.59432388
-15.03379216
-14.49869574
-13.99097728
-13.50709555
-13.04651032
-12.60784458
-12.18924365
-11.78978978
-11.40887698
-11.0455722
-10.69865291
-10.36854393
-10.05427642
-9.754352949
-9.467718538
-9.192750371
-8.92896309
-8.676021057
-8.434151685
-8.203009838
-7.982146514
-7.770806558
-7.568226449
-7.373762868
-7.18701694
-7.007959316
-6.836114703
-6.671467467
-6.513428925
-6.361514461
-6.21513615
-6.073948034
-5.937830381
-5.806638216
-5.680321598
-5.558661135
-5.441433382
-5.328392377
-5.219273579
-5.113819357
-5.011912351
-4.913452743
-4.818275095
-4.726369118
-4.637774298
-4.552524019
-4.47015903
-4.390450499
-4.313266117
-4.238754933
-4.167089096
-4.098044163
-4.031327128
-3.966980601
-3.905078168
-3.845661755
-3.788584658
-3.734210639
-3.681659619
-3.631576234
-3.583158406
-3.536845605
-3.492237273
-3.448647824
-3.400723699
-3.34641313
-3.305017387
-3.264654102
-3.226331971
-3.188712141
)


101
(
-10482.03689
-334.8982856
-164.8745158
-109.2589356
-82.78973384
-67.68292544
-58.002939
-51.27641441
-46.30856285
-42.45009808
-39.32950855
-36.72434142
-34.49141342
-32.5424788
-30.8125024
-29.2569162
-27.84495077
-26.55436202
-25.36276546
-24.26211198
-23.23595128
-22.27566075
-21.37661089
-20.53070577
-19.73208613