/*--------------------------------*- C++ -*----------------------------------*\
| =========                 |                                                 |
| \\      /  F ield         | OpenFOAM: The Open Source CFD Toolbox           |
|  \\    /   O peration     | Version:  2.3.1                                 |
|   \\  /    A nd           | Web:      www.OpenFOAM.org                      |
|    \\/     M anipulation  |                                                 |
\*---------------------------------------------------------------------------*/
FoamFile
{
    version     2.0;
    format      ascii;
    class       dictionary;
    location    "constant";
    object      PM1;
}
// * * * * * * * * * * * * * * * * * * * * * * * * * * * * * * * * * * * * * //

PM1_table
101
(

101
(
3.493356805e-05
3.493356805e-05
3.493356805e-05
3.493356805e-05
3.49335648e-05
3.493356805e-05
3.493356805e-05
3.493356805e-05
3.493356155e-05
3.493356155e-05
3.493357456e-05
3.493357456e-05
3.493357456e-05
3.493356155e-05
3.493354853e-05
3.493357456e-05
3.493357456e-05
3.493354853e-05
3.493357456e-05
3.493357456e-05
3.493357456e-05
3.493357456e-05
3.493354853e-05
3.493357456e-05
3.493357456e-05
3.493357456e-05
3.493354853e-05
3.493354853e-05
3.493360059e-05
3.493354853e-05
3.493354853e-05
3.493360059e-05
3.493354853e-05
3.493354853e-05
3.493360059e-05
3.493354853e-05
3.493354853e-05
3.493360059e-05
3.493360059e-05
3.493354853e-05
3.493354853e-05
3.493360059e-05
3.493354853e-05
3.493354853e-05
3.493360059e-05
3.493354853e-05
3.493354853e-05
3.493360059e-05
3.493354853e-05
3.493354853e-05
3.493360059e-05
3.493360059e-05
3.493360059e-05
3.493349648e-05
3.493349648e-05
3.493360059e-05
3.493360059e-05
3.493360059e-05
3.493360059e-05
3.493349648e-05
3.493349648e-05
3.493360059e-05
3.493360059e-05
3.493360059e-05
3.493360059e-05
3.493349648e-05
3.493349648e-05
3.493360059e-05
3.493360059e-05
3.493360059e-05
3.493360059e-05
3.493349648e-05
3.493349648e-05
3.493360059e-05
3.493360059e-05
3.493360059e-05
3.493360059e-05
3.493360059e-05
3.493349648e-05
3.493349648e-05
3.493360059e-05
3.493360059e-05
3.493360059e-05
3.493360059e-05
3.493349648e-05
3.493349648e-05
3.493360059e-05
3.493360059e-05
3.493360059e-05
3.493360059e-05
3.493349648e-05
3.493349648e-05
3.493360059e-05
3.493360059e-05
3.493360059e-05
3.493360059e-05
3.493349648e-05
3.493349648e-05
3.493360059e-05
3.493360059e-05
3.493360059e-05
)


101
(
3.493356805e-05
3.493356805e-05
3.493356805e-05
3.493356805e-05
3.49335648e-05
3.493356805e-05
3.493356805e-05
3.493356805e-05
3.493356155e-05
3.493356155e-05
3.493357456e-05
3.493357456e-05
3.493357456e-05
3.493356155e-05
3.493354853e-05
3.493357456e-05
3.493357456e-05
3.493354853e-05
3.493357456e-05
3.493357456e-05
3.493357456e-05
3.493357456e-05
3.493354853e-05
3.493357456e-05
3.493357456e-05
3.493357456e-05
3.493354853e-05
3.493354853e-05
3.493360059e-05
3.493354853e-05
3.493354853e-05
3.493360059e-05
3.493354853e-05
3.493354853e-05
3.493360059e-05
3.493354853e-05
3.493354853e-05
3.493360059e-05
3.493360059e-05
3.493354853e-05
3.493354853e-05
3.493360059e-05
3.493354853e-05
3.493354853e-05
3.493360059e-05
3.493354853e-05
3.493354853e-05
3.493360059e-05
3.493354853e-05
3.493354853e-05
3.493360059e-05
3.493360059e-05
3.493360059e-05
3.493349648e-05
3.493349648e-05
3.493360059e-05
3.493360059e-05
3.493360059e-05
3.493360059e-05
3.493349648e-05
3.493349648e-05
3.493360059e-05
3.493360059e-05
3.493360059e-05
3.493360059e-05
3.493349648e-05
3.493349648e-05
3.493360059e-05
3.493360059e-05
3.493360059e-05
3.493360059e-05
3.493349648e-05
3.493349648e-05
3.493360059e-05
3.493360059e-05
3.493360059e-05
3.493360059e-05
3.493360059e-05
3.493349648e-05
3.493349648e-05
3.493360059e-05
3.493360059e-05
3.493360059e-05
3.493360059e-05
3.493349648e-05
3.493349648e-05
3.493360059e-05
3.493360059e-05
3.493360059e-05
3.493360059e-05
3.493349648e-05
3.493349648e-05
3.493360059e-05
3.493360059e-05
3.493360059e-05
3.493360059e-05
3.493349648e-05
3.493349648e-05
3.493360059e-05
3.493360059e-05
3.493360059e-05
)


101
(
3.493356805e-05
3.493356805e-05
3.493356805e-05
3.493356805e-05
3.49335648e-05
3.493356805e-05
3.493356805e-05
3.493356805e-05
3.493356155e-05
3.493356155e-05
3.493357456e-05
3.493357456e-05
3.493357456e-05
3.493356155e-05
3.493354853e-05
3.493357456e-05
3.493357456e-05
3.493354853e-05
3.493357456e-05
3.493357456e-05
3.493357456e-05
3.493357456e-05
3.493354853e-05
3.493357456e-05
3.493357456e-05
3.493357456e-05
3.493354853e-05
3.493354853e-05
3.493360059e-05
3.493354853e-05
3.493354853e-05
3.493360059e-05
3.493354853e-05
3.493354853e-05
3.493360059e-05
3.493354853e-05
3.493354853e-05
3.493360059e-05
3.493360059e-05
3.493354853e-05
3.493354853e-05
3.493360059e-05
3.493354853e-05
3.493354853e-05
3.493360059e-05
3.493354853e-05
3.493354853e-05
3.493360059e-05
3.493354853e-05
3.493354853e-05
3.493360059e-05
3.493360059e-05
3.493360059e-05
3.493349648e-05
3.493349648e-05
3.493360059e-05
3.493360059e-05
3.493360059e-05
3.493360059e-05
3.493349648e-05
3.493349648e-05
3.493360059e-05
3.493360059e-05
3.493360059e-05
3.493360059e-05
3.493349648e-05
3.493349648e-05
3.493360059e-05
3.493360059e-05
3.493360059e-05
3.493360059e-05
3.493349648e-05
3.493349648e-05
3.493360059e-05
3.493360059e-05
3.493360059e-05
3.493360059e-05
3.493360059e-05
3.493349648e-05
3.493349648e-05
3.493360059e-05
3.493360059e-05
3.493360059e-05
3.493360059e-05
3.493349648e-05
3.493349648e-05
3.493360059e-05
3.493360059e-05
3.493360059e-05
3.493360059e-05
3.493349648e-05
3.493349648e-05
3.493360059e-05
3.493360059e-05
3.493360059e-05
3.493360059e-05
3.493349648e-05
3.493349648e-05
3.493360059e-05
3.493360059e-05
3.493360059e-05
)


101
(
3.493356805e-05
3.493356805e-05
3.493356805e-05
3.493356805e-05
3.49335648e-05
3.493356805e-05
3.493356805e-05
3.493356805e-05
3.493356155e-05
3.493356155e-05
3.493357456e-05
3.493357456e-05
3.493357456e-05
3.493356155e-05
3.493354853e-05
3.493357456e-05
3.493357456e-05
3.493354853e-05
3.493357456e-05
3.493357456e-05
3.493357456e-05
3.493357456e-05
3.493354853e-05
3.493357456e-05
3.493357456e-05
3.493357456e-05
3.493354853e-05
3.493354853e-05
3.493360059e-05
3.493354853e-05
3.493354853e-05
3.493360059e-05
3.493354853e-05
3.493354853e-05
3.493360059e-05
3.493354853e-05
3.493354853e-05
3.493360059e-05
3.493360059e-05
3.493354853e-05
3.493354853e-05
3.493360059e-05
3.493354853e-05
3.493354853e-05
3.493360059e-05
3.493354853e-05
3.493354853e-05
3.493360059e-05
3.493354853e-05
3.493354853e-05
3.493360059e-05
3.493360059e-05
3.493360059e-05
3.493349648e-05
3.493349648e-05
3.493360059e-05
3.493360059e-05
3.493360059e-05
3.493360059e-05
3.493349648e-05
3.493349648e-05
3.493360059e-05
3.493360059e-05
3.493360059e-05
3.493360059e-05
3.493349648e-05
3.493349648e-05
3.493360059e-05
3.493360059e-05
3.493360059e-05
3.493360059e-05
3.493349648e-05
3.493349648e-05
3.493360059e-05
3.493360059e-05
3.493360059e-05
3.493360059e-05
3.493360059e-05
3.493349648e-05
3.493349648e-05
3.493360059e-05
3.493360059e-05
3.493360059e-05
3.493360059e-05
3.493349648e-05
3.493349648e-05
3.493360059e-05
3.493360059e-05
3.493360059e-05
3.493360059e-05
3.493349648e-05
3.493349648e-05
3.493360059e-05
3.493360059e-05
3.493360059e-05
3.493360059e-05
3.493349648e-05
3.493349648e-05
3.493360059e-05
3.493360059e-05
3.493360059e-05
)


101
(
3.493356805e-05
3.493356805e-05
3.493356805e-05
3.493356805e-05
3.49335648e-05
3.493356805e-05
3.493356805e-05
3.493356805e-05
3.493356155e-05
3.493356155e-05
3.493357456e-05
3.493357456e-05
3.493357456e-05
3.493356155e-05
3.493354853e-05
3.493357456e-05
3.493357456e-05
3.493354853e-05
3.493357456e-05
3.493357456e-05
3.493357456e-05
3.493357456e-05
3.493354853e-05
3.493357456e-05
3.493357456e-05
3.493357456e-05
3.493354853e-05
3.493354853e-05
3.493360059e-05
3.493354853e-05
3.493354853e-05
3.493360059e-05
3.493354853e-05
3.493354853e-05
3.493360059e-05
3.493354853e-05
3.493354853e-05
3.493360059e-05
3.493360059e-05
3.493354853e-05
3.493354853e-05
3.493360059e-05
3.493354853e-05
3.493354853e-05
3.493360059e-05
3.493354853e-05
3.493354853e-05
3.493360059e-05
3.493354853e-05
3.493354853e-05
3.493360059e-05
3.493360059e-05
3.493360059e-05
3.493349648e-05
3.493349648e-05
3.493360059e-05
3.493360059e-05
3.493360059e-05
3.493360059e-05
3.493349648e-05
3.493349648e-05
3.493360059e-05
3.493360059e-05
3.493360059e-05
3.493360059e-05
3.493349648e-05
3.493349648e-05
3.493360059e-05
3.493360059e-05
3.493360059e-05
3.493360059e-05
3.493349648e-05
3.493349648e-05
3.493360059e-05
3.493360059e-05
3.493360059e-05
3.493360059e-05
3.493360059e-05
3.493349648e-05
3.493349648e-05
3.493360059e-05
3.493360059e-05
3.493360059e-05
3.493360059e-05
3.493349648e-05
3.493349648e-05
3.493360059e-05
3.493360059e-05
3.493360059e-05
3.493360059e-05
3.493349648e-05
3.493349648e-05
3.493360059e-05
3.493360059e-05
3.493360059e-05
3.493360059e-05
3.493349648e-05
3.493349648e-05
3.493360059e-05
3.493360059e-05
3.493360059e-05
)


101
(
3.493356805e-05
3.493356805e-05
3.493356805e-05
3.493356805e-05
3.49335648e-05
3.493356805e-05
3.493356805e-05
3.493356805e-05
3.493356155e-05
3.493356155e-05
3.493357456e-05
3.493357456e-05
3.493357456e-05
3.493356155e-05
3.493354853e-05
3.493357456e-05
3.493357456e-05
3.493354853e-05
3.493357456e-05
3.493357456e-05
3.493357456e-05
3.493357456e-05
3.493354853e-05
3.493357456e-05
3.493357456e-05
3.493357456e-05
3.493354853e-05
3.493354853e-05
3.493360059e-05
3.493354853e-05
3.493354853e-05
3.493360059e-05
3.493354853e-05
3.493354853e-05
3.493360059e-05
3.493354853e-05
3.493354853e-05
3.493360059e-05
3.493360059e-05
3.493354853e-05
3.493354853e-05
3.493360059e-05
3.493354853e-05
3.493354853e-05
3.493360059e-05
3.493354853e-05
3.493354853e-05
3.493360059e-05
3.493354853e-05
3.493354853e-05
3.493360059e-05
3.493360059e-05
3.493360059e-05
3.493349648e-05
3.493349648e-05
3.493360059e-05
3.493360059e-05
3.493360059e-05
3.493360059e-05
3.493349648e-05
3.493349648e-05
3.493360059e-05
3.493360059e-05
3.493360059e-05
3.493360059e-05
3.493349648e-05
3.493349648e-05
3.493360059e-05
3.493360059e-05
3.493360059e-05
3.493360059e-05
3.493349648e-05
3.493349648e-05
3.493360059e-05
3.493360059e-05
3.493360059e-05
3.493360059e-05
3.493360059e-05
3.493349648e-05
3.493349648e-05
3.493360059e-05
3.493360059e-05
3.493360059e-05
3.493360059e-05
3.493349648e-05
3.493349648e-05
3.493360059e-05
3.493360059e-05
3.493360059e-05
3.493360059e-05
3.493349648e-05
3.493349648e-05
3.493360059e-05
3.493360059e-05
3.493360059e-05
3.493360059e-05
3.493349648e-05
3.493349648e-05
3.493360059e-05
3.493360059e-05
3.493360059e-05
)


101
(
3.493356805e-05
3.493356805e-05
3.493356805e-05
3.493356805e-05
3.49335648e-05
3.493356805e-05
3.493356805e-05
3.493356805e-05
3.493356155e-05
3.493356155e-05
3.493357456e-05
3.493357456e-05
3.493357456e-05
3.493356155e-05
3.493354853e-05
3.493357456e-05
3.493357456e-05
3.493354853e-05
3.493357456e-05
3.493357456e-05
3.493357456e-05
3.493357456e-05
3.493354853e-05
3.493357456e-05
3.493357456e-05
3.493357456e-05
3.493354853e-05
3.493354853e-05
3.493360059e-05
3.493354853e-05
3.493354853e-05
3.493360059e-05
3.493354853e-05
3.493354853e-05
3.493360059e-05
3.493354853e-05
3.493354853e-05
3.493360059e-05
3.493360059e-05
3.493354853e-05
3.493354853e-05
3.493360059e-05
3.493354853e-05
3.493354853e-05
3.493360059e-05
3.493354853e-05
3.493354853e-05
3.493360059e-05
3.493354853e-05
3.493354853e-05
3.493360059e-05
3.493360059e-05
3.493360059e-05
3.493349648e-05
3.493349648e-05
3.493360059e-05
3.493360059e-05
3.493360059e-05
3.493360059e-05
3.493349648e-05
3.493349648e-05
3.493360059e-05
3.493360059e-05
3.493360059e-05
3.493360059e-05
3.493349648e-05
3.493349648e-05
3.493360059e-05
3.493360059e-05
3.493360059e-05
3.493360059e-05
3.493349648e-05
3.493349648e-05
3.493360059e-05
3.493360059e-05
3.493360059e-05
3.493360059e-05
3.493360059e-05
3.493349648e-05
3.493349648e-05
3.493360059e-05
3.493360059e-05
3.493360059e-05
3.493360059e-05
3.493349648e-05
3.493349648e-05
3.493360059e-05
3.493360059e-05
3.493360059e-05
3.493360059e-05
3.493349648e-05
3.493349648e-05
3.493360059e-05
3.493360059e-05
3.493360059e-05
3.493360059e-05
3.493349648e-05
3.493349648e-05
3.493360059e-05
3.493360059e-05
3.493360059e-05
)


101
(
3.493356805e-05
3.493356805e-05
3.493356805e-05
3.493356805e-05
3.49335648e-05
3.493356805e-05
3.493356805e-05
3.493356805e-05
3.493356155e-05
3.493356155e-05
3.493357456e-05
3.493357456e-05
3.493357456e-05
3.493356155e-05
3.493354853e-05
3.493357456e-05
3.493357456e-05
3.493354853e-05
3.493357456e-05
3.493357456e-05
3.493357456e-05
3.493357456e-05
3.493354853e-05
3.493357456e-05
3.493357456e-05
3.493357456e-05
3.493354853e-05
3.493354853e-05
3.493360059e-05
3.493354853e-05
3.493354853e-05
3.493360059e-05
3.493354853e-05
3.493354853e-05
3.493360059e-05
3.493354853e-05
3.493354853e-05
3.493360059e-05
3.493360059e-05
3.493354853e-05
3.493354853e-05
3.493360059e-05
3.493354853e-05
3.493354853e-05
3.493360059e-05
3.493354853e-05
3.493354853e-05
3.493360059e-05
3.493354853e-05
3.493354853e-05
3.493360059e-05
3.493360059e-05
3.493360059e-05
3.493349648e-05
3.493349648e-05
3.493360059e-05
3.493360059e-05
3.493360059e-05
3.493360059e-05
3.493349648e-05
3.493349648e-05
3.493360059e-05
3.493360059e-05
3.493360059e-05
3.493360059e-05
3.493349648e-05
3.493349648e-05
3.493360059e-05
3.493360059e-05
3.493360059e-05
3.493360059e-05
3.493349648e-05
3.493349648e-05
3.493360059e-05
3.493360059e-05
3.493360059e-05
3.493360059e-05
3.493360059e-05
3.493349648e-05
3.493349648e-05
3.493360059e-05
3.493360059e-05
3.493360059e-05
3.493360059e-05
3.493349648e-05
3.493349648e-05
3.493360059e-05
3.493360059e-05
3.493360059e-05
3.493360059e-05
3.493349648e-05
3.493349648e-05
3.493360059e-05
3.493360059e-05
3.493360059e-05
3.493360059e-05
3.493349648e-05
3.493349648e-05
3.493360059e-05
3.493360059e-05
3.493360059e-05
)


101
(
3.493356805e-05
3.493356805e-05
3.493356805e-05
3.493356805e-05
3.49335648e-05
3.493356805e-05
3.493356805e-05
3.493356805e-05
3.493356155e-05
3.493356155e-05
3.493357456e-05
3.493357456e-05
3.493357456e-05
3.493356155e-05
3.493354853e-05
3.493357456e-05
3.493357456e-05
3.493354853e-05
3.493357456e-05
3.493357456e-05
3.493357456e-05
3.493357456e-05
3.493354853e-05
3.493357456e-05
3.493357456e-05
3.493357456e-05
3.493354853e-05
3.493354853e-05
3.493360059e-05
3.493354853e-05
3.493354853e-05
3.493360059e-05
3.493354853e-05
3.493354853e-05
3.493360059e-05
3.493354853e-05
3.493354853e-05
3.493360059e-05
3.493360059e-05
3.493354853e-05
3.493354853e-05
3.493360059e-05
3.493354853e-05
3.493354853e-05
3.493360059e-05
3.493354853e-05
3.493354853e-05
3.493360059e-05
3.493354853e-05
3.493354853e-05
3.493360059e-05
3.493360059e-05
3.493360059e-05
3.493349648e-05
3.493349648e-05
3.493360059e-05
3.493360059e-05
3.493360059e-05
3.493360059e-05
3.493349648e-05
3.493349648e-05
3.493360059e-05
3.493360059e-05
3.493360059e-05
3.493360059e-05
3.493349648e-05
3.493349648e-05
3.493360059e-05
3.493360059e-05
3.493360059e-05
3.493360059e-05
3.493349648e-05
3.493349648e-05
3.493360059e-05
3.493360059e-05
3.493360059e-05
3.493360059e-05
3.493360059e-05
3.493349648e-05
3.493349648e-05
3.493360059e-05
3.493360059e-05
3.493360059e-05
3.493360059e-05
3.493349648e-05
3.493349648e-05
3.493360059e-05
3.493360059e-05
3.493360059e-05
3.493360059e-05
3.493349648e-05
3.493349648e-05
3.493360059e-05
3.493360059e-05
3.493360059e-05
3.493360059e-05
3.493349648e-05
3.493349648e-05
3.493360059e-05
3.493360059e-05
3.493360059e-05
)


101
(
3.493356805e-05
3.493356805e-05
3.493356805e-05
3.493356805e-05
3.49335648e-05
3.493356805e-05
3.493356805e-05
3.493356805e-05
3.493356155e-05
3.493356155e-05
3.493357456e-05
3.493357456e-05
3.493357456e-05
3.493356155e-05
3.493354853e-05
3.493357456e-05
3.493357456e-05
3.493354853e-05
3.493357456e-05
3.493357456e-05
3.493357456e-05
3.493357456e-05
3.493354853e-05
3.493357456e-05
3.493357456e-05
3.493357456e-05
3.493354853e-05
3.493354853e-05
3.493360059e-05
3.493354853e-05
3.493354853e-05
3.493360059e-05
3.493354853e-05
3.493354853e-05
3.493360059e-05
3.493354853e-05
3.493354853e-05
3.493360059e-05
3.493360059e-05
3.493354853e-05
3.493354853e-05
3.493360059e-05
3.493354853e-05
3.493354853e-05
3.493360059e-05
3.493354853e-05
3.493354853e-05
3.493360059e-05
3.493354853e-05
3.493354853e-05
3.493360059e-05
3.493360059e-05
3.493360059e-05
3.493349648e-05
3.493349648e-05
3.493360059e-05
3.493360059e-05
3.493360059e-05
3.493360059e-05
3.493349648e-05
3.493349648e-05
3.493360059e-05
3.493360059e-05
3.493360059e-05
3.493360059e-05
3.493349648e-05
3.493349648e-05
3.493360059e-05
3.493360059e-05
3.493360059e-05
3.493360059e-05
3.493349648e-05
3.493349648e-05
3.493360059e-05
3.493360059e-05
3.493360059e-05
3.493360059e-05
3.493360059e-05
3.493349648e-05
3.493349648e-05
3.493360059e-05
3.493360059e-05
3.493360059e-05
3.493360059e-05
3.493349648e-05
3.493349648e-05
3.493360059e-05
3.493360059e-05
3.493360059e-05
3.493360059e-05
3.493349648e-05
3.493349648e-05
3.493360059e-05
3.493360059e-05
3.493360059e-05
3.493360059e-05
3.493349648e-05
3.493349648e-05
3.493360059e-05
3.493360059e-05
3.493360059e-05
)


101
(
3.493356805e-05
3.493356805e-05
3.493356805e-05
3.493356805e-05
3.49335648e-05
3.493356805e-05
3.493356805e-05
3.493356805e-05
3.493356155e-05
3.493356155e-05
3.493357456e-05
3.493357456e-05
3.493357456e-05
3.493356155e-05
3.493354853e-05
3.493357456e-05
3.493357456e-05
3.493354853e-05
3.493357456e-05
3.493357456e-05
3.493357456e-05
3.493357456e-05
3.493354853e-05
3.493357456e-05
3.493357456e-05
3.493357456e-05
3.493354853e-05
3.493354853e-05
3.493360059e-05
3.493354853e-05
3.493354853e-05
3.493360059e-05
3.493354853e-05
3.493354853e-05
3.493360059e-05
3.493354853e-05
3.493354853e-05
3.493360059e-05
3.493360059e-05
3.493354853e-05
3.493354853e-05
3.493360059e-05
3.493354853e-05
3.493354853e-05
3.493360059e-05
3.493354853e-05
3.493354853e-05
3.493360059e-05
3.493354853e-05
3.493354853e-05
3.493360059e-05
3.493360059e-05
3.493360059e-05
3.493349648e-05
3.493349648e-05
3.493360059e-05
3.493360059e-05
3.493360059e-05
3.493360059e-05
3.493349648e-05
3.493349648e-05
3.493360059e-05
3.493360059e-05
3.493360059e-05
3.493360059e-05
3.493349648e-05
3.493349648e-05
3.493360059e-05
3.493360059e-05
3.493360059e-05
3.493360059e-05
3.493349648e-05
3.493349648e-05
3.493360059e-05
3.493360059e-05
3.493360059e-05
3.493360059e-05
3.493360059e-05
3.493349648e-05
3.493349648e-05
3.493360059e-05
3.493360059e-05
3.493360059e-05
3.493360059e-05
3.493349648e-05
3.493349648e-05
3.493360059e-05
3.493360059e-05
3.493360059e-05
3.493360059e-05
3.493349648e-05
3.493349648e-05
3.493360059e-05
3.493360059e-05
3.493360059e-05
3.493360059e-05
3.493349648e-05
3.493349648e-05
3.493360059e-05
3.493360059e-05
3.493360059e-05
)


101
(
3.493356805e-05
3.493356805e-05
3.493356805e-05
3.493356805e-05
3.49335648e-05
3.493356805e-05
3.493356805e-05
3.493356805e-05
3.493356155e-05
3.493356155e-05
3.493357456e-05
3.493357456e-05
3.493357456e-05
3.493356155e-05
3.493354853e-05
3.493357456e-05
3.493357456e-05
3.493354853e-05
3.493357456e-05
3.493357456e-05
3.493357456e-05
3.493357456e-05
3.493354853e-05
3.493357456e-05
3.493357456e-05
3.493357456e-05
3.493354853e-05
3.493354853e-05
3.493360059e-05
3.493354853e-05
3.493354853e-05
3.493360059e-05
3.493354853e-05
3.493354853e-05
3.493360059e-05
3.493354853e-05
3.493354853e-05
3.493360059e-05
3.493360059e-05
3.493354853e-05
3.493354853e-05
3.493360059e-05
3.493354853e-05
3.493354853e-05
3.493360059e-05
3.493354853e-05
3.493354853e-05
3.493360059e-05
3.493354853e-05
3.493354853e-05
3.493360059e-05
3.493360059e-05
3.493360059e-05
3.493349648e-05
3.493349648e-05
3.493360059e-05
3.493360059e-05
3.493360059e-05
3.493360059e-05
3.493349648e-05
3.493349648e-05
3.493360059e-05
3.493360059e-05
3.493360059e-05
3.493360059e-05
3.493349648e-05
3.493349648e-05
3.493360059e-05
3.493360059e-05
3.493360059e-05
3.493360059e-05
3.493349648e-05
3.493349648e-05
3.493360059e-05
3.493360059e-05
3.493360059e-05
3.493360059e-05
3.493360059e-05
3.493349648e-05
3.493349648e-05
3.493360059e-05
3.493360059e-05
3.493360059e-05
3.493360059e-05
3.493349648e-05
3.493349648e-05
3.493360059e-05
3.493360059e-05
3.493360059e-05
3.493360059e-05
3.493349648e-05
3.493349648e-05
3.493360059e-05
3.493360059e-05
3.493360059e-05
3.493360059e-05
3.493349648e-05
3.493349648e-05
3.493360059e-05
3.493360059e-05
3.493360059e-05
)


101
(
3.493356805e-05
3.493356805e-05
3.493356805e-05
3.493356805e-05
3.49335648e-05
3.493356805e-05
3.493356805e-05
3.493356805e-05
3.493356155e-05
3.493356155e-05
3.493357456e-05
3.493357456e-05
3.493357456e-05
3.493356155e-05
3.493354853e-05
3.493357456e-05
3.493357456e-05
3.493354853e-05
3.493357456e-05
3.493357456e-05
3.493357456e-05
3.493357456e-05
3.493354853e-05
3.493357456e-05
3.493357456e-05
3.493357456e-05
3.493354853e-05
3.493354853e-05
3.493360059e-05
3.493354853e-05
3.493354853e-05
3.493360059e-05
3.493354853e-05
3.493354853e-05
3.493360059e-05
3.493354853e-05
3.493354853e-05
3.493360059e-05
3.493360059e-05
3.493354853e-05
3.493354853e-05
3.493360059e-05
3.493354853e-05
3.493354853e-05
3.493360059e-05
3.493354853e-05
3.493354853e-05
3.493360059e-05
3.493354853e-05
3.493354853e-05
3.493360059e-05
3.493360059e-05
3.493360059e-05
3.493349648e-05
3.493349648e-05
3.493360059e-05
3.493360059e-05
3.493360059e-05
3.493360059e-05
3.493349648e-05
3.493349648e-05
3.493360059e-05
3.493360059e-05
3.493360059e-05
3.493360059e-05
3.493349648e-05
3.493349648e-05
3.493360059e-05
3.493360059e-05
3.493360059e-05
3.493360059e-05
3.493349648e-05
3.493349648e-05
3.493360059e-05
3.493360059e-05
3.493360059e-05
3.493360059e-05
3.493360059e-05
3.493349648e-05
3.493349648e-05
3.493360059e-05
3.493360059e-05
3.493360059e-05
3.493360059e-05
3.493349648e-05
3.493349648e-05
3.493360059e-05
3.493360059e-05
3.493360059e-05
3.493360059e-05
3.493349648e-05
3.493349648e-05
3.493360059e-05
3.493360059e-05
3.493360059e-05
3.493360059e-05
3.493349648e-05
3.493349648e-05
3.493360059e-05
3.493360059e-05
3.493360059e-05
)


101
(
3.493356805e-05
3.493356805e-05
3.493356805e-05
3.493356805e-05
3.49335648e-05
3.493356805e-05
3.493356805e-05
3.493356805e-05
3.493356155e-05
3.493356155e-05
3.493357456e-05
3.493357456e-05
3.493357456e-05
3.493356155e-05
3.493354853e-05
3.493357456e-05
3.493357456e-05
3.493354853e-05
3.493357456e-05
3.493357456e-05
3.493357456e-05
3.493357456e-05
3.493354853e-05
3.493357456e-05
3.493357456e-05
3.493357456e-05
3.493354853e-05
3.493354853e-05
3.493360059e-05
3.493354853e-05
3.493354853e-05
3.493360059e-05
3.493354853e-05
3.493354853e-05
3.493360059e-05
3.493354853e-05
3.493354853e-05
3.493360059e-05
3.493360059e-05
3.493354853e-05
3.493354853e-05
3.493360059e-05
3.493354853e-05
3.493354853e-05
3.493360059e-05
3.493354853e-05
3.493354853e-05
3.493360059e-05
3.493354853e-05
3.493354853e-05
3.493360059e-05
3.493360059e-05
3.493360059e-05
3.493349648e-05
3.493349648e-05
3.493360059e-05
3.493360059e-05
3.493360059e-05
3.493360059e-05
3.493349648e-05
3.493349648e-05
3.493360059e-05
3.493360059e-05
3.493360059e-05
3.493360059e-05
3.493349648e-05
3.493349648e-05
3.493360059e-05
3.493360059e-05
3.493360059e-05
3.493360059e-05
3.493349648e-05
3.493349648e-05
3.493360059e-05
3.493360059e-05
3.493360059e-05
3.493360059e-05
3.493360059e-05
3.493349648e-05
3.493349648e-05
3.493360059e-05
3.493360059e-05
3.493360059e-05
3.493360059e-05
3.493349648e-05
3.493349648e-05
3.493360059e-05
3.493360059e-05
3.493360059e-05
3.493360059e-05
3.493349648e-05
3.493349648e-05
3.493360059e-05
3.493360059e-05
3.493360059e-05
3.493360059e-05
3.493349648e-05
3.493349648e-05
3.493360059e-05
3.493360059e-05
3.493360059e-05
)


101
(
3.493356805e-05
3.493356805e-05
3.493356805e-05
3.493356805e-05
3.49335648e-05
3.493356805e-05
3.493356805e-05
3.493356805e-05
3.493356155e-05
3.493356155e-05
3.493357456e-05
3.493357456e-05
3.493357456e-05
3.493356155e-05
3.493354853e-05
3.493357456e-05
3.493357456e-05
3.493354853e-05
3.493357456e-05
3.493357456e-05
3.493357456e-05
3.493357456e-05
3.493354853e-05
3.493357456e-05
3.493357456e-05
3.493357456e-05
3.493354853e-05
3.493354853e-05
3.493360059e-05
3.493354853e-05
3.493354853e-05
3.493360059e-05
3.493354853e-05
3.493354853e-05
3.493360059e-05
3.493354853e-05
3.493354853e-05
3.493360059e-05
3.493360059e-05
3.493354853e-05
3.493354853e-05
3.493360059e-05
3.493354853e-05
3.493354853e-05
3.493360059e-05
3.493354853e-05
3.493354853e-05
3.493360059e-05
3.493354853e-05
3.493354853e-05
3.493360059e-05
3.493360059e-05
3.493360059e-05
3.493349648e-05
3.493349648e-05
3.493360059e-05
3.493360059e-05
3.493360059e-05
3.493360059e-05
3.493349648e-05
3.493349648e-05
3.493360059e-05
3.493360059e-05
3.493360059e-05
3.493360059e-05
3.493349648e-05
3.493349648e-05
3.493360059e-05
3.493360059e-05
3.493360059e-05
3.493360059e-05
3.493349648e-05
3.493349648e-05
3.493360059e-05
3.493360059e-05
3.493360059e-05
3.493360059e-05
3.493360059e-05
3.493349648e-05
3.493349648e-05
3.493360059e-05
3.493360059e-05
3.493360059e-05
3.493360059e-05
3.493349648e-05
3.493349648e-05
3.493360059e-05
3.493360059e-05
3.493360059e-05
3.493360059e-05
3.493349648e-05
3.493349648e-05
3.493360059e-05
3.493360059e-05
3.493360059e-05
3.493360059e-05
3.493349648e-05
3.493349648e-05
3.493360059e-05
3.493360059e-05
3.493360059e-05
)


101
(
3.493356805e-05
3.493356805e-05
3.493356805e-05
3.493356805e-05
3.49335648e-05
3.493356805e-05
3.493356805e-05
3.493356805e-05
3.493356155e-05
3.493356155e-05
3.493357456e-05
3.493357456e-05
3.493357456e-05
3.493356155e-05
3.493354853e-05
3.493357456e-05
3.493357456e-05
3.493354853e-05
3.493357456e-05
3.493357456e-05
3.493357456e-05
3.493357456e-05
3.493354853e-05
3.493357456e-05
3.493357456e-05
3.493357456e-05
3.493354853e-05
3.493354853e-05
3.493360059e-05
3.493354853e-05
3.493354853e-05
3.493360059e-05
3.493354853e-05
3.493354853e-05
3.493360059e-05
3.493354853e-05
3.493354853e-05
3.493360059e-05
3.493360059e-05
3.493354853e-05
3.493354853e-05
3.493360059e-05
3.493354853e-05
3.493354853e-05
3.493360059e-05
3.493354853e-05
3.493354853e-05
3.493360059e-05
3.493354853e-05
3.493354853e-05
3.493360059e-05
3.493360059e-05
3.493360059e-05
3.493349648e-05
3.493349648e-05
3.493360059e-05
3.493360059e-05
3.493360059e-05
3.493360059e-05
3.493349648e-05
3.493349648e-05
3.493360059e-05
3.493360059e-05
3.493360059e-05
3.493360059e-05
3.493349648e-05
3.493349648e-05
3.493360059e-05
3.493360059e-05
3.493360059e-05
3.493360059e-05
3.493349648e-05
3.493349648e-05
3.493360059e-05
3.493360059e-05
3.493360059e-05
3.493360059e-05
3.493360059e-05
3.493349648e-05
3.493349648e-05
3.493360059e-05
3.493360059e-05
3.493360059e-05
3.493360059e-05
3.493349648e-05
3.493349648e-05
3.493360059e-05
3.493360059e-05
3.493360059e-05
3.493360059e-05
3.493349648e-05
3.493349648e-05
3.493360059e-05
3.493360059e-05
3.493360059e-05
3.493360059e-05
3.493349648e-05
3.493349648e-05
3.493360059e-05
3.493360059e-05
3.493360059e-05
)


101
(
3.493356805e-05
3.493356805e-05
3.493356805e-05
3.493356805e-05
3.49335648e-05
3.493356805e-05
3.493356805e-05
3.493356805e-05
3.493356155e-05
3.493356155e-05
3.493357456e-05
3.493357456e-05
3.493357456e-05
3.493356155e-05
3.493354853e-05
3.493357456e-05
3.493357456e-05
3.493354853e-05
3.493357456e-05
3.493357456e-05
3.493357456e-05
3.493357456e-05
3.493354853e-05
3.493357456e-05
3.493357456e-05
3.493357456e-05
3.493354853e-05
3.493354853e-05
3.493360059e-05
3.493354853e-05
3.493354853e-05
3.493360059e-05
3.493354853e-05
3.493354853e-05
3.493360059e-05
3.493354853e-05
3.493354853e-05
3.493360059e-05
3.493360059e-05
3.493354853e-05
3.493354853e-05
3.493360059e-05
3.493354853e-05
3.493354853e-05
3.493360059e-05
3.493354853e-05
3.493354853e-05
3.493360059e-05
3.493354853e-05
3.493354853e-05
3.493360059e-05
3.493360059e-05
3.493360059e-05
3.493349648e-05
3.493349648e-05
3.493360059e-05
3.493360059e-05
3.493360059e-05
3.493360059e-05
3.493349648e-05
3.493349648e-05
3.493360059e-05
3.493360059e-05
3.493360059e-05
3.493360059e-05
3.493349648e-05
3.493349648e-05
3.493360059e-05
3.493360059e-05
3.493360059e-05
3.493360059e-05
3.493349648e-05
3.493349648e-05
3.493360059e-05
3.493360059e-05
3.493360059e-05
3.493360059e-05
3.493360059e-05
3.493349648e-05
3.493349648e-05
3.493360059e-05
3.493360059e-05
3.493360059e-05
3.493360059e-05
3.493349648e-05
3.493349648e-05
3.493360059e-05
3.493360059e-05
3.493360059e-05
3.493360059e-05
3.493349648e-05
3.493349648e-05
3.493360059e-05
3.493360059e-05
3.493360059e-05
3.493360059e-05
3.493349648e-05
3.493349648e-05
3.493360059e-05
3.493360059e-05
3.493360059e-05
)


101
(
3.493356805e-05
3.493356805e-05
3.493356805e-05
3.493356805e-05
3.49335648e-05
3.493356805e-05
3.493356805e-05
3.493356805e-05
3.493356155e-05
3.493356155e-05
3.493357456e-05
3.493357456e-05
3.493357456e-05
3.493356155e-05
3.493354853e-05
3.493357456e-05
3.493357456e-05
3.493354853e-05
3.493357456e-05
3.493357456e-05
3.493357456e-05
3.493357456e-05
3.493354853e-05
3.493357456e-05
3.493357456e-05
3.493357456e-05
3.493354853e-05
3.493354853e-05
3.493360059e-05
3.493354853e-05
3.493354853e-05
3.493360059e-05
3.493354853e-05
3.493354853e-05
3.493360059e-05
3.493354853e-05
3.493354853e-05
3.493360059e-05
3.493360059e-05
3.493354853e-05
3.493354853e-05
3.493360059e-05
3.493354853e-05
3.493354853e-05
3.493360059e-05
3.493354853e-05
3.493354853e-05
3.493360059e-05
3.493354853e-05
3.493354853e-05
3.493360059e-05
3.493360059e-05
3.493360059e-05
3.493349648e-05
3.493349648e-05
3.493360059e-05
3.493360059e-05
3.493360059e-05
3.493360059e-05
3.493349648e-05
3.493349648e-05
3.493360059e-05
3.493360059e-05
3.493360059e-05
3.493360059e-05
3.493349648e-05
3.493349648e-05
3.493360059e-05
3.493360059e-05
3.493360059e-05
3.493360059e-05
3.493349648e-05
3.493349648e-05
3.493360059e-05
3.493360059e-05
3.493360059e-05
3.493360059e-05
3.493360059e-05
3.493349648e-05
3.493349648e-05
3.493360059e-05
3.493360059e-05
3.493360059e-05
3.493360059e-05
3.493349648e-05
3.493349648e-05
3.493360059e-05
3.493360059e-05
3.493360059e-05
3.493360059e-05
3.493349648e-05
3.493349648e-05
3.493360059e-05
3.493360059e-05
3.493360059e-05
3.493360059e-05
3.493349648e-05
3.493349648e-05