/*--------------------------------*- C++ -*----------------------------------*\
| =========                 |                                                 |
| \\      /  F ield         | OpenFOAM: The Open Source CFD Toolbox           |
|  \\    /   O peration     | Version:  2.3.1                                 |
|   \\  /    A nd           | Web:      www.OpenFOAM.org                      |
|    \\/     M anipulation  |                                                 |
\*---------------------------------------------------------------------------*/
FoamFile
{
    version     2.0;
    format      ascii;
    class       dictionary;
    location    "constant";
    object      PM24;
}
// * * * * * * * * * * * * * * * * * * * * * * * * * * * * * * * * * * * * * //

PM24_table
101
(

101
(
-0.3334710434
-0.1118141093
-0.08785550082
-0.06621507552
-0.05116085922
-0.04043838549
-0.0323618629
-0.02581314386
-0.02036719472
-0.01570530416
-0.01161619805
-0.008005406893
-0.004850464742
-0.001968298524
0.0004600410224
0.002448211419
0.004007041866
0.005105725714
0.005651615536
0.005859142807
0.005695459671
0.005325702122
0.004798386679
0.004231476431
0.003675860871
0.003155314971
0.002686055896
0.002273824514
0.001909833918
0.001600629873
0.001337273628
0.001118558425
0.0009451787435
0.0007660795162
0.0006350615189
0.0005232338352
0.0003923056194
0.0002840411019
0.0002850575072
0.0002468554929
0.000206926843
0.0001756749649
0.0001472243588
0.0001241966987
0.0001062569613
9.040690094e-05
7.766202836e-05
6.635957585e-05
5.71348865e-05
4.907339203e-05
4.243464298e-05
3.672841861e-05
3.184045432e-05
2.760538758e-05
2.400353642e-05
2.096620753e-05
1.813732515e-05
1.59407187e-05
1.389780046e-05
1.22018915e-05
1.0684187e-05
9.377676385e-06
8.251336627e-06
7.231162085e-06
6.336036577e-06
5.57215857e-06
4.897131966e-06
4.297916926e-06
3.757242434e-06
3.290478018e-06
2.873521805e-06
2.506592602e-06
2.167088278e-06
1.849498959e-06
1.387364613e-06
1.137204649e-06
1.070147966e-06
9.588103427e-07
8.372107717e-07
7.204491492e-07
6.14354175e-07
5.136773845e-07
4.212825225e-07
2.91925012e-07
2.418107307e-07
2.172135442e-07
1.831115236e-07
1.483637425e-07
1.166349933e-07
7.297877022e-08
6.132335838e-08
5.085809321e-08
3.597906155e-08
2.492698655e-08
1.749225515e-08
1.32091213e-08
6.239640277e-09
7.06600012e-09
8.14021245e-09
1.15052177e-08
1.468236668e-08
)


101
(
-0.333471044
-0.1115656147
-0.08763696206
-0.06606598011
-0.05103381676
-0.04031099401
-0.03222569263
-0.02566967447
-0.02021377924
-0.01554405945
-0.0114500636
-0.007837546464
-0.004681338419
-0.001807840801
0.0006229570374
0.002615876652
0.004181302119
0.005291993817
0.005862646666
0.006080872511
0.005933487104
0.005568157623
0.005041861511
0.00446486341
0.003893822724
0.003355845062
0.0028679562
0.002437015645
0.002056256497
0.001730183973
0.001451827161
0.001219207192
0.001032370632
0.0008488907845
0.0007057775931
0.000585120578
0.0004553794288
0.0003420914508
0.000317725653
0.0002792280695
0.0002382412811
0.0002035618535
0.0001723948275
0.0001463908742
0.0001255488192
0.0001075881014
9.283465803e-05
7.997372214e-05
6.923245718e-05
5.991443937e-05
5.208340881e-05
4.53586629e-05
3.958287572e-05
3.459432869e-05
3.03027546e-05
2.662103102e-05
2.326475279e-05
2.050012204e-05
1.801505286e-05
1.588851448e-05
1.400696386e-05
1.236450097e-05
1.093131227e-05
9.652549976e-06
8.525129665e-06
7.539491724e-06
6.664841441e-06
5.886783228e-06
5.189907478e-06
4.572863763e-06
4.022299179e-06
3.532362379e-06
3.091328066e-06
2.686465522e-06
2.196731181e-06
1.835848735e-06
1.629237905e-06
1.440538734e-06
1.264461582e-06
1.098884296e-06
9.468300728e-07
8.06601307e-07
6.800214212e-07
5.342037248e-07
4.373161595e-07
3.714406796e-07
3.151231691e-07
2.620751574e-07
2.133815671e-07
1.61906774e-07
1.296182037e-07
1.038010446e-07
8.188361822e-08
6.256862098e-08
4.834471939e-08
3.598312579e-08
1.857651456e-08
2.531245494e-08
3.259840307e-08
4.654335903e-08
5.984892506e-08
)


101
(
-0.333471044
-0.1110675458
-0.08720053048
-0.06576962601
-0.05078343331
-0.04006171653
-0.03196049774
-0.02539115826
-0.01991664679
-0.01523204549
-0.01112836314
-0.007511995368
-0.004352769367
-0.001494554697
0.0009411920744
0.002945056419
0.004525857041
0.005662521105
0.006282925327
0.006527962025
0.006414328187
0.006061751558
0.00554012968
0.004946140972
0.004345788923
0.00377346989
0.003248404479
0.002779620515
0.002364308514
0.002003816758
0.001694175576
0.001432592293
0.001217896958
0.001022708195
0.0008574195071
0.0007168343068
0.0005850597187
0.0004624933034
0.0003956029926
0.000348667748
0.0003037234773
0.0002627166737
0.0002259853065
0.0001940065267
0.000167242908
0.0001446615939
0.0001256742585
0.0001094391362
9.553278015e-05
8.35318103e-05
7.31925043e-05
6.42821307e-05
5.658115589e-05
4.991356054e-05
4.411596149e-05
3.90712864e-05
3.456734581e-05
3.063219565e-05
2.717533568e-05
2.413193148e-05
2.145291375e-05
1.908639927e-05
1.699652833e-05
1.514295353e-05
1.349349835e-05
1.202043116e-05
1.070749266e-05
9.531487741e-06
8.484156145e-06
7.543298571e-06
6.698220262e-06
5.938784341e-06
5.26126587e-06
4.651611399e-06
4.052058868e-06
3.492455789e-06
3.029690684e-06
2.649661102e-06
2.327458396e-06
2.042511621e-06
1.783698977e-06
1.54748836e-06
1.33554594e-06
1.134428236e-06
9.512058978e-07
7.977996392e-07
6.742663484e-07
5.725148014e-07
4.802070386e-07
3.954578906e-07
3.217948859e-07
2.611746523e-07
2.160134392e-07
1.750044148e-07
1.417507982e-07
1.068756313e-07
5.766356099e-08
8.786609308e-08
1.193512814e-07
1.710519403e-07
2.219271597e-07
)


101
(
-0.333471044
-0.1105669301
-0.08676508698
-0.06547680647
-0.0505404598
-0.03982368618
-0.03171007345
-0.02513030645
-0.0196400356
-0.01494251337
-0.01082964254
-0.007209033636
-0.004045872807
-0.001199267677
0.001241527139
0.003258843964
0.004858663088
0.00602455925
0.006695209364
0.006975749073
0.006898544933
0.006565693451
0.006053431549
0.005449021915
0.004823468916
0.004218529321
0.003656974996
0.003150241619
0.002698984143
0.002303276882
0.001960417714
0.001667974587
0.001423900329
0.00121095924
0.001026617304
0.0008684411923
0.0007238322816
0.0005914674913
0.0004961854777
0.000430154714
0.0003763831438
0.0003288087744
0.0002861396003
0.0002482119481
0.000215427993
0.0001875176379
0.0001638173764
0.0001436185677
0.0001262206196
0.0001111754139
9.808173336e-05
8.669760824e-05
7.678762957e-05
6.815588825e-05
6.061147579e-05
5.399430553e-05
4.814809265e-05
4.295337911e-05
3.836166764e-05
3.427638736e-05
3.065668912e-05
2.744765774e-05
2.459692982e-05
2.205953197e-05
1.978909033e-05
1.774281187e-05
1.590750069e-05
1.425924218e-05
1.278185429e-05
1.145564231e-05
1.025107915e-05
9.164105498e-06
8.183098135e-06
7.304148301e-06
6.494334739e-06
5.736401529e-06
5.042721443e-06
4.430976673e-06
3.900983287e-06
3.442085173e-06
3.036093729e-06
2.667266975e-06
2.334129101e-06
2.031689926e-06
1.753915627e-06
1.501676067e-06
1.2785834e-06
1.093109869e-06
9.372543705e-07
7.937961826e-07
6.660892225e-07
5.534722586e-07
4.589539072e-07
3.851526916e-07
3.205415785e-07
2.499507259e-07
1.536430743e-07
2.346909862e-07
3.163227934e-07
4.31963657e-07
5.40844789e-07
)


101
(
-0.3334710134
-0.1100635788
-0.08633048018
-0.06518734666
-0.05030465431
-0.03959661405
-0.03147403482
-0.02488647275
-0.01938304432
-0.01467434131
-0.01055250589
-0.006926886812
-0.003758556715
-0.0009198233123
0.001526749594
0.003559771117
0.00518201073
0.006380351599
0.007102406601
0.007425657438
0.007388818891
0.007082034336
0.006584354126
0.005975929268
0.005330003358
0.004694840188
0.00409771114
0.003553041835
0.003064700434
0.002632781719
0.002255359495
0.001929810947
0.001654291721
0.001418367583
0.001213821683
0.001038875602
0.0008780457066
0.000733239547
0.000616500228
0.0005290941739
0.0004613554765
0.000404629626
0.0003549407224
0.0003107028143
0.0002716604162
0.0002378171003
0.0002087546823
0.0001839209606
0.0001625372934
0.0001439987512
0.0001277870991
0.000113576871
0.0001011179979
9.021275193e-05
8.064563926e-05
7.219536576e-05
6.473795491e-05
5.808671138e-05
5.218123372e-05
4.689108888e-05
4.215857835e-05
3.794913966e-05
3.418475671e-05
3.082643342e-05
2.782138635e-05
2.510663476e-05
2.265056333e-05
2.043261791e-05
1.842417482e-05
1.662569238e-05
1.49868711e-05
1.349736457e-05
1.213901001e-05
1.091206981e-05
9.797633673e-06
8.773965585e-06
7.829092285e-06
6.963270312e-06
6.178168782e-06
5.483302548e-06
4.870873348e-06
4.326566617e-06
3.829350799e-06
3.379132859e-06
2.967512503e-06
2.592251388e-06
2.246014586e-06
1.937595261e-06
1.677997299e-06
1.452790866e-06
1.244199027e-06
1.05875905e-06
8.927806261e-07
7.562479684e-07
6.438953628e-07
5.192525823e-07
3.530283002e-07
4.95779395e-07
6.507751452e-07
9.502644147e-07
1.239800267e-06
)


101
(
-0.3334710441
-0.1095573683
-0.08589658387
-0.06490110092
-0.05007581023
-0.03938023169
-0.03125203971
-0.02465911115
-0.01914490205
-0.01442661298
-0.01029590279
-0.006664101586
-0.003489282332
-0.0006545398006
0.001799085489
0.003849771233
0.005497779111
0.006731727007
0.007506514258
0.00787865165
0.007886935928
0.007612296218
0.007134667819
0.006528627705
0.005867529053
0.005205279973
0.004574045561
0.003991637707
0.003465242932
0.002995931914
0.002582600103
0.002222262465
0.001913282908
0.001649927256
0.001422021157
0.001225685538
0.00104991845
0.0008909531537
0.0007553871559
0.0006473316847
0.000562441306
0.0004932844406
0.0004345297038
0.0003829448363
0.0003371382823
0.0002968369337
0.0002617599317
0.0002315983231
0.0002056081679
0.0001830450532
0.0001632831974
0.0001458591931
0.0001304766947
0.0001169241547
0.0001050085616
9.445763894e-05
8.50900926e-05
7.672275691e-05
6.925746154e-05
6.255991017e-05
5.65424963e-05
5.115311703e-05
4.630933771e-05
4.19557693e-05
3.805446638e-05
3.454118649e-05
3.13489423e-05
2.844378956e-05
2.579411344e-05
2.339905546e-05
2.123232304e-05
1.92582936e-05
1.744823142e-05
1.579153224e-05
1.427955228e-05
1.289827921e-05
1.163622861e-05
1.046620063e-05
9.382314677e-06
8.395334994e-06
7.509125672e-06
6.726448408e-06
6.012902076e-06
5.362908897e-06
4.769774237e-06
4.225746136e-06
3.721350716e-06
3.255857491e-06
2.843701578e-06
2.493895421e-06
2.171037993e-06
1.87761957e-06
1.619744723e-06
1.388590913e-06
1.202467657e-06
9.790076441e-07
6.992296335e-07
1.014104164e-06
1.349690568e-06
1.959765437e-06
2.534223116e-06
)


101
(
-0.333471044
-0.1090479712
-0.08546321991
-0.06461788492
-0.04985359682
-0.03917395765
-0.03104319839
-0.02444715379
-0.01892482237
-0.01419871307
-0.01005921737
-0.006420190738
-0.003237457741
-0.0004032120492
0.002059091783
0.004129144773
0.005805682343
0.007078203222
0.007907366558
0.008333786231
0.008392461157
0.008156104197
0.007704218487
0.007107029575
0.006436440554
0.005750928146
0.005087773416
0.00446843222
0.003903495433
0.003395731428
0.002944942013
0.002548616069
0.002204494468
0.001910215776
0.001655898107
0.001436269828
0.001242222361
0.001067558792
0.0009143199919
0.0007863147425
0.0006826107487
0.0005980790996
0.0005276799248
0.0004670449449
0.0004135409228
0.0003661809197
0.0003244472463
0.0002881688979
0.0002567741496
0.0002295137293
0.0002056508094
0.000184554869
0.0001658505282
0.0001492638426
0.0001345941896
0.0001215872332
0.0001100257323
9.965990461e-05
9.03627005e-05
8.199386147e-05
7.445797656e-05
6.766722803e-05
6.154655253e-05
5.601977481e-05
5.103683382e-05
4.655064077e-05
4.247346446e-05
3.875888455e-05
3.535403829e-05
3.223584551e-05
2.94129402e-05
2.683884882e-05
2.448090338e-05
2.23061899e-05
2.030627266e-05
1.84677173e-05
1.679008835e-05
1.52421844e-05
1.380619686e-05
1.247059281e-05
1.124110426e-05
1.013454054e-05
9.139244479e-06
8.223588426e-06
7.389672603e-06
6.620607305e-06
5.907485505e-06
5.240298073e-06
4.632848567e-06
4.098133704e-06
3.62395123e-06
3.171854183e-06
2.772256944e-06
2.418160306e-06
2.108943523e-06
1.757730214e-06
1.31837942e-06
1.963636519e-06
2.641447137e-06
3.815396363e-06
4.90174262e-06
)


101
(
-0.333471044
-0.1085351915
-0.08503024076
-0.06433754235
-0.04963768288
-0.0389770747
-0.03084618143
-0.02424879025
-0.01872166201
-0.01398969351
-0.009841484254
-0.006194088542
-0.003001848734
-0.0001648603743
0.00230793662
0.004398903892
0.006106062793
0.007419657888
0.008304862474
0.008790238297
0.008904796985
0.008713023526
0.008292572872
0.007710781553
0.007036908867
0.006332651209
0.005640456775
0.004985706905
0.00438238719
0.003835456387
0.003346030522
0.002912291666
0.002531583264
0.002203603818
0.00191958513
0.001674008083
0.001458567968
0.001265972581
0.001094963854
0.0009474996533
0.0008241882759
0.0007221637702
0.0006374965094
0.0005655879916
0.0005029040911
0.0004475731584
0.0003984873596
0.000355340138
0.0003177216355
0.0002849698122
0.000256264149
0.0002309204439
0.0002084143585
0.0001883261508
0.000170456632
0.0001545856188
0.0001404496518
0.0001277536038
0.0001163497538
0.0001060433074
9.671786867e-05
8.827584739e-05
8.062023658e-05
7.36997505e-05
6.743270593e-05
6.178161492e-05
5.665710328e-05
5.197788569e-05
4.767614994e-05
4.369706481e-05
4.006395093e-05
3.673935022e-05
3.371310151e-05
3.092166884e-05
2.833157006e-05
2.593271733e-05
2.37273895e-05
2.169876458e-05
1.982154747e-05
1.806173022e-05
1.642137438e-05
1.490762787e-05
1.354793764e-05
1.22907699e-05
1.114120694e-05
1.007114412e-05
9.091705877e-06
8.159256825e-06
7.301477904e-06
6.519039938e-06
5.825206647e-06
5.162126195e-06
4.570325197e-06
4.044106742e-06
3.561154677e-06
3.053595603e-06
2.361956391e-06
3.520127976e-06
4.755255603e-06
7.028782438e-06
9.225267421e-06
)


101
(
-0.3334709821
-0.1080188298
-0.08459746107
-0.06405982559
-0.0494277862
-0.0387892023
-0.03066028954
-0.02406286701
-0.01853454529
-0.01379888423
-0.009642198646
-0.005985143756
-0.002781785738
6.10752152e-05
0.002546228668
0.004659613396
0.006399159113
0.007755925663
0.00869873602
0.00924713777
0.009423130419
0.009282568008
0.00889946831
0.008339949386
0.007669816129
0.006952371867
0.006234735185
0.005546534529
0.00490534032
0.004318676498
0.003789384547
0.003316704648
0.002897958396
0.002534027546
0.002217079671
0.00194239279
0.001702424907
0.001489368185
0.001299605069
0.001132748159
0.0009893860856
0.000868283502
0.0007670048192
0.0006814222315
0.0006076386574
0.0005430119387
0.000485666544
0.0004349110044
0.0003902358403
0.0003511118863
0.0003167637326
0.0002865088125
0.000259620278
0.0002355359497
0.0002139885365
0.0001947378979
0.0001775690192
0.0001621105551
0.0001482424484
0.0001357068872
0.0001243149974
0.0001139638402
0.0001045199787
9.59378171e-05
8.813512283e-05
8.1067061e-05
7.467247963e-05
6.882551673e-05
6.3453251e-05
5.847104604e-05
5.387769891e-05
4.96541291e-05
4.578573425e-05
4.223153104e-05
3.893386637e-05
3.586663438e-05
3.301058372e-05
3.037432336e-05
2.794484884e-05
2.566210041e-05
2.351432244e-05
2.151697653e-05
1.968913293e-05
1.801473871e-05
1.645343987e-05
1.499141963e-05
1.366897232e-05
1.240014914e-05
1.121713648e-05
1.01215758e-05
9.119812502e-06
8.189327966e-06
7.340848856e-06
6.572030263e-06
5.856619093e-06
5.103737732e-06
4.11666086e-06
6.129780744e-06
8.288329396e-06
1.227706704e-05
1.646359382e-05
)


101
(
-0.3334709825
-0.1074986075
-0.08416471407
-0.06378440907
-0.04922346435
-0.03860998065
-0.03048536288
-0.02388924358
-0.01836257114
-0.01362520657
-0.009460777435
-0.005793274707
-0.002577456533
0.000274098363
0.002773536999
0.004910838313
0.00668430145
0.008086088985
0.009087984713
0.009702929734
0.009945799984
0.009863652801
0.009525006453
0.008994901739
0.008336276469
0.007612319735
0.006873675965
0.006154400226
0.005476080081
0.004849283971
0.004278885259
0.00376545965
0.003306864824
0.002905027229
0.002552347558
0.002245381392
0.001977701211
0.001741396285
0.001531093916
0.001344271582
0.001180464723
0.001039072963
0.0009192804601
0.0008177549504
0.0007307443646
0.0006551613816
0.0005883236703
0.0005289703696
0.0004762863347
0.0004298654017
0.0003890188498
0.0003530496055
0.0003211031433
0.0002924908908
0.0002666912883
0.0002435296549
0.0002228393152
0.0002041658497
0.0001873938209
0.0001722459957
0.0001584504803
0.0001458660576
0.0001343742912
0.0001238545586
0.0001142224936
0.0001054253558
9.747563004e-05
9.022499632e-05
8.35908391e-05
7.744319656e-05
7.172742909e-05
6.642993168e-05
6.154074112e-05
5.704441938e-05
5.289001507e-05
4.900894351e-05
4.53736699e-05
4.199936096e-05
3.887598168e-05
3.595299153e-05
3.318487685e-05
3.060029906e-05
2.819111217e-05
2.599506124e-05
2.392481526e-05
2.196014371e-05
2.017456407e-05
1.849232911e-05
1.689257829e-05
1.541371691e-05
1.401419905e-05
1.273338361e-05
1.15439146e-05
1.045264499e-05
9.436122791e-06
8.325779806e-06
6.940559032e-06
1.043137026e-05
1.412145301e-05
2.049149853e-05
2.657957881e-05
)


101
(
-0.333470754
-0.1069742989
-0.08373182552
-0.06351104148
-0.04902432699
-0.03843903923
-0.03032122237
-0.02372788983
-0.01820488448
-0.01346728392
-0.009296453473
-0.005618281115
-0.002389093644
0.0004736067248
0.002989278716
0.005152015392
0.006960641584
0.008408960415
0.009471359592
0.01015597334
0.01047084501
0.01045458944
0.01016892643
0.009675693007
0.009036892476
0.008313946198
0.007559566788
0.006812300931
0.00609821681
0.005431374589
0.004819010062
0.004263199997
0.003762738096
0.003321091091
0.002930332768
0.002588044878
0.002289142787
0.002026218693
0.001792843625
0.001584779536
0.001400033466
0.001237615963
0.001097779955
0.0009782521893
0.0008757879085
0.0007872577031
0.0007093432178
0.0006401242379
0.0005783912828
0.0005236912913
0.0004753360629
0.0004326637444
0.0003948177123
0.0003609434177
0.0003303088258
0.0003027773253
0.0002779785656
0.0002555858929
0.0002353764219
0.0002171587903
0.0002005842844
0.0001854079569
0.0001715206085
0.0001587486042
0.0001470114055
0.0001362116025
0.0001263628968
0.0001174208465
0.0001092630942
0.0001017215305
9.469870667e-05
8.813991662e-05
8.205178364e-05
7.64157458e-05
7.120358084e-05
6.633686831e-05
6.178674681e-05
5.754067595e-05
5.354962959e-05
4.983355202e-05
4.633164152e-05
4.302123307e-05
3.991534843e-05
3.705999355e-05
3.437464126e-05
3.178458059e-05
2.938948092e-05
2.719399989e-05
2.509560375e-05
2.310431765e-05
2.120898126e-05
1.947961801e-05
1.784965199e-05
1.634023658e-05
1.49491234e-05
1.340973203e-05
1.151332428e-05
1.715404331e-05
2.316095398e-05
3.315844349e-05
4.288472101e-05
)


101
(
-0.3334695161
-0.1064456031
-0.08329852615
-0.06323949488
-0.04883016262
-0.03827621552
-0.03016780181
-0.0235786785
-0.01806086008
-0.01332436033
-0.009148948469
-0.005460023146
-0.002216787241
0.0006591998454
0.003193077258
0.005382812274
0.007227855004
0.008723903518
0.009848196113
0.01060535566
0.01099652965
0.01105290749
0.0108286217
0.01037998635
0.00976895128
0.009054940988
0.008291596687
0.007521151328
0.006774173123
0.006068429581
0.005414027126
0.004814976425
0.004271182548
0.003787832055
0.003356757057
0.002976236963
0.002642425606
0.002348952757
0.002089316409
0.001858142182
0.001651531462
0.001467384175
0.001306210961
0.001166782077
0.001046572412
0.0009428130498
0.0008519496269
0.0007714499814
0.0006995212854
0.0006354629365
0.0005785000985
0.0005280383782
0.0004832827451
0.0004432763629
0.0004071889538
0.0003746144578
0.000345119858
0.0003183649108
0.000294150743
0.0002722985149
0.0002524758275
0.0002343187942
0.0002176589787
0.00020229527
0.0001881200745
0.0001750659185
0.0001630046678
0.0001520080079
0.000141992052
0.0001327675817
0.0001242181735
0.0001162206999
0.000108710252
0.0001017027841
9.519709249e-05
8.916034679e-05
8.3523908e-05
7.823329827e-05
7.324689258e-05
6.855887237e-05
6.414234499e-05
5.995909671e-05
5.60122484e-05
5.232712558e-05
4.890540701e-05
4.559772846e-05
4.242826069e-05
3.955163382e-05
3.684408432e-05
3.420804683e-05
3.169167231e-05
2.941310889e-05
2.723486681e-05
2.518035229e-05
2.329723532e-05
2.124503146e-05
1.880610859e-05
2.762900585e-05
3.70448641e-05
5.198191066e-05
6.669506013e-05
)


101
(
-0.3334686311
-0.1059122177
-0.08286461812
-0.06296960693
-0.04864080634
-0.03812141549
-0.03002533289
-0.02344185228
-0.01792944921
-0.01319525062
-0.009018256306
-0.005318541566
-0.002060751871
0.0008300476897
0.003383948395
0.005602368939
0.007485799327
0.009031285681
0.01021882178
0.01105084703
0.01152109786
0.0116551355
0.01149944312
0.01110380804
0.01052881818
0.009832216915
0.009068134635
0.008281198895
0.00750595878
0.006763798281
0.00606817187
0.00542571508
0.004837799005
0.004311169467
0.003837634051
0.003416092947
0.003043769569
0.002715654864
0.002426037388
0.002169112584
0.001939082769
0.001732256571
0.001548642863
0.001387569172
0.001247345192
0.001125916916
0.001019924539
0.0009264390092
0.0008429763543
0.0007684136604
0.0007016701528
0.000642243991
0.0005894899293
0.0005423711556
0.0004999590036
0.0004614949024
0.0004267260891
0.0003949756033
0.0003661876671
0.0003400622548
0.0003164296653
0.0002947852407
0.0002749110158
0.0002565846586
0.000239640689
0.0002239686847
0.0002094042888
0.0001960047977
0.0001837239564
0.0001724858648
0.0001621090377
0.0001524523523
0.000143323609
0.0001347261993
0.0001266660525
0.0001191717655
0.000112218723
0.0001057192945
9.956739203e-05
9.37410099e-05
8.819998064e-05
8.297561012e-05
7.800124176e-05
7.329063029e-05
6.89553708e-05
6.482067028e-05
6.072829056e-05
5.695264892e-05
5.344846781e-05
5.008678832e-05
4.678591298e-05
4.380484522e-05
4.091663443e-05
3.821977978e-05
3.568354217e-05
3.298993843e-05
2.991507903e-05
4.32896176e-05
5.748826935e-05
7.843483586e-05
9.923154508e-05
)


101
(
-0.3334685066
-0.1053738032
-0.08242987628
-0.06270119446
-0.04845609022
-0.0379744685
-0.02989387652
-0.02331765366
-0.01780993825
-0.01307867483
-0.008904210633
-0.005193852174
-0.00192112272
0.0009854129643
0.003560915016
0.005809709198
0.007733998979
0.009331403029
0.0105835655
0.01149270884
0.01204378802
0.0122590209
0.01217801714
0.01184420199
0.01131491161
0.01064531343
0.009889418217
0.009093414674
0.008295380591
0.007520344386
0.00678533809
0.006099908678
0.005467308162
0.004896203484
0.004378432034
0.003913506253
0.00349953322
0.003132941564
0.002809387949
0.002523244903
0.002267489074
0.002036642664
0.001829583366
0.001645390148
0.00148308208
0.001341557807
0.001217948601
0.001109302803
0.001012631429
0.0009261622977
0.0008483780542
0.000778772601
0.0007168466234
0.0006614863525
0.0006117346056
0.0005666320869
0.0005258270761
0.0004884890442
0.0004544051605
0.0004233509232
0.0003952617272
0.0003695694852
0.0003459208517
0.0003241816943
0.0003041197
0.0002854060254
0.0002680152504
0.0002518306521
0.0002369455956
0.0002233045607
0.0002107162423
0.0001990800755
0.0001881295778
0.0001777639831
0.0001679187189
0.0001586298987
0.0001500590155
0.0001420882377
0.0001345698573
0.0001274418383
0.0001205617241
0.0001140462186
0.0001078556689
0.000101937214
9.637896742e-05
9.120241902e-05
8.610385758e-05
8.118624428e-05
7.665124849e-05
7.242339648e-05
6.813788967e-05
6.429455645e-05
6.040988199e-05
5.690963282e-05
5.35594901e-05
5.007739041e-05
4.607920244e-05
6.514736938e-05
8.536610207e-05
0.000113599806
0.0001446022929
)


101
(
-0.3334683824
-0.1048301101
-0.0819941437
-0.06243411257
-0.04827593805
-0.03783531955
-0.02977326169
-0.0232061414
-0.01770226188
-0.01297393745
-0.008805617684
-0.00508614505
-0.001797909343
0.001125417326
0.003724134135
0.006004849238
0.007971619903
0.009622825566
0.01094049147
0.01192744483
0.01256157732
0.01286212619
0.01286272988
0.01259944824
0.01212583254
0.01149380751
0.01075583018
0.009958806834
0.009144066114
0.008340590728
0.007569249258
0.006842266997
0.00616472735
0.005548240049
0.004984836903
0.004474715384
0.004016562506
0.003608047747
0.00324651683
0.002927133035
0.002642560906
0.002385667335
0.002153894199
0.001945370956
0.00175928062
0.001595393343
0.001451569123
0.001325295635
0.001213271743
0.001113121177
0.001022964216
0.0009419229576
0.000869455576
0.0008046166789
0.0007464238301
0.000693791033
0.0006460771446
0.0006024487944
0.0005623553856
0.0005256573033
0.0004922787889
0.0004619048418
0.0004339402377
0.0004083031826
0.0003846148374
0.00036247134
0.0003418412654
0.0003225367296
0.0003047303856
0.0002882419509
0.0002730157704
0.0002589937766
0.0002458943331
0.0002335761761
0.0002217949619
0.0002104425537
0.0001998333022
0.0001899659513
0.0001808650884
0.0001721934535
0.0001637831419
0.000155713019
0.0001479976663
0.0001406708322
0.0001336508849
0.0001270575784
0.0001207310881
0.0001144600467
0.0001085383044
0.000103158044
9.763195231e-05
9.264696669e-05
8.757010296e-05
8.291421468e-05
7.855728066e-05
7.399084762e-05
6.867354681e-05
9.479030212e-05
0.0001223119751
0.0001589552791
0.000194105313
)


101
(
-0.3334686305
-0.1042808914
-0.08155730749
-0.06216827854
-0.04810026742
-0.03770391374
-0.02966332865
-0.02310741964
-0.0176064392
-0.0128804878
-0.008720794139
-0.004995739838
-0.001691360404
0.001250403209
0.003874130911
0.006188364534
0.008198044193
0.009903318779
0.01128645944
0.01234927794
0.01306953472
0.0134606447
0.01355137982
0.01336765416
0.01295967101
0.01237639121
0.01166687143
0.01087797672
0.01005401789
0.009227743429
0.008423825984
0.007657420109
0.006935525836
0.006273224596
0.005663218795
0.005106620263
0.00460237978
0.004148953031
0.003745475045
0.003388562206
0.003071197224
0.002785342269
0.00252711537
0.002293041998
0.002081705613
0.001893436095
0.001726975939
0.001580566388
0.001450700458
0.001334836062
0.001230726477
0.001136852532
0.001052342521
0.0009766638852
0.0009086805805
0.0008472185103
0.0007916778783
0.0007409460929
0.0006941858682
0.0006510791239
0.0006116487537
0.0005758005599
0.0005429682806
0.0005128885325
0.0004849296979
0.0004590368916
0.0004347268633
0.0004119241362
0.000390707274
0.0003709405037
0.0003526913981
0.0003358068039
0.0003201432499
0.0003055357238
0.0002916300946
0.0002780835575
0.0002649880945
0.000252841219
0.0002416362869
0.0002311039963
0.0002210206684
0.0002111337788
0.0002014519077
0.0001923793086
0.0001836171035
0.0001752354833
0.0001672131819
0.0001593527672
0.0001515661137
0.0001445548564
0.0001375294835
0.0001308426242
0.0001243864493
0.0001181224664
0.0001123694634
0.0001063949514
9.959077824e-05
0.0001339867089
0.0001700608209
0.0002169669647
0.0002612898417
)


101
(
-0.3334686305
-0.1037256454
-0.08111776084
-0.06190344258
-0.04792882979
-0.03757993781
-0.02956378291
-0.02302150038
-0.017523159
-0.01279842096
-0.008648437916
-0.004922343799
-0.001601710929
0.00136029436
0.004010711776
0.006360158694
0.008412938788
0.0101719315
0.01162056138
0.01275627912
0.01356564975
0.01405231683
0.01424102338
0.01414588959
0.01381304749
0.01328949497
0.01261997452
0.01185013444
0.01102655541
0.01018497307
0.009353112131
0.00854982609
0.007785076387
0.007077163834
0.006420106131
0.005816308349
0.00526478589
0.004764175024
0.00431506957
0.003916086147
0.003561346716
0.003242827989
0.002955612773
0.002694407506
0.002456484354
0.002242143356
0.002050832697
0.001881689771
0.001731496661
0.001597722409
0.001477689014
0.00136936177
0.001271347984
0.00118327159
0.001104053392
0.001032377595
0.0009678205603
0.0009089415132
0.0008548059989
0.0008046200292
0.0007584500392
0.0007162476835
0.000677833241
0.0006426071996
0.0006098410082
0.000579690606
0.0005512293876
0.0005244766882
0.0004993808622
0.0004760338285
0.0004543136422
0.0004340252885
0.0004152871546
0.0003978540144
0.0003813999818
0.000365526305
0.0003499295723
0.0003349667984
0.0003210017276
0.0003081332787
0.000296050156
0.0002839596152
0.0002720081677
0.0002606256538
0.0002496425645
0.0002390292534
0.0002286590179
0.0002187477019
0.0002085928441
0.0001992942131
0.0001904151028
0.0001813301221
0.0001729173995
0.0001646104423
0.0001567875624
0.0001489925764
0.0001403063169
0.0001843904814
0.0002305254659
0.0002906860179
0.0003535980634
)


101
(
-0.3334683824
-0.1031640709
-0.08067651787
-0.0616394472
-0.0477614632
-0.03746314809
-0.02947435875
-0.02294830948
-0.01745419757
-0.01272984781
-0.008587504529
-0.004864770863
-0.001528495317
0.001454526535
0.004131922751
0.00651712977
0.008613283686
0.01042625592
0.01194179687
0.01315180432
0.01405228983
0.01463817812
0.01492918579
0.01493110942
0.01468248319
0.01422916833
0.01361189566
0.01287347426
0.01206158442
0.01121395994
0.01036053622
0.009524136454
0.008718904121
0.007966339364
0.007262187555
0.006610730958
0.006011219919
0.00546196439
0.004964393283
0.004519208528
0.00412238075
0.003766650551
0.003446911011
0.003156410113
0.00289057069
0.00264877421
0.002430519874
0.00223600986
0.002063122614
0.001909117749
0.001770973848
0.001646304649
0.001533187886
0.001430999511
0.00133897015
0.00125586697
0.001180965227
0.001112695418
0.00105036978
0.0009925904114
0.0009387785369
0.0008894798343
0.0008445260245
0.0008032850055
0.000765181383
0.0007299821744
0.0006968994264
0.0006657769293
0.0006364359715
0.0006090861004
0.0005832458912
0.0005591315525
0.0005367609926
0.0005158689898
0.0004963159681
0.000477764731
0.0004594518709
0.0004412674356
0.0004240622154
0.0004081244922
0.0003932647303
0.0003785617439
0.0003639381829
0.0003496259074
0.0003356220463
0.0003223000311
0.0003088746824
0.0002960974249
0.0002829563935
0.0002705529639
0.0002590151347
0.0002469145113
0.0002355678062
0.0002245137055
0.0002139266975
0.0002036761273
0.000192454782
0.0002485026246
0.0003070868702
0.0003844842684
0.0004595935333
)


101
(
-0.3334686311
-0.1025959912
-0.08023475524
-0.06137626222
-0.04759806562
-0.03735338791
-0.02939484341
-0.02288766733
-0.01740063414
-0.01267685119
-0.008537346977
-0.004821976559
-0.001471052982
0.001532953799
0.004236375048
0.006656600669
0.008796103203
0.01066329584
0.01224740795
0.01353795634
0.01453162225
0.01522016689
0.01561446606
0.01572083593
0.0155652813
0.01519210646
0.01463923462
0.0139453355
0.01315735471
0.01231429943
0.01144796131
0.01058436273
0.009742026271
0.008946840685
0.008196408134
0.007497228421
0.00684935126
0.006250716217
0.005702948626
0.005208313848
0.004764853166
0.004366892829
0.004010317253
0.003687569515
0.003392097557
0.003121549894
0.002874701919
0.002652548572
0.002454331517
0.002277529767
0.002118932361
0.001975939998
0.001846017004
0.001727881898
0.001621098768
0.001524984464
0.001438360634
0.00135959723
0.001287993142
0.001221845839
0.001159834325
0.001102745826
0.001050219054
0.001001993404