/*--------------------------------*- C++ -*----------------------------------*\
| =========                 |                                                 |
| \\      /  F ield         | OpenFOAM: The Open Source CFD Toolbox           |
|  \\    /   O peration     | Version:  2.3.1                                 |
|   \\  /    A nd           | Web:      www.OpenFOAM.org                      |
|    \\/     M anipulation  |                                                 |
\*---------------------------------------------------------------------------*/
FoamFile
{
    version     2.0;
    format      ascii;
    class       dictionary;
    location    "constant";
    object      PM25;
}
// * * * * * * * * * * * * * * * * * * * * * * * * * * * * * * * * * * * * * //

PM25_table
101
(

101
(
1.002079841e-14
1.07019522e-16
-1.700538467e-16
-2.657263686e-16
-1.246892637e-17
1.508969172e-17
-2.764944381e-17
1.300472201e-17
-1.142005263e-17
1.591668779e-18
-7.984652576e-19
1.784163212e-17
-1.661450921e-17
-2.017288377e-18
1.720045062e-18
1.689309203e-18
9.633817153e-19
5.527050028e-19
7.442792185e-19
1.330121872e-18
1.909205194e-18
-1.962879928e-17
1.553124233e-17
5.367028962e-18
4.458282165e-19
3.289899144e-21
5.190931846e-19
1.16109196e-18
1.543691747e-18
1.519857084e-18
1.156775301e-18
6.731953527e-19
3.162960932e-19
2.549683041e-19
1.218585903e-17
5.716967562e-18
-7.286194145e-18
-2.366947933e-18
1.995265174e-17
-5.158917564e-18
-6.460753691e-18
-1.551198061e-17
1.111058506e-17
1.492101215e-17
-3.548799386e-18
-4.786330489e-18
-2.024681756e-18
-8.823411499e-19
-1.846375259e-19
3.327167895e-19
7.859197307e-19
1.300428701e-18
-9.759040797e-18
-4.760169013e-18
1.073302737e-17
-1.377710781e-18
-2.347475225e-18
-4.77526206e-19
1.976943834e-18
-3.481938418e-18
-3.854009868e-18
2.786265273e-18
-7.455194706e-18
6.474819457e-18
-2.085966881e-19
9.11996817e-18
-1.450992802e-17
2.310445269e-17
3.150219563e-18
-1.229235768e-17
1.377207881e-17
-6.375938007e-18
-1.006432885e-19
1.248818536e-17
-4.324574963e-18
1.593217078e-17
-2.676736537e-18
1.036232565e-20
2.328061138e-18
1.373099356e-18
1.312115011e-17
1.443491147e-17
4.458831428e-18
5.6909686e-18
-6.187391243e-18
4.59486869e-18
-9.112614496e-18
-1.546611759e-17
5.011362031e-18
9.804659348e-18
-1.187164696e-17
-2.807081435e-17
-1.635677769e-18
3.154326962e-19
4.12416414e-17
6.46280854e-17
4.610967318e-17
0
0
0
0
)


101
(
9.884459243e-15
6.885655885e-17
-1.94613235e-16
-2.663447824e-16
-1.207427873e-17
1.553993703e-17
-2.434784619e-17
1.316454106e-17
-9.707969379e-18
1.750657708e-18
-8.690695546e-19
1.527477212e-17
-1.424796205e-17
-1.350132904e-18
1.591754883e-18
1.644452111e-18
9.645687401e-19
5.641757832e-19
7.544931319e-19
1.329803632e-18
1.897311871e-18
-1.406004945e-17
1.124499158e-17
3.067757214e-18
7.841584185e-19
2.004458389e-19
5.800907432e-19
1.158873912e-18
1.511996251e-18
1.475403799e-18
1.118544506e-18
6.556642851e-19
3.211359025e-19
2.759913378e-19
7.45378624e-18
3.97321147e-18
-2.358703749e-18
-7.728630662e-20
1.125977216e-17
-1.943665119e-18
-7.749762009e-19
-7.971344928e-18
5.563794428e-18
6.134712405e-18
-7.770394541e-19
-1.263062623e-18
-1.576909735e-18
-9.876436271e-19
-3.410575349e-19
2.108620589e-19
7.135434298e-19
1.257340765e-18
-3.464552178e-18
-1.016168025e-18
4.55053354e-18
-1.234862931e-19
1.07758192e-18
1.74551011e-19
1.135882094e-18
-1.344698016e-18
-1.384616153e-18
3.639691013e-19
-4.019625257e-18
2.0685088e-18
-2.415201227e-18
2.810466063e-18
-8.422622566e-18
7.252709718e-18
-3.961381877e-18
-3.178726111e-18
4.114673889e-18
-3.740919488e-18
1.649405964e-18
2.349173841e-18
-2.953327497e-18
5.327426019e-18
-3.008493518e-18
2.556153723e-18
9.908695231e-19
1.549926669e-18
3.60377831e-18
3.463572547e-18
2.591364227e-18
3.787130055e-18
-3.307379669e-18
9.529298149e-19
-5.918624751e-18
2.163837056e-18
8.462058561e-18
2.418613561e-18
-9.583587933e-18
3.062471421e-18
3.971075715e-18
6.409195574e-19
2.617693405e-17
7.647765341e-17
6.130973203e-17
0
0
0
0
)


101
(
9.748400664e-15
4.74746004e-17
-1.976760363e-16
-2.596797328e-16
-1.581823815e-17
1.493776094e-17
-2.196449729e-17
1.084703907e-17
-8.025875827e-18
7.947213619e-19
-7.244966634e-19
1.314277958e-17
-1.06465236e-17
-2.795889755e-18
1.103021023e-18
1.642639209e-18
1.06682368e-18
5.928731065e-19
6.643912838e-19
1.175809669e-18
1.770667871e-18
-9.904501369e-18
5.23088324e-18
4.219935071e-18
1.561316553e-18
4.615754668e-19
4.974454513e-19
9.913742953e-19
1.414446284e-18
1.500240212e-18
1.238236618e-18
7.847180263e-19
3.714311916e-19
1.990254264e-19
4.439152162e-18
4.57364786e-18
5.559192455e-19
-1.740425399e-19
6.188017257e-18
2.484956921e-18
9.489561222e-20
-4.271741923e-18
2.896975025e-19
3.999389562e-18
1.698843279e-18
-4.490153359e-19
-1.426766277e-18
-1.476066756e-18
-1.030002967e-18
-4.802856321e-19
3.793362446e-20
5.546015122e-19
-1.323546319e-18
-1.716945e-18
9.737422826e-19
8.271566915e-19
4.66978632e-19
6.458372565e-20
1.482996062e-19
-6.850577983e-19
-1.406252852e-18
-8.858974431e-19
-2.012903301e-18
-5.470371298e-19
-5.328825785e-19
9.10097969e-19
-2.190011473e-18
5.180157487e-19
-7.825152164e-20
-1.645684857e-18
1.020971303e-18
6.754504032e-19
1.018680439e-18
1.968516112e-18
2.544024148e-19
1.546826003e-18
5.443846239e-19
6.626271303e-19
5.500509396e-19
-3.522505584e-19
-2.920928485e-19
3.996924809e-19
1.145905459e-18
1.345132253e-18
-1.758082172e-18
-2.503054249e-18
-5.223794228e-18
2.418821233e-18
1.066943497e-18
3.18459936e-18
8.704584869e-18
5.48948377e-18
1.792116726e-18
5.646817242e-18
3.295523729e-17
9.701706142e-17
6.037738692e-17
0
0
0
0
)


101
(
9.610883216e-15
2.641834367e-17
-2.010449719e-16
-2.533554715e-16
-1.923050742e-17
1.424702583e-17
-1.975504306e-17
8.817810966e-18
-6.636297692e-18
5.343163852e-20
-6.703723539e-19
1.127418036e-17
-7.781966873e-18
-3.61339717e-18
5.216102981e-19
1.566398006e-18
1.158134354e-18
6.387929308e-19
5.954604527e-19
1.021466265e-18
1.622123294e-18
-6.842747287e-18
1.744644308e-18
3.8428072e-18
2.179005539e-18
8.356890807e-19
5.242540099e-19
8.477357398e-19
1.27395984e-18
1.459840348e-18
1.297163245e-18
8.764114957e-19
4.134966248e-19
1.238303579e-19
2.560297079e-18
3.933033685e-18
2.091338853e-18
6.153100843e-19
3.595033376e-18
3.35064753e-18
1.450453812e-18
-1.792686113e-18
-1.116402262e-18
1.612307145e-18
1.774678887e-18
2.698889663e-19
-1.129001804e-18
-1.77743288e-18
-1.732509081e-18
-1.330284422e-18
-8.396458174e-19
-3.48539533e-19
-9.708014123e-19
-1.729523876e-18
-9.385346047e-19
-3.429685722e-19
-4.044318315e-19
-7.825746155e-19
-1.055565194e-18
-1.541901458e-18
-2.158241729e-18
-2.189841822e-18
-2.350251134e-18
-1.667846736e-18
-7.849600233e-19
4.407536199e-19
-4.479764988e-21
2.39597464e-19
4.082362108e-19
-1.74400664e-19
6.816906178e-19
1.629558813e-18
1.995490728e-18
2.236294872e-18
1.573447591e-18
1.376078885e-18
1.245616422e-18
1.105231577e-18
4.801343384e-19
-1.220584647e-18
-2.295518073e-18
-1.276121872e-18
8.965497406e-19
1.039641135e-18
-1.857807209e-18
-5.072461334e-18
-3.557890405e-18
4.361802501e-18
-2.13411433e-18
5.488312436e-18
1.829581776e-17
8.698149623e-18
-2.996295287e-19
9.499694427e-18
6.497300105e-17
8.933584242e-17
4.672839103e-17
0
0
0
0
)


101
(
9.475408837e-15
5.437286146e-18
-2.047288738e-16
-2.473864287e-16
-2.232466418e-17
1.347640643e-17
-1.769699484e-17
7.058437771e-18
-5.492223288e-18
-5.092163583e-19
-6.785412542e-19
9.625506178e-18
-5.523314381e-18
-3.985554827e-18
-5.603564371e-20
1.41720394e-18
1.22912589e-18
6.943428987e-19
5.44752705e-19
8.759363008e-19
1.451629175e-18
-4.621737507e-18
-1.370385718e-19
2.893989191e-18
2.412824822e-18
1.204092722e-18
6.406768174e-19
7.475323914e-19
1.118120129e-18
1.359647039e-18
1.279482596e-18
9.105761134e-19
4.214843246e-19
2.968397089e-20
1.336115155e-18
2.870390989e-18
2.490005269e-18
1.341355135e-18
2.456471149e-18
3.051099868e-18
2.162375409e-18
-1.096712216e-19
-9.726371287e-19
1.824426438e-19
9.15392054e-19
2.53316762e-19
-1.035903498e-18
-2.063837022e-18
-2.472622003e-18
-2.360748543e-18
-1.991317361e-18
-1.551336488e-18
-1.630519503e-18
-2.164700445e-18
-2.212573682e-18
-1.95053561e-18
-1.947585402e-18
-2.322848919e-18
-2.859199514e-18
-3.490584233e-18
-4.174179232e-18
-4.517882048e-18
-4.484905389e-18
-3.776799692e-18
-2.475394979e-18
-8.276158297e-19
1.235164957e-19
5.97341004e-19
8.389946052e-19
6.681297804e-19
9.10202625e-19
1.665248851e-18
2.197898703e-18
2.271772799e-18
1.850723679e-18
1.391268913e-18
1.129234489e-18
9.014317841e-19
5.02507315e-20
-2.046038154e-18
-3.400323242e-18
-2.151698251e-18
1.691214127e-19
1.68976796e-18
6.775598987e-19
-2.204453249e-18
2.276183596e-18
6.443159536e-18
4.29644836e-18
1.235787894e-17
1.858245194e-17
7.752425041e-18
5.975191422e-18
4.467329431e-17
7.217139287e-17
7.124672737e-17
4.705788425e-17
0
0
0
0
)


101
(
9.341932632e-15
-1.52397209e-17
-2.087374225e-16
-2.417643543e-16
-2.511620271e-17
1.265454963e-17
-1.579497438e-17
5.544019004e-18
-4.571413845e-18
-9.328690925e-19
-7.227945764e-19
8.183616716e-18
-3.767861118e-18
-4.047710925e-18
-5.867135741e-19
1.209762529e-18
1.267609966e-18
7.614416979e-19
5.160965829e-19
7.443645387e-19
1.268341893e-18
-3.040616171e-18
-1.036021278e-18
1.865729291e-18
2.296426305e-18
1.460773647e-18
7.903390836e-19
6.979735547e-19
9.608535765e-19
1.202838369e-18
1.182927653e-18
8.636798796e-19
3.636867813e-19
-1.13433706e-19
4.640013493e-19
1.713920588e-18
2.10929882e-18
1.5781127e-18
1.906008421e-18
2.480083497e-18
2.246507622e-18
8.306979676e-19
-4.171050011e-19
-4.175488129e-19
-1.203565427e-20
-3.051223982e-19
-1.348747877e-18
-2.541234378e-18
-3.347112469e-18
-3.610661408e-18
-3.476226397e-18
-3.1604204e-18
-3.047342445e-18
-3.329455478e-18
-3.633012759e-18
-3.760377051e-18
-3.95654562e-18
-4.46662112e-18
-5.285968411e-18
-6.297776281e-18
-7.383511305e-18
-8.213045791e-18
-8.468080752e-18
-7.841412393e-18
-6.264016993e-18
-4.070215473e-18
-2.067438407e-18
-6.16755844e-19
3.829006569e-19
8.675117937e-19
1.052725733e-18
1.338424071e-18
1.648769591e-18
1.621570366e-18
1.223445787e-18
8.044922347e-19
6.204060951e-19
6.247753422e-19
2.092375257e-19
-1.383978027e-18
-2.354505405e-18
-9.844613982e-19
1.814246136e-18
5.712990569e-18
7.819974943e-18
4.471185434e-18
8.705905519e-18
1.278941777e-17
7.493387539e-18
6.355903318e-18
1.451574449e-17
1.236713925e-17
3.205621621e-17
6.335703765e-17
4.897947569e-17
7.818592688e-17
5.97550077e-17
0
0
0
0
)


101
(
9.207024779e-15
-3.55692597e-17
-2.130217779e-16
-2.364839157e-16
-2.764757338e-17
1.178668929e-17
-1.406559485e-17
4.243591764e-18
-3.832680333e-18
-1.248749952e-18
-7.983472861e-19
6.913032978e-18
-2.435240357e-18
-3.910453775e-18
-1.036936277e-18
9.611010056e-19
1.273148163e-18
8.313205e-19
5.110975875e-19
6.25722548e-19
1.078476681e-18
-1.946272417e-18
-1.366565103e-18
9.719514213e-19
1.935850743e-18
1.543829276e-18
9.201955391e-19
6.779615862e-19
8.039045625e-19
1.001042357e-18
1.002124161e-18
7.136807965e-19
2.107577162e-19
-3.358900176e-19
-2.420437664e-19
5.803474085e-19
1.236227223e-18
1.22292713e-18
1.365778911e-18
1.783652946e-18
1.863564175e-18
1.101235587e-18
-1.59121951e-20
-6.229555847e-19
-7.558932353e-19
-1.114355481e-18
-2.054111842e-18
-3.328831451e-18
-4.455442812e-18
-5.119489793e-18
-5.318747338e-18
-5.222260457e-18
-5.132676792e-18
-5.296685044e-18
-5.635480989e-18
-5.976409957e-18
-6.391644389e-18
-7.079568397e-18
-8.166102377e-18
-9.620166556e-18
-1.129589359e-17
-1.284297576e-17
-1.380464673e-17
-1.369555644e-17
-1.223011082e-17
-9.683645763e-18
-6.873995794e-18
-4.363488708e-18
-2.098317452e-18
-2.088544355e-19
8.468797991e-19
1.150240291e-18
1.273708966e-18
1.263170636e-18
8.826708558e-19
4.165241931e-19
3.707283748e-19
9.108162659e-19
1.370095784e-18
7.981757457e-19
4.488065339e-19
1.244573211e-18
3.786850544e-18
8.821129704e-18
1.225325202e-17
9.833040117e-18
9.661474485e-18
8.953140754e-18
-9.030323732e-20
1.436910931e-18
4.272995169e-18
1.144218289e-17
4.857646441e-17
6.174977135e-17
5.827427227e-17
1.014950136e-16
6.31127989e-17
0
0
0
0
)


101
(
9.072422568e-15
-3.327494087e-16
-2.434779522e-16
-2.315987355e-16
-2.993453692e-17
1.087578388e-17
-1.248606116e-17
3.13803236e-18
-3.23867561e-18
-1.49022761e-18
-8.902844349e-19
5.79541861e-18
-1.43980701e-18
-3.650837091e-18
-1.401856597e-18
6.873027851e-19
1.240720197e-18
8.909512728e-19
5.180862628e-19
5.244929002e-19
8.853483116e-19
-1.215845309e-18
-1.402864059e-18
2.690137192e-19
1.441425976e-18
1.457776068e-18
9.777732009e-19
6.514271071e-19
6.448578296e-19
7.611939011e-19
7.39768607e-19
4.507639513e-19
-6.660135891e-20
-6.731651465e-19
-9.092737746e-19
-5.189614564e-19
6.589524548e-20
3.284991806e-19
5.116762626e-19
8.467374118e-19
1.073546194e-18
7.624768995e-19
-4.086423587e-20
-8.346172444e-19
-1.395676012e-18
-2.026931589e-18
-3.058970135e-18
-4.457176534e-18
-5.86477526e-18
-6.922479252e-18
-7.503419131e-18
-7.70705241e-18
-7.790569528e-18
-7.984294921e-18
-8.340327543e-18
-8.778930251e-18
-9.30442727e-18
-1.007458509e-17
-1.129177824e-17
-1.302803991e-17
-1.518968104e-17
-1.744066559e-17
-1.926389381e-17
-2.001856373e-17
-1.911911873e-17
-1.659986633e-17
-1.330991523e-17
-9.995992886e-18
-6.496820818e-18
-2.722692901e-18
2.549799643e-19
1.583393315e-18
2.093147695e-18
2.644743283e-18
2.738657903e-18
2.128250735e-18
1.786060931e-18
2.717711769e-18
4.238156252e-18
4.801409291e-18
4.777366179e-18
4.509281064e-18
5.223201839e-18
8.258272704e-18
9.829217454e-18
6.662597918e-18
3.638001701e-18
5.669720881e-18
-4.807285648e-18
-2.41210033e-18
2.474520322e-19
1.254596768e-17
5.368823676e-17
7.235385642e-17
9.361698888e-17
1.150425898e-16
7.703637176e-17
0
0
0
0
)


101
(
8.936446942e-15
-3.540790157e-16
-2.492913723e-16
-2.270847077e-16
-3.197496132e-17
9.970324899e-18
-1.104623513e-17
2.222236972e-18
-2.773009075e-18
-1.659292805e-18
-9.878612709e-19
4.8130161e-18
-7.199394169e-19
-3.338283203e-18
-1.690820307e-18
4.009510181e-19
1.171238585e-18
9.364268863e-19
5.336687439e-19
4.411458724e-19
6.970293815e-19
-7.583005336e-19
-1.318339611e-18
-2.577209958e-19
8.941998163e-19
1.209489477e-18
9.189319848e-19
5.84662455e-19
4.725282771e-19
4.876699545e-19
4.037491869e-19
7.139177954e-20
-4.86842949e-19
-1.161531131e-18
-1.628993097e-18
-1.61777604e-18
-1.277437185e-18
-9.878995689e-19
-7.696779995e-19
-4.685603795e-19
-1.718358828e-19
-1.746088609e-19
-6.24438306e-19
-1.339803498e-18
-2.119575617e-18
-3.040177587e-18
-4.294243828e-18
-5.900579866e-18
-7.593807404e-18
-9.020458725e-18
-9.982269646e-18
-1.052399065e-17
-1.084519267e-17
-1.117425773e-17
-1.161350381e-17
-1.210404501e-17
-1.263393371e-17
-1.333421834e-17
-1.445092854e-17
-1.61564569e-17
-1.843487927e-17
-2.099956185e-17
-2.336836324e-17
-2.486755329e-17
-2.466760924e-17
-2.240839732e-17
-1.880015848e-17
-1.487090877e-17
-1.051262997e-17
-5.096604227e-18
2.237345913e-19
3.395687147e-18
4.858157005e-18
6.455717339e-18
7.745469453e-18
7.231777821e-18
5.779698551e-18
6.057116493e-18
8.265761418e-18
1.013968555e-17
1.021954003e-17
8.487620554e-18
5.999948413e-18
3.105105895e-18
5.616667898e-19
-1.746578188e-18
-1.931026658e-18
2.062177381e-18
-6.52042762e-18
-8.087917405e-18
-1.924059867e-18
1.12467773e-17
5.475789684e-17
1.008881866e-16
1.201753128e-16
1.196587136e-16
9.457584201e-17
0
0
0
0
)


101
(
8.80247066e-15
-9.500488928e-17
-2.274759351e-16
-2.188010499e-16
-3.378448105e-17
9.047630999e-18
-9.761889775e-18
1.441523876e-18
-2.414317877e-18
-1.781977569e-18
-1.097535364e-18
3.945655959e-18
-2.271829323e-19
-3.012037014e-18
-1.907334231e-18
1.056990392e-19
1.064743248e-18
9.645498852e-19
5.566973021e-19
3.694630601e-19
5.193066633e-19
-5.01164456e-19
-1.212290159e-18
-6.498888765e-19
3.368512045e-19
8.245344407e-19
7.274144862e-19
4.407898823e-19
2.571263677e-19
1.709587207e-19
-1.980666885e-21
-4.14258595e-19
-1.058089241e-18
-1.823625465e-18
-2.468141857e-18
-2.767490428e-18
-2.73313135e-18
-2.602054565e-18
-2.459856492e-18
-2.229475971e-18
-1.920133059e-18
-1.71637558e-18
-1.838623164e-18
-2.328053156e-18
-3.120944981e-18
-4.232378072e-18
-5.736857454e-18
-7.611930194e-18
-9.603973978e-18
-1.137551188e-17
-1.269153197e-17
-1.35339053e-17
-1.407170403e-17
-1.454736578e-17
-1.507054214e-17
-1.559624925e-17
-1.60673952e-17
-1.655266262e-17
-1.732186357e-17
-1.862393631e-17
-2.053022383e-17
-2.280053098e-17
-2.501515091e-17
-2.658417799e-17
-2.664899278e-17
-2.448368399e-17
-2.039945542e-17
-1.567283767e-17
-1.062562833e-17
-4.230368715e-18
2.940909577e-18
7.988896089e-18
1.032586278e-17
1.2567486e-17
1.507293544e-17
1.495662834e-17
1.178192529e-17
9.602732376e-18
1.088641594e-17
1.398548167e-17
1.464193159e-17
1.072130517e-17
3.682248939e-18
-7.461372604e-18
-1.535726378e-17
-1.642589847e-17
-1.145657924e-17
-5.098669609e-18
-4.218399006e-18
-1.551517766e-17
5.659046314e-19
1.366254953e-17
3.826557964e-17
1.025439853e-16
1.279517656e-16
1.552163765e-16
1.174372534e-16
0
0
0
0
)


101
(
8.670448322e-15
-1.141899252e-16
-2.328130998e-16
-2.153282482e-16
-3.542038213e-17
8.097025643e-18
-8.607342689e-18
7.882057357e-19
-2.14702631e-18
-1.888388299e-18
-1.20836296e-18
3.178670808e-18
8.724548327e-20
-2.700742166e-18
-2.074251241e-18
-1.910190395e-19
9.208792526e-19
9.649281868e-19
5.731721592e-19
3.079037878e-19
3.479077872e-19
-3.959679686e-19
-1.140989967e-18
-9.63623611e-19
-2.148802945e-19
3.284550924e-19
3.906155505e-19
1.778775373e-19
-3.660053547e-20
-2.038929979e-19
-4.748926471e-19
-9.986024248e-19
-1.772207479e-18
-2.670614149e-18
-3.48303167e-18
-4.027778376e-18
-4.288887189e-18
-4.410097635e-18
-4.465053122e-18
-4.395093402e-18
-4.159253689e-18
-3.85875593e-18
-3.713967578e-18
-3.910299256e-18
-4.548091685e-18
-5.697749087e-18
-7.385735468e-18
-9.521674232e-18
-1.181880013e-17
-1.391306288e-17
-1.551980415e-17
-1.656858267e-17
-1.721520679e-17
-1.77155459e-17
-1.823069816e-17
-1.873030117e-17
-1.905310594e-17
-1.918845229e-17
-1.937404456e-17
-1.993813953e-17
-2.103861039e-17
-2.245012462e-17
-2.374724348e-17
-2.446646835e-17
-2.396667404e-17
-2.139288525e-17
-1.655352531e-17
-1.059273451e-17
-4.540709156e-18
2.360824535e-18
1.034088025e-17
1.649665237e-17
1.901198606e-17
2.0545692e-17
2.286938565e-17
2.275457207e-17
1.780077588e-17
1.158914883e-17
9.000662394e-18
1.152986739e-17
1.308529595e-17
6.843492157e-18
-6.033478434e-18
-2.584973744e-17
-3.838777481e-17
-3.686771985e-17
-3.142094381e-17
-2.398091465e-17
4.781972991e-18
-2.994150463e-17
-7.076418514e-18
5.049864791e-18
-2.883029571e-19
9.764366278e-17
1.580000001e-16
2.169474514e-16
1.316687952e-16
0
0
0
0
)


101
(
8.537088676e-15
-1.330975255e-16
-2.38348982e-16
-2.157732027e-16
-3.6882956e-17
7.184693132e-18
-7.588816654e-18
2.606095144e-19
-1.948612412e-18
-1.970010725e-18
-1.320367942e-18
2.497915882e-18
2.599434032e-19
-2.430184392e-18
-2.20363122e-18
-4.871956259e-19
7.423426808e-19
9.290856765e-19
5.748148674e-19
2.463508832e-19
1.764910939e-19
-3.987768225e-19
-1.131771401e-18
-1.247293466e-18
-7.683893481e-19
-2.658067958e-19
-1.001274228e-19
-2.306949661e-19
-4.43320531e-19
-6.681630288e-19
-1.024730487e-18
-1.670262786e-18
-2.613222902e-18
-3.703445748e-18
-4.70613734e-18
-5.458901556e-18
-5.967281071e-18
-6.347650384e-18
-6.668503299e-18
-6.856159311e-18
-6.810611936e-18
-6.540401334e-18
-6.219738317e-18
-6.114584559e-18
-6.472532989e-18
-7.483985973e-18
-9.212867058e-18
-1.153666903e-17
-1.410667103e-17
-1.647935665e-17
-1.829433635e-17
-1.942472696e-17
-2.001279658e-17
-2.034541911e-17
-2.065971819e-17
-2.094144565e-17
-2.09632184e-17
-2.059078706e-17
-1.998245026e-17
-1.95312738e-17
-1.95126818e-17
-1.973281665e-17
-1.965704594e-17
-1.881412206e-17
-1.689378512e-17
-1.333819554e-17
-7.638882632e-18
-3.688717115e-19
7.001522079e-18
1.431913737e-17
2.208997356e-17
2.811423229e-17
2.982736484e-17
2.919207935e-17
2.924939305e-17
2.785037383e-17
2.134376115e-17
1.104814036e-17
2.012118121e-18
1.27579633e-19
1.036580564e-18
-6.825719126e-18
-2.51374481e-17
-5.214683205e-17
-6.682076583e-17
-5.653393271e-17
-6.454049431e-17
-5.34534932e-17
7.232949138e-18
-6.098859512e-17
-2.275423576e-17
-2.030778883e-17
-6.51152647e-17
1.027212827e-16
2.005393682e-16
2.789395442e-16
1.343335967e-16
6.113127207e-22
0
0
0
)


101
(
8.402458538e-15
-4.363812949e-16
-2.44099693e-16
-2.127932822e-16
-3.818448494e-17
6.294959691e-18
-6.701890242e-18
-1.812495747e-19
-1.798893181e-18
-2.031567312e-18
-1.444025227e-18
1.890482842e-18
3.242938203e-19
-2.204832736e-18
-2.313738534e-18
-7.854877062e-19
5.226570425e-19
8.506935102e-19
5.513261543e-19
1.729362392e-19
2.650617555e-21
-4.838469141e-19
-1.19503269e-18
-1.530068104e-18
-1.326435717e-18
-9.399454943e-19
-7.426214934e-19
-8.065403136e-19
-1.002494424e-18
-1.25627757e-18
-1.671197843e-18
-2.428572668e-18
-3.562625483e-18
-4.896338383e-18
-6.140708409e-18
-7.104061677e-18
-7.802904101e-18
-8.394061831e-18
-8.977044543e-18
-9.479495272e-18
-9.728617006e-18
-9.619711351e-18
-9.239324772e-18
-8.870864447e-18
-8.870022952e-18
-9.575920994e-18
-1.116051377e-17
-1.352519822e-17
-1.626854276e-17
-1.884362171e-17
-2.076468755e-17
-2.183592568e-17
-2.217620164e-17
-2.211162821e-17
-2.196085952e-17
-2.176821715e-17
-2.128509405e-17
-2.024011039e-17
-1.865387375e-17
-1.695294794e-17
-1.559651318e-17
-1.452624706e-17
-1.307279956e-17
-1.052591217e-17
-6.707210384e-18
-1.729951689e-18
4.644388551e-18
1.253227514e-17
2.077944172e-17
2.837285886e-17
3.523001923e-17
3.986185644e-17
3.983295665e-17
3.623812459e-17
3.262325801e-17
2.865144527e-17
2.094482375e-17
8.164301626e-18
-7.512985978e-18
-1.759351414e-17
-2.130866787e-17
-3.096176531e-17
-5.096309019e-17
-7.715969534e-17
-8.671945966e-17
-5.672127832e-17
-9.736333139e-17
-7.106863207e-17
-6.192587856e-18
-9.927182659e-17
-3.280819131e-17
-6.360517257e-17
-1.438170905e-16
9.584392048e-17
2.309616641e-16
3.292630717e-16
1.339949511e-16
0
0
0
0
)


101
(
8.269774194e-15
-4.561244977e-16
-2.501107076e-16
-2.101863457e-16
-3.935480388e-17
5.426315929e-18
-5.929335013e-18
-5.363494318e-19
-1.705021766e-18
-2.09890409e-18
-1.575686583e-18
1.341179325e-18
2.977548991e-19
-2.03273882e-18
-2.415202393e-18
-1.097251986e-18
2.525630768e-19
7.228340143e-19
4.921453716e-19
7.65578235e-20
-1.847238856e-19
-6.413979453e-19
-1.33471992e-18
-1.837013785e-18
-1.899502526e-18
-1.692305582e-18
-1.534782537e-18
-1.567794002e-18
-1.745840768e-18
-2.00795016e-18
-2.451938842e-18
-3.287444541e-18
-4.597001125e-18
-6.20509866e-18
-7.751504877e-18
-8.961217279e-18
-9.827018203e-18
-1.055516807e-17
-1.13307484e-17
-1.212917221e-17
-1.272444668e-17
-1.288684237e-17
-1.257365276e-17
-1.201490448e-17
-1.162537378e-17
-1.18878963e-17
-1.31192714e-17
-1.531676404e-17
-1.806924904e-17
-2.071431221e-17
-2.261919354e-17
-2.348266586e-17
-2.338629895e-17
-2.269903801e-17
-2.18260735e-17
-2.090642686e-17
-1.971433735e-17
-1.786333861e-17
-1.519915817e-17
-1.211403134e-17
-9.275553127e-18
-6.938662173e-18
-4.440571244e-18
-6.495604359e-19
4.856208079e-18
1.132760782e-17
1.813795352e-17
2.54591774e-17
3.324171755e-17
4.044166192e-17
4.591225652e-17
4.830647011e-17
4.587049501e-17
3.925139662e-17
3.189734839e-17
2.505883482e-17
1.66667376e-17
3.677392117e-18
-1.625627231e-17
-3.580021445e-17
-4.854420355e-17
-6.204387953e-17
-7.890657851e-17
-8.959881628e-17
-8.064287557e-17
-2.502633382e-17
-1.027823241e-16
-6.989119289e-17
-3.940020633e-17
-1.197505207e-16
-8.191673195e-18
-1.081443666e-16
-1.92501615e-16
6.327941239e-17
2.4862726e-16
3.700534074e-16
1.703000462e-16
6.113127207e-22
0
0
0
)


101
(
8.138993612e-15
-1.875903769e-16
-2.894981352e-16
-2.080050277e-16
-4.040762602e-17
4.583992809e-18
-5.267138707e-18
-8.302116603e-19
-1.651352125e-18
-2.169136278e-18
-1.715827245e-18
8.358843386e-19
1.987953602e-19
-1.918676975e-18
-2.522261375e-18
-1.425944756e-18
-6.108553304e-20
5.365398594e-19
3.849541439e-19
-5.278095204e-20
-3.992318659e-19
-8.631943511e-19
-1.552070627e-18
-2.188545148e-18
-2.502198495e-18
-2.518590267e-18
-2.467802629e-18
-2.523626526e-18
-2.700129457e-18
-2.964326863e-18
-3.408698581e-18
-4.270684187e-18
-5.707880194e-18
-7.58056018e-18
-9.472898396e-18
-1.099083989e-17
-1.20367986e-17
-1.283898541e-17
-1.369945187e-17
-1.469663277e-17
-1.561085944e-17
-1.609790042e-17
-1.595476462e-17
-1.529542755e-17
-1.453347389e-17
-1.425041587e-17
-1.492908531e-17
-1.671520343e-17
-1.924804396e-17
-2.178607525e-17
-2.354263935e-17
-2.40576731e-17
-2.334670828e-17
-2.183084855e-17
-2.002548553e-17
-1.818912959e-17
-1.61574491e-17
-1.347319496e-17
-9.801613624e-18
-5.381721756e-18
-1.059770228e-18
2.478846291e-18
5.60203614e-18
9.773389894e-18
1.604349077e-17
2.365077336e-17
3.073782224e-17
3.662642845e-17
4.224821306e-17
4.769111775e-17
5.139975854e-17
5.140018595e-17
4.642114018e-17
3.719787419e-17
2.692988895e-17
1.78232471e-17
9.273919849e-18
-2.2285768e-18
-2.306930191e-17
-5.001507656e-17
-7.351515402e-17
-9.29694369e-17
-1.032708641e-16
-8.630177951e-17
-4.784736289e-17
2.037962267e-17
-7.791888172e-17
-8.119462072e-17
-8.870622028e-17
-1.075069508e-16
5.087433097e-17
-1.324573966e-16
-1.497992253e-16
1.385711045e-17
2.685074193e-16
4.215835229e-16
2.947631743e-16
3.661372998e-21
0
0
0
)


101
(
8.006997967e-15
-2.050958193e-16
-2.969030354e-16
-2.062142681e-16
-4.138429222e-17
3.774614091e-18
-4.710023847e-18
-1.07359776e-18
-1.62588732e-18
-2.243106536e-18
-1.871844948e-18
3.674339488e-19
4.02302992e-20
-1.866692079e-18
-2.65032249e-18
-1.771540317e-18
-4.307591753e-19
2.774066234e-19
2.137539576e-19
-2.29209073e-19
-6.540666376e-19
-1.152151526e-18
-1.852125481e-18
-2.598734267e-18
-3.141121976e-18
-3.41068369e-18
-3.53178577e-18
-3.664305751e-18
-3.874243054e-18
-4.151012392e-18
-4.581999766e-18
-5.420695378e-18
-6.907264605e-18
-8.987746491e-18
-1.123408868e-17
-1.311765429e-17
-1.439185475e-17
-1.524283445e-17
-1.607115003e-17
-1.711508202e-17
-1.822732674e-17
-1.900744455e-17
-1.908794582e-17
-1.841297451e-17
-1.731689594e-17
-1.642619937e-17
-1.638139332e-17
-1.75065827e-17
-1.95611103e-17
-2.178886769e-17
-2.325739769e-17
-2.330598517e-17
-2.184378897e-17
-1.933676605e-17
-1.644728527e-17
-1.360127555e-17
-1.071276904e-17
-7.314146699e-18
-2.904492104e-18
2.508481596e-18
8.084166653e-18
1.271203497e-17
1.615636029e-17
1.979877494e-17
2.549454352e-17
3.33374464e-17
4.061938332e-17
4.49635096e-17
4.724976735e-17
4.947963757e-17
5.098519314e-17
4.900442069e-17
4.197533295e-17
3.085076824e-17
1.869725446e-17
8.078444746e-18
-5.252307801e-19
-1.01946218e-17
-2.917797619e-17
-5.903389746e-17
-9.050810059e-17
-1.153421199e-16
-1.18016285e-16
-7.113913072e-17
-6.107566701e-18
5.084674174e-17
-5.130169953e-17
-1.26587853e-16
-1.440051652e-16
-6.279387307e-17
6.842132533e-17
-1.302146032e-16
-2.154663085e-17
-2.150214463e-17
2.19995738e-16
4.665296966e-16
5.274648599e-16
3.052228052e-21
0
0
0
)


101
(
7.873816092e-15
-5.135475509e-16
-2.690540638e-16
-2.047973584e-16
-4.229886402e-17
3.01256345e-18
-4.271894268e-18
-1.275519507e-18
-1.625345348e-18
-2.319730465e-18
-2.040858178e-18
-7.85164737e-20
-1.74663742e-19
-1.876056402e-18
-2.795423704e-18
-2.150200943e-18
-8.664897777e-19
-6.527669597e-20
-3.126156383e-20
-4.655938755e-19
-9.624837554e-19
-1.516581312e-18
-2.243540981e-18
-3.082149757e-18
-3.832145748e-18
-4.365060194e-18
-4.705848976e-18
-4.97533506e-18
-5.265886709e-18
-5.581889676e-18
-6.001571831e-18
-6.774147243e-18
-8.2221168e-18
-1.041455294e-17
-1.2964651e-17
-1.524398253e-17
-1.681130483e-17
-1.772237443e-17
-1.842555871e-17
-1.933125001e-17
-2.045167985e-17
-2.140575156e-17
-2.168962648e-17
-2.104579492e-17
-1.96643834e-17
-1.814662682e-17
-1.724864235e-17
-1.748869353e-17
-1.880529039e-17
-2.050637721e-17
-2.155379557e-17
-2.107595838e-17
-1.881673666e-17
-1.523589853e-17
-1.117998189e-17
-7.291735947e-18
-3.626402266e-18
2.250477805e-19
4.925436345e-18
1.074229029e-17
1.704469473e-17
2.247257854e-17
2.606846458e-17
2.856908939e-17
3.243688503e-17
3.92009156e-17
4.637487881e-17
4.973072317e-17
4.876541e-17
4.692587e-17
4.568138945e-17
4.226868169e-17
3.408915229e-17
2.190517229e-17
8.697840878e-18
-2.958897192e-18
-1.204143011e-17
-2.060585853e-17
-3.634475359e-17
-6.374186967e-17
-9.611022529e-17
-1.223177659e-16
-1.193779059e-16
-5.177538218e-17
2.67315885e-17
5.800135728e-17
-4.166872507e-17
-1.775994525e-16
-1.934484906e-16
-1.735058097e-17
-3.066069656e-19
-1.164139948e-16
1.139825207e-16
-1.144350646e-18
4.83966791e-17
5.561730849e-16
7.734763993e-16
1.159326394e-20
0
0
0
)


101
(
7.742531758e-15
-5.319969583e-16
-2.756099195e-16
-2.038449296e-16
-4.024933031e-17
2.290543892e-18
-3.916931031e-18
-1.464346959e-18
-1.643675592e-18
-2.409682007e-18
-2.231941973e-18
-5.196459342e-19
-4.366768315e-19
-1.941254884e-18
-2.969666517e-18
-2.562461291e-18
-1.369556116e-18
-4.970087445e-19
-3.64383868e-19
-7.809671684e-19
-1.342544869e-18
-1.96649029e-18
-2.739896461e-18
-3.659083153e-18
-4.589420603e-18
-5.376635013e-18
-5.970819446e-18
-6.433474315e-18
-6.850727137e-18
-7.245637041e-18
-7.671181852e-18
-8.357232552e-18
-9.686617657e-18
-1.186190837e-17
-1.461065002e-17
-1.726119839e-17
-1.916583652e-17
-2.017396005e-17
-2.068548922e-17
-2.128841478e-17
-2.220362684e-17
-2.313200742e-17
-2.351600855e-17
-2.290419173e-17
-2.128291899e-17
-1.91494928e-17
-1.732282615e-17
-1.650579493e-17
-1.685551972e-17
-1.781997654e-17
-1.833746098e-17
-1.735131076e-17
-1.43733932e-17
-9.773821339e-18
-4.55500098e-18
3.666921187e-19
4.66973863e-18
8.666697622e-18
1.314290829e-17
1.862735871e-17
2.483119937e-17
3.052920176e-17
3.414995027e-17
3.5413236e-17
3.669890474e-17
4.098835256e-17
4.734478875e-17
5.05218848e-17
4.753512949e-17
4.184010349e-17
3.748251405e-17
3.287246541e-17
2.435435403e-17
1.183094468e-17
-1.93306735e-18
-1.441123954e-17
-2.430812899e-17
-3.268049408e-17
-4.501732518e-17
-6.516576054e-17
-8.93956959e-17
-1.107644769e-16
-1.069290546e-16
-3.711569513e-17
3.941079116e-17
4.377338794e-17
-5.793637169e-17
-2.0244831e-16
-2.035908338e-16
2.489115797e-17
-1.251914117e-16
-9.34687818e-17
2.081024424e-16
2.972275408e-17
-7.980305709e-17
7.439056203e-16
8.525191229e-16
7.93189094e-21
0
0
0
)


101
(
7.613133722e-15
-2.55119829e-16
-2.82360248e-16