/*--------------------------------*- C++ -*----------------------------------*\
| =========                 |                                                 |
| \\      /  F ield         | OpenFOAM: The Open Source CFD Toolbox           |
|  \\    /   O peration     | Version:  2.3.1                                 |
|   \\  /    A nd           | Web:      www.OpenFOAM.org                      |
|    \\/     M anipulation  |                                                 |
\*---------------------------------------------------------------------------*/
FoamFile
{
    version     2.0;
    format      ascii;
    class       dictionary;
    location    "constant";
    object      PM30;
}
// * * * * * * * * * * * * * * * * * * * * * * * * * * * * * * * * * * * * * //

PM30_table
101
(

101
(
-1.949803292e-08
-7.627332949e-05
-0.0001634879917
-0.0003013047165
-0.0004608280768
-0.0006176947376
-0.0007636877973
-0.0009194655308
-0.001062736371
-0.00120359091
-0.001334880372
-0.001461573499
-0.001574661104
-0.001684044179
-0.001772528421
-0.001839799646
-0.001882244853
-0.001891854486
-0.001863426986
-0.001791493353
-0.001683879094
-0.001542586896
-0.001358448532
-0.001159031069
-0.0009540178492
-0.000750771315
-0.0005593221304
-0.0003869336993
-0.0002320047788
-0.0001009805703
7.933752945e-06
9.286487486e-05
0.0001495808728
0.0001950100871
0.0002083085155
0.0002017030832
-0.0001061713801
-0.0004224035792
-5.431248979e-05
3.747785114e-05
6.303480805e-05
7.454830156e-05
8.339541274e-05
9.087570646e-05
9.6681672e-05
9.995758389e-05
0.0001019977396
0.0001009918309
9.944070871e-05
9.586060874e-05
9.189653391e-05
8.706752881e-05
8.166962775e-05
7.503247168e-05
6.797504833e-05
6.154558183e-05
5.463475544e-05
4.903443809e-05
4.313197519e-05
3.79039891e-05
3.26317102e-05
2.812129097e-05
2.400290203e-05
2.012858442e-05
1.63406175e-05
1.339361787e-05
1.079739118e-05
8.517349257e-06
6.558899025e-06
4.991094254e-06
3.699893173e-06
2.707954258e-06
1.939674347e-06
1.332061369e-06
7.844453323e-07
4.705202287e-07
3.200626711e-07
2.048664038e-07
1.273578845e-07
7.690709283e-08
4.543343179e-08
2.523041968e-08
1.401380746e-08
6.570571415e-09
3.207501889e-09
2.117221802e-09
1.475580213e-09
9.749288374e-10
5.968939815e-10
3.004112802e-10
2.004326325e-10
1.367295411e-10
8.483014873e-11
4.677345647e-11
2.752759002e-11
1.626549253e-11
4.722912944e-12
8.40771775e-12
1.554554938e-11
4.36610391e-11
1.036989596e-10
)


101
(
-1.94980334e-08
-7.436419639e-05
-0.0001605483151
-0.0002965890734
-0.0004535753199
-0.0006072204502
-0.0007491215703
-0.0008991664481
-0.001035878435
-0.001168450536
-0.001290147497
-0.001405510568
-0.001506094099
-0.001600970522
-0.001674380529
-0.001725289043
-0.001750488701
-0.001742759992
-0.001696388527
-0.001607687916
-0.00148232567
-0.001323449446
-0.001124749965
-0.0009094131579
-0.0006886716099
-0.0004707628334
-0.0002657864715
-8.132670528e-05
8.268220496e-05
0.00022104534
0.0003349583703
0.000424009845
0.0004855015188
0.0005304094248
0.0005439130393
0.0005365845179
0.0003023179777
1.596411089e-05
0.0002415299267
0.0003372123195
0.0003630542773
0.0003629951383
0.0003557033692
0.000346205596
0.0003350251922
0.000321717806
0.0003077654352
0.0002913633943
0.0002746665229
0.0002566301609
0.000238642247
0.0002205059802
0.0002027204171
0.0001850768572
0.0001675529856
0.0001507614824
0.0001340204929
0.0001190175557
0.0001046837857
9.159450188e-05
7.936779095e-05
6.840141602e-05
5.846070216e-05
4.949728403e-05
4.133069373e-05
3.429647858e-05
2.811442408e-05
2.273697025e-05
1.81534577e-05
1.428039171e-05
1.104539219e-05
8.396041962e-06
6.305373928e-06
4.636172881e-06
3.268921046e-06
2.269081158e-06
1.569595311e-06
1.059011633e-06
7.002319607e-07
4.517660561e-07
2.847681939e-07
1.730188377e-07
1.029070968e-07
5.819781595e-08
3.174953361e-08
1.720812241e-08
9.667989546e-09
5.859919203e-09
3.411356288e-09
1.924272763e-09
1.164528932e-09
7.190494893e-10
4.645488052e-10
2.860490677e-10
1.826846412e-10
1.124932434e-10
4.366146526e-11
9.983011822e-11
2.193681925e-10
7.056071163e-10
1.495682533e-09
)


101
(
-1.949803381e-08
-7.058972187e-05
-0.000154739462
-0.0002872919407
-0.0004393310233
-0.0005867465625
-0.0007207991731
-0.0008598879886
-0.0009841376011
-0.001101058091
-0.001204687713
-0.001298799704
-0.001376056231
-0.001443921633
-0.001489442295
-0.001510271283
-0.001503785287
-0.001464233965
-0.001385622518
-0.00126586144
-0.001108738294
-0.0009178960564
-0.000691556418
-0.0004468730918
-0.0001966283003
4.983311758e-05
0.0002819560083
0.0004912304357
0.0006753733772
0.0008303943961
0.0009565366558
0.001055836717
0.001127909003
0.001178575579
0.00119723788
0.001177495946
0.001058182494
0.0008354353446
0.0008504388786
0.0009219986782
0.0009451183357
0.0009302319175
0.000898388086
0.0008596728005
0.0008185198927
0.0007764107101
0.0007338974285
0.000690568025
0.0006466528954
0.0006026091344
0.0005587184274
0.0005157229991
0.0004742052474
0.00043449977
0.0003961633138
0.0003594213985
0.000323508764
0.0002896895409
0.0002580431601
0.0002284659114
0.0002012017028
0.0001762024878
0.0001533598321
0.0001326596889
0.0001138946462
9.692689195e-05
8.180145696e-05
6.833909717e-05
5.668935627e-05
4.654566691e-05
3.775074701e-05
3.019564711e-05
2.39024815e-05
1.868473989e-05
1.436251827e-05
1.084660323e-05
8.041573866e-06
5.851965819e-06
4.186439905e-06
2.945819379e-06
2.036443666e-06
1.367911977e-06
8.990497381e-07
5.7475543e-07
3.546277758e-07
2.109215901e-07
1.210582062e-07
7.115838737e-08
4.176994947e-08
2.329343371e-08
1.262535131e-08
7.19668495e-09
4.309804917e-09
2.61625504e-09
1.651130536e-09
9.952523357e-10
3.768350658e-10
1.374974197e-09
3.883121749e-09
1.688607687e-08
4.176401452e-08
)


101
(
-1.94980342e-08
-6.690013237e-05
-0.0001490658146
-0.0002782548868
-0.000425599085
-0.0005672132953
-0.0006940922956
-0.000823263635
-0.0009363887994
-0.001039532002
-0.001127394321
-0.001203178016
-0.001260541839
-0.001305622177
-0.00132789382
-0.001324061556
-0.001291824568
-0.001226561801
-0.001122538439
-0.000977900554
-0.000795964029
-0.0005797428644
-0.0003299933861
-6.073403999e-05
0.000215401702
0.0004884018501
0.0007472564258
0.0009826663115
0.001190547727
0.001366749781
0.00150978155
0.001623729775
0.001709231143
0.001773318021
0.001809565272
0.001809868964
0.001724318128
0.001559248085
0.001489193072
0.001500128495
0.001509683147
0.00149040946
0.001447706706
0.00139159957
0.00132989666
0.001266680539
0.001202532598
0.001138373366
0.001073315747
0.001008639937
0.0009437797356
0.0008797150221
0.0008171597681
0.0007568835897
0.000698696361
0.000642451314
0.0005883645908
0.0005361642273
0.0004866363469
0.0004392168219
0.0003947405202
0.0003533905297
0.0003149370196
0.0002794726508
0.000246723002
0.0002161949597
0.0001882256318
0.0001627508185
0.0001398840291
0.0001195199371
0.0001010570299
8.463758584e-05
7.020822884e-05
5.775769933e-05
4.700277381e-05
3.777232489e-05
2.986198754e-05
2.329439539e-05
1.790076976e-05
1.356606671e-05
1.014556e-05
7.426371986e-06
5.33083379e-06
3.758458039e-06
2.583100103e-06
1.720159515e-06
1.103754095e-06
6.982134599e-07
4.407567356e-07
2.711670066e-07
1.558634522e-07
8.908723651e-08
5.055696797e-08
2.873897877e-08
1.722116715e-08
9.635359967e-09
3.891817421e-09
2.284983366e-08
6.57048455e-08
2.7489816e-07
5.445109941e-07
)


101
(
-1.949803277e-08
-6.329442779e-05
-0.0001435234006
-0.0002694665979
-0.0004123524533
-0.000548564724
-0.0006688937974
-0.0007890967759
-0.0008923055486
-0.0009833440565
-0.001057460903
-0.001117441304
-0.001157836112
-0.001183680616
-0.00118653106
-0.00116245187
-0.001109278533
-0.001023225035
-0.0008989881746
-0.0007344936049
-0.0005329406364
-0.0002964430192
-2.670486499e-05
0.0002638549876
0.0005635190629
0.0008619220002
0.00114772504
0.001411171246
0.001646660354
0.001849463676
0.00201693906
0.002150296679
0.002253147838
0.002334435244
0.0023912889
0.002430804361
0.002366643277
0.002245599591
0.002153215484
0.002116589257
0.002104441742
0.002080773991
0.002035919844
0.001973835502
0.00190094704
0.001823280947
0.00174345345
0.00166380615
0.001583682705
0.001503439033
0.001422385745
0.00134101268
0.001260369181
0.001181965078
0.001105898563
0.001031126593
0.0009589816804
0.0008886232011
0.0008212892925
0.0007555622161
0.0006921202032
0.0006324211785
0.0005755900631
0.0005223330471
0.0004725688085
0.0004253330485
0.0003807242967
0.0003389582165
0.0002999486074
0.0002647378481
0.0002318823759
0.0002016158214
0.0001738160173
0.0001488471307
0.0001264771535
0.0001065413335
8.882812502e-05
7.321522353e-05
5.948490881e-05
4.779862027e-05
3.79879904e-05
2.988127843e-05
2.304839489e-05
1.754761491e-05
1.312054482e-05
9.610774222e-06
6.813231221e-06
4.737916468e-06
3.247380267e-06
2.208322936e-06
1.428437003e-06
8.966275536e-07
5.599850005e-07
3.351868433e-07
2.04909689e-07
1.148848875e-07
5.015185838e-08
2.779897286e-07
7.759489128e-07
3.176963377e-06
6.128756164e-06
)


101
(
-1.949803491e-08
-5.9771795e-05
-0.0001381085181
-0.0002609164941
-0.0003995658751
-0.0005307484616
-0.0006451042285
-0.0007572079159
-0.0008515929954
-0.0009320254451
-0.0009941872735
-0.001040545531
-0.001066495488
-0.001076085965
-0.001062692129
-0.001022016195
-0.0009517875813
-0.0008489306602
-0.0007086540282
-0.0005283673209
-0.000311202357
-5.851383702e-05
0.000228140417
0.0005374038975
0.0008583948254
0.001181242668
0.001494448491
0.001787536067
0.002053734287
0.002287723141
0.002486529525
0.002647074412
0.00277391495
0.002876711369
0.00295400158
0.003010555854
0.002997773551
0.002919997869
0.002833283057
0.002777194601
0.002747721941
0.002719366012
0.002676813056
0.002616981835
0.002542277315
0.002458346928
0.002369481384
0.002280553505
0.002191612925
0.002101716501
0.002010510087
0.001917199977
0.00182292534
0.001729705746
0.001639177902
0.001549441054
0.001460776685
0.001373560079
0.001288776603
0.00120559392
0.001124177154
0.001045874595
0.0009700042088
0.0008969115551
0.0008276432942
0.0007615316611
0.0006977119483
0.0006363790468
0.0005774144782
0.0005221861795
0.000470482305
0.0004217651962
0.0003756626007
0.0003324845025
0.0002923867805
0.0002554554148
0.0002218887531
0.0001909491087
0.0001624874129
0.000136895671
0.0001142253318
9.475047952e-05
7.750329945e-05
6.261392871e-05
5.003276823e-05
3.935446253e-05
3.029436757e-05
2.280380704e-05
1.696843892e-05
1.253343093e-05
8.968946523e-06
6.184358295e-06
4.271620242e-06
2.853731331e-06
1.899760504e-06
1.147795124e-06
5.582618657e-07
2.957945944e-06
7.214418182e-06
2.332619263e-05
4.130901705e-05
)


101
(
-1.949803521e-08
-5.633127688e-05
-0.0001328176172
-0.0002525944224
-0.0003872143058
-0.0005137101029
-0.0006226172495
-0.0007274125947
-0.0008139788888
-0.0008851669257
-0.0009369748232
-0.0009716517721
-0.0009853593996
-0.0009813057509
-0.000954384554
-0.0009002201409
-0.0008162944447
-0.0007000497387
-0.0005472148694
-0.0003546204414
-0.0001252063021
0.0001401669991
0.0004406690025
0.0007660454856
0.001105956246
0.001451635389
0.001792108172
0.0021160729
0.002415498094
0.002684349867
0.002918872438
0.003115366997
0.003274630204
0.003406205503
0.003511304472
0.003593505034
0.003624816008
0.003594966015
0.003534877827
0.003481040688
0.003445532994
0.003415680828
0.00337915638
0.003327957405
0.003260377144
0.003180162891
0.00309072979
0.002998415963
0.00290564673
0.002811883984
0.002716802147
0.002618060517
0.002516840406
0.002414671565
0.002313808694
0.00221361352
0.002113900087
0.002013707687
0.00191425885
0.001815512351
0.001718033182
0.001622432836
0.001528866109
0.001437186464
0.001348219886
0.001262547504
0.001178662385
0.001097130038
0.001017113608
0.0009393011271
0.0008654697604
0.000794503553
0.0007262727504
0.0006603904751
0.0005974240112
0.000537400398
0.0004814343743
0.0004287543303
0.0003791048641
0.0003322278187
0.0002884530237
0.0002488548651
0.0002132994945
0.0001806284495
0.0001518448496
0.0001262248031
0.0001034265039
8.309299406e-05
6.616648319e-05
5.211582412e-05
4.046047357e-05
3.028385049e-05
2.270984834e-05
1.670115863e-05
1.207857623e-05
8.257002537e-06
4.634427725e-06
1.927321735e-05
4.219931035e-05
0.0001154898069
0.0001944898227
)


101
(
-1.94980355e-08
-5.297216053e-05
-0.0001276474569
-0.0002444909382
-0.0003752741568
-0.0004973965698
-0.0006013234687
-0.0006995147301
-0.000779196001
-0.0008423745964
-0.0008852542584
-0.0009099531047
-0.000913323283
-0.0008978877376
-0.0008597659669
-0.0007947385918
-0.0007000358315
-0.000573383691
-0.0004109746155
-0.0002091009315
2.968481217e-05
0.0003047105622
0.0006158846639
0.0009546744927
0.001310953284
0.001677196361
0.002043856113
0.002399291364
0.002733992247
0.003040860234
0.003315502883
0.003553924326
0.003753930028
0.003922624906
0.004063038482
0.004178816962
0.004253443162
0.004273663312
0.004254176872
0.004221371114
0.004194209849
0.004171682008
0.004146328225
0.004109119392
0.004056052449
0.003989042938
0.003909305379
0.003822244591
0.003732812061
0.003641657621
0.003547735452
0.003450388923
0.003349824937
0.003245117299
0.003139862598
0.003035517085
0.002930668694
0.002823551455
0.002716007818
0.002607281278
0.00249804333
0.002389202987
0.002280388048
0.002173393599
0.00206784087
0.001965336317
0.001864511705
0.001764649597
0.001665030456
0.001564871142
0.001467687233
0.001372561258
0.001281323049
0.001191771192
0.001103330264
0.001016700138
0.0009333369003
0.0008534865844
0.0007769017479
0.0007022163432
0.0006303575462
0.0005617956668
0.0004991985478
0.0004393232456
0.000384329639
0.000332847877
0.0002864826387
0.0002423850971
0.0002035560097
0.0001692950172
0.0001391684118
0.0001116411566
8.952745825e-05
7.099175331e-05
5.514064299e-05
4.177984705e-05
2.675079489e-05
8.690116071e-05
0.0001727213416
0.0004088339702
0.0006747719645
)


101
(
-1.949803214e-08
-4.969386187e-05
-0.0001225949361
-0.0002365967492
-0.0003637237304
-0.0004817637327
-0.0005811364731
-0.000673354101
-0.000747009284
-0.0008033030114
-0.00083854108
-0.000854758501
-0.0008494624831
-0.000824604558
-0.0007773087899
-0.0007036474065
-0.0006006637656
-0.0004662030966
-0.0002968202934
-8.832192391e-05
0.0001573527191
0.0004395075619
0.0007583321023
0.001108007767
0.001478494959
0.001863183212
0.002254295367
0.002640600627
0.003011318695
0.003357950194
0.003675281416
0.003959470779
0.004206778554
0.004420561542
0.004603153524
0.004759378671
0.004880358418
0.004953954879
0.00498527792
0.004989592748
0.004985695768
0.004980617919
0.004973381521
0.004956509787
0.004925199194
0.004879920466
0.004820110721
0.00474966497
0.004672569862
0.004591399337
0.004506299749
0.004418953542
0.004327246754
0.004229092549
0.004127774988
0.004025000364
0.003921940019
0.003814346668
0.003706342719
0.003596331151
0.003483269301
0.003369048516
0.00325211584
0.003135206046
0.00301834451
0.002903100603
0.002790005949
0.002675921119
0.002561059457
0.00244389224
0.002327133085
0.002211229838
0.002097244553
0.001985021515
0.001872832485
0.001760818803
0.001648836649
0.001539384659
0.001433647129
0.001328008429
0.001223020806
0.001120921914
0.001023538268
0.0009303443786
0.0008393178205
0.0007513459534
0.0006712075741
0.0005920018064
0.0005182508477
0.0004504356368
0.0003872584247
0.0003286986205
0.0002774613408
0.0002329802019
0.0001916891442
0.0001544306552
0.000112044269
0.0002954833732
0.000536640733
0.001100397556
0.001776005752
)


101
(
-1.949803241e-08
-4.649574762e-05
-0.0001176572642
-0.0002289028073
-0.0003525410708
-0.0004667704127
-0.0005619881799
-0.0006488140868
-0.0007172006211
-0.0007676145628
-0.0007963903121
-0.0008054928278
-0.0007930383251
-0.0007605025076
-0.0007058242827
-0.0006254573552
-0.0005163578424
-0.000376361164
-0.0002023122808
1.039785999e-05
0.0002606944154
0.0005479559367
0.0008721932422
0.001230339435
0.001613222389
0.002014582697
0.002428012366
0.002843342523
0.00324925414
0.003635987125
0.003996941656
0.004328053187
0.004625636815
0.004890770732
0.005122277181
0.005326091456
0.005499145794
0.005631162341
0.00572053822
0.005774559731
0.005808083358
0.005831299673
0.005851312633
0.005863341226
0.005862688989
0.005848609422
0.005818409332
0.005774527446
0.005718577232
0.00565608912
0.00558938032
0.005520839548
0.005447498841
0.005367327301
0.005278105666
0.005185347049
0.005093352139
0.004995163299
0.004895417293
0.004793261537
0.004685761652
0.004574636314
0.004460613795
0.00434299364
0.004222121474
0.00409940327
0.00398015828
0.003859668849
0.003738610331
0.003613820658
0.003485526587
0.003355447026
0.003224747991
0.003094888948
0.002964877023
0.002831824535
0.002695773143
0.002560370414
0.002426962152
0.002292873762
0.002155724686
0.002020204337
0.001885543645
0.001756562001
0.001625998682
0.001494378648
0.001371324353
0.001249584503
0.001130112731
0.001018337321
0.0009075779849
0.0008032821403
0.0007069591898
0.0006199882008
0.00053648223
0.000453318203
0.0003559768012
0.0008052798838
0.0013518146
0.002414866055
0.003512382591
)


101
(
-1.949761333e-08
-4.337734956e-05
-0.0001128318582
-0.0002214009815
-0.0003417059283
-0.0004523774258
-0.0005438140437
-0.0006257893884
-0.0006895694205
-0.0007349830081
-0.0007583826947
-0.0007616231779
-0.0007433866259
-0.0007047405368
-0.0006442743382
-0.0005588781733
-0.000445569422
-0.0003020632604
-0.0001253930563
8.935096839e-05
0.0003421050617
0.0006326822764
0.000960921782
0.001325159774
0.001718679562
0.002134917579
0.002568030671
0.00300958579
0.003448806025
0.003875148462
0.004280240073
0.004658779099
0.00500746063
0.005327943853
0.005615005093
0.005873290888
0.006103430548
0.006297658979
0.006450215997
0.006563708662
0.006648463268
0.00671404785
0.006772184513
0.006822813996
0.006862433487
0.006889302013
0.006898138065
0.006889785756
0.006865732599
0.006832545875
0.006792937386
0.006750311945
0.006703976629
0.006650532954
0.006584679616
0.006516327395
0.006443683431
0.006366250685
0.006283458349
0.006199247933
0.00610927745
0.006012153004
0.005911033746
0.005803538518
0.005691149435
0.005573120614
0.005454814025
0.005337997658
0.005220805452
0.005098804122
0.004970852192
0.004837261527
0.004701311143
0.004563660563
0.004424566702
0.004279951828
0.004130777542
0.003979570506
0.00382403987
0.003668757123
0.003509416045
0.003345763794
0.003180356504
0.003018365426
0.002852668703
0.002678409898
0.002509160299
0.002345334463
0.002179167499
0.002015083934
0.001849585129
0.00169092219
0.001537360952
0.001393526455
0.001254826672
0.001107825704
0.0009328424186
0.001811530857
0.002834892113
0.004585732005
0.006352380371
)


101
(
-1.949611416e-08
-4.033829646e-05
-0.0001081162343
-0.000214083824
-0.0003312008725
-0.0004385508258
-0.0005265556722
-0.0006041785963
-0.0006639392282
-0.0007051398569
-0.0007241657072
-0.0007226675746
-0.0006998891799
-0.0006565346296
-0.0005916940671
-0.0005027212861
-0.0003868229471
-0.000241589381
-6.405135651e-05
0.0001508561334
0.0004038847764
0.0006957287984
0.00102622182
0.001393889988
0.00179504009
0.002223284778
0.002673203211
0.00313811402
0.003608539834
0.004073555145
0.004523239643
0.004950704861
0.005352222903
0.00573036383
0.006077719535
0.006396301082
0.006687721475
0.006946754037
0.007166966288
0.007348817467
0.007496984872
0.007618574131
0.007726195658
0.007824572511
0.007912409463
0.00798848716
0.008046647282
0.008085605783
0.008105757407
0.00811349008
0.008111025069
0.008102896683
0.008091305505
0.0080733724
0.008045210904
0.008011011
0.007969067822
0.007920840297
0.007866028078
0.00780918821
0.007748187676
0.007678592556
0.007602578198
0.007518270545
0.007427066491
0.007330904776
0.007226629763
0.007123028578
0.007020038661
0.006912547584
0.006799749116
0.006679021242
0.006549817738
0.00641622865
0.006280336647
0.006140579954
0.005993408145
0.005839006028
0.00567831103
0.005513829625
0.005344004526
0.005165886576
0.004982676043
0.00479674917
0.004609312054
0.004407620822
0.004197768968
0.003996608234
0.003792379561
0.00357882841
0.003361642599
0.003151604023
0.002941282894
0.002733824096
0.002534583143
0.002316944389
0.002060510304
0.003551049794
0.005216217748
0.007744892392
0.0102833625
)


101
(
-1.949504153e-08
-3.737821224e-05
-0.0001035082375
-0.0002069445619
-0.0003210096679
-0.0004252590617
-0.0005101637524
-0.0005838973776
-0.0006401303399
-0.0006778168141
-0.0006934330223
-0.000688198985
-0.0006619955777
-0.0006152255814
-0.000547299111
-0.0004560245225
-0.0003388012212
-0.0001932258722
-1.62827936e-05
0.0001971522612
0.0004480681366
0.0007384897426
0.001068589575
0.001437017222
0.001842258012
0.00227886599
0.002742514062
0.003227966373
0.003727320124
0.004229545866
0.004723608744
0.005201428172
0.005658330421
0.006095932489
0.00650621202
0.006889030506
0.00724543478
0.007572126339
0.00786387868
0.008121335369
0.008343268155
0.008532887874
0.008701432145
0.008856403091
0.008999140744
0.009131059893
0.009247780388
0.009345837121
0.009423114588
0.009485123568
0.009531025654
0.009567439387
0.009600448649
0.009627701091
0.009646666178
0.009653822354
0.009657073063
0.009649369337
0.009636641252
0.009617381215
0.009596459071
0.009566003537
0.009527975587
0.009481622529
0.009427125397
0.009366002846
0.009293598711
0.009217158417
0.009138255079
0.009058929922
0.00897505062
0.008884506198
0.008779940195
0.008666389494
0.008547907943
0.008426643584
0.008298953532
0.008161603274
0.008013503112
0.007858285668
0.007693685643
0.007521148105
0.007336413011
0.007142120584
0.006950482579
0.006744559919
0.00651259584
0.00628457758
0.006055567973
0.005814912038
0.005558586409
0.005308970652
0.005052411662
0.004795417792
0.004539897498
0.004260292817
0.003937645801
0.006179438346
0.008587923766
0.0118206997
0.01500121148
)


101
(
-1.949503442e-08
-3.449685221e-05
-9.900583576e-05
-0.0001999767952
-0.0003111169561
-0.000412470945
-0.0004945877971
-0.0005648670696
-0.0006179885285
-0.0006527601451
-0.0006658938582
-0.0006578245599
-0.0006291949155
-0.0005802047773
-0.0005103755757
-0.0004179441817
-0.0003004079945
-0.0001554997194
1.964318843e-05
0.0002303449957
0.0004768978158
0.0007629931274
0.0010896009
0.001456284625
0.001862955084
0.002304824305
0.002778706593
0.003280726413
0.003804980738
0.004341347158
0.004878317072
0.005406384366
0.00591943883
0.006417529784
0.006892146279
0.007341843578
0.007766778689
0.008165020878
0.008533049404
0.008870885584
0.009174433308
0.009442938851
0.009684483914
0.009906310278
0.0101119289
0.01030625521
0.01048805584
0.01065334052
0.01079868918
0.01092647655
0.01103325618
0.01112626277
0.01121491623
0.0112968831
0.01137159062
0.01143422902
0.01149314894
0.0115411262
0.01158053762
0.01161169937
0.01164227426
0.01166356816
0.01167418073
0.01167936343
0.01167875467
0.01166491391
0.01164176578
0.01160716737
0.01156916397
0.01153144388
0.0114887902
0.01144258746
0.01138316272
0.01131024782
0.01122643779
0.01113584301
0.01104500946
0.01094379781
0.01082768423
0.01070304377
0.01056269586
0.0104136115
0.01025061829
0.01007100772
0.009886176185
0.00969623613
0.00947648075
0.009239952985
0.009005347747
0.008765026254
0.008490309859
0.008226685469
0.007932450939
0.007651031072
0.007360058705
0.007042726095
0.006664195219
0.009645279299
0.01275364241
0.0165337597
0.02048173274
)


101
(
-1.949502731e-08
-3.16941172e-05
-9.460726429e-05
-0.0001931746514
-0.000301508872
-0.0004001581817
-0.0004797748131
-0.0005470086419
-0.0005973947492
-0.000629761719
-0.0006412224496
-0.0006311974668
-0.0006010092258
-0.0005508292661
-0.0004801305581
-0.0003875672418
-0.0002707309672
-0.0001274773971
4.465478927e-05
0.0002511139936
0.0004915387459
0.000771068328
0.001091810119
0.001454238263
0.001859799773
0.002304339679
0.002785019574
0.003298867718
0.003842329288
0.004407831109
0.004984901236
0.005562035623
0.006129998802
0.006688188253
0.007227656928
0.007746123129
0.008242743388
0.008716209352
0.009164535445
0.009586175752
0.009977501038
0.01033335844
0.01065843492
0.01095831729
0.01123765156
0.01150282354
0.01175529779
0.01199458851
0.01221541879
0.01241701173
0.01259823608
0.01276231926
0.0129167743
0.0130640105
0.0132054664
0.01333655518
0.01346069609
0.01357684128
0.01367987077
0.0137738889
0.01386363242
0.01394940943
0.01402299274
0.01409359598
0.01415783119
0.01420734671
0.01424773442
0.01427333053
0.01429592972
0.01431198453
0.01432340359
0.01433348564
0.01433404735
0.0143231922
0.01429609936
0.0142524671
0.01420809128
0.01415413794
0.01409431286
0.01401703669
0.01392127015
0.01381373913
0.01369007192
0.01354975569
0.01339388964
0.01323139098
0.01304879765
0.01283169102
0.01260724955
0.01238598562
0.01211648774
0.0118628994
0.01156017866
0.01126907868
0.01097566503
0.01063810758
0.01021229327
0.01383181313
0.01748838176
0.02154855168
0.02533868443
)


101
(
-1.949504194e-08
-2.896989575e-05
-9.031098022e-05
-0.0001865328207
-0.000292172182
-0.0003882938161
-0.0004656743987
-0.0005302486888
-0.000578241531
-0.0006086357058
-0.0006190903793
-0.0006080112675
-0.0005770248131
-0.0005264994939
-0.0004558082868
-0.0003639925055
-0.0002489185273
-0.000108483411
5.931033297e-05
0.0002594060403
0.0004923755924
0.0007637979156
0.001077315778
0.001433205628
0.001834995606
0.002279788046
0.0027640043
0.003285162085
0.003842146926
0.004430664955
0.005042508017
0.005665330271
0.006286266405
0.006903203793
0.007507125456
0.008095418034
0.008666019168
0.009217214701
0.009748215168
0.01025700037
0.01073920043
0.01118766614
0.01160507676
0.01199349411
0.01235703781
0.01270273528
0.01303428254
0.01335540406
0.01365776888
0.01394153076
0.01420856049
0.01445685473
0.01468825574
0.0149126187
0.01512951696
0.01533538176
0.01553627749
0.01573051154
0.01591099846
0.01607894298
0.01623984532
0.01639966599
0.01655229767
0.01670145255
0.01683825747
0.01696992905
0.0170868619
0.01718966839
0.01728354236
0.01736765714
0.01744958953
0.01752690052
0.01759908488
0.01766364809
0.01771219601
0.01773690508
0.01774430769
0.01775262178
0.01775515763
0.0177408524
0.01771209011
0.01766213589
0.01758567439
0.01750021604
0.01739276386
0.01727216577
0.01713371925
0.01696191313
0.01675857277
0.01656288269
0.01632495733
0.01608404171
0.01581216352
0.01552197536
0.01524548435
0.01490938415
0.01448305345
0.01853078243
0.02249630749
0.02659116877
0.03019382637
)


101
(
-1.949504205e-08
-2.632406177e-05
-8.611551519e-05
-0.0001800458664
-0.0002830933363
-0.0003768492481
-0.0004522361467
-0.0005145152807
-0.0005604509646
-0.0005892374847
-0.0005992136853
-0.0005879436088
-0.0005568610792
-0.0005067097326
-0.0004368055781
-0.0003464922495
-0.0002341424846
-9.762880953e-05
6.472644195e-05
0.0002563866711
0.0004808781419
0.0007429221078
0.001047826255
0.001394965044
0.001789769769
0.002231672221
0.002716286572
0.003241102095
0.003807022593
0.004412635035
0.005051797194
0.005713511411
0.006383867443
0.007057232372
0.00772442624
0.008383000927
0.009029397346
0.009660026843
0.01027407426
0.01087055628
0.01144454924
0.01198987138
0.01250566528
0.01299058065
0.01344724049
0.01388344167
0.0143041
0.01471408245
0.01510634905
0.0154815784
0.01584168039
0.01618442195
0.01650646456
0.01681905552
0.01712219995
0.01741154756
0.01769818979
0.01797798307
0.01824772335
0.01850224246
0.01874887491
0.01899147106
0.01923465732
0.01947179815
0.0196943286
0.01991888112
0.0201244606
0.02031594082
0.02049306247
0.02066370797
0.02082882933
0.02098263187
0.02113533557
0.02128006417
0.02141099547
0.02152233153
0.0216066788
0.02167898607
0.02174237122
0.02180049091
0.02184892276
0.02186109813
0.02184714758
0.0218176891
0.02176175236
0.02168933151
0.02159351952
0.02147343436
0.02130159123
0.02113064521
0.02094165632
0.02070879284
0.02047283334
0.02020044354
0.01993369992
0.01961700669
0.01921148502
0.02342088191
0.02743317426
0.03143473338
0.03524548516
)


101
(
-1.949502765e-08
-2.375663777e-05
-8.201933149e-05
-0.0001737090153
-0.0002742601631
-0.0003657982236
-0.0004394124642
-0.0004997369655
-0.000543983832
-0.0005715156601
-0.0005813427339
-0.0005706432202
-0.0005401185254
-0.0004910449512
-0.0004227662461
-0.0003347957707
-0.0002260673367
-9.43867296e-05
6.188943796e-05
0.0002444692987
0.0004596395715
0.0007111185228
0.001005079023
0.00134125553
0.00172556744
0.002160675729
0.002642488272
0.003167830744
0.003738719535
0.004355689224
0.005014262659
0.005706344046
0.006420159099
0.007146085506
0.007873745931
0.008600776522
0.009322616241
0.0100332198
0.01073040165
0.01141428771
0.01208092411
0.01272432375
0.01334131611
0.01392901959
0.01448759348
0.01502341563
0.01554095242
0.01604647251
0.01653925599
0.0170157684
0.01747588845
0.01791985937
0.01834374389
0.01875456506
0.0191560268
0.01954521641
0.0199274488
0.02029996842
0.02066998512
0.02102657524
0.02136611534
0.02170374926
0.02204289103
0.02237472203
0.02269720921
0.02301635982
0.02332087336
0.02361243465
0.02388695972
0.02415510752
0.02440642043
0.02464928806
0.0248890283
0.02511703116
0.0253330449
0.02553624462
0.0257088882
0.025847414
0.02597662715
0.02610108081
0.02621503615
0.02629229909
0.02634428819
0.0263687394
0.02635449723
0.02632801919
0.02626725071
0.02618614207
0.026045787
0.02589212752
0.02573649148
0.02551521622
0.02528997516
0.02503458545
0.02476981322
0.02446900771
0.02406880457
0.02823153116
0.03210872384
0.03598589555
0.03946384381
)


101
(
-1.949504227e-08
-2.12677278e-05
-7.802121453e-05
-0.0001675181193
-0.0002656615204
-0.0003551168493
-0.0004271591262
-0.00048584183
-0.0005287779218
-0.0005554216666
-0.0005652647842
-0.0005557967572
-0.0005264181931
-0.0004790870988
-0.000413296052
-0.0003285840804
-0.0002243578109
-9.838592456e-05
5.125569632e-05
0.0002254237562
0.0004307721232
0.0006709856891
0.0009510972005
0.001274164436
0.001644707047
0.002068662334
0.00254381984
0.003066243479
0.003637764657
0.004260103401
0.004930606036
0.005644200337
0.006392761691
0.007165275059
0.007949519849
0.008741418363
0.00953613864
0.01032589396
0.01110631781
0.01187726084
0.01263580431
0.01337664801
0.01409707034
0.01479241711
0.01545975416
0.0161027934
0.01672509264
0.01733455918
0.01793556591
0.01852164863
0.0190900111
0.01964272113
0.02017666767
0.02069389708
0.02120102383
0.02170216551
0.02219293207
0.022672251
0.02315007564
0.02361772896
0.02406344797
0.02450730311
0.02494659767
0.02537895137
0.02580903261
0.02622803251
0.02664064325
0.02703883164
0.02741727228
0.0277800396
0.02812441724
0.02846199531