/*--------------------------------*- C++ -*----------------------------------*\
| =========                 |                                                 |
| \\      /  F ield         | OpenFOAM: The Open Source CFD Toolbox           |
|  \\    /   O peration     | Version:  2.3.1                                 |
|   \\  /    A nd           | Web:      www.OpenFOAM.org                      |
|    \\/     M anipulation  |                                                 |
\*---------------------------------------------------------------------------*/
FoamFile
{
    version     2.0;
    format      ascii;
    class       dictionary;
    location    "constant";
    object      PM34;
}
// * * * * * * * * * * * * * * * * * * * * * * * * * * * * * * * * * * * * * //

PM34_table
101
(

101
(
-4.746172616e-06
-0.000855367938
-0.001629932602
-0.002697040221
-0.003852369721
-0.005018453697
-0.006220962314
-0.007687033331
-0.009303206648
-0.01115886983
-0.01321895598
-0.01546250429
-0.01770944355
-0.02005238345
-0.02211398212
-0.02380518671
-0.02505545287
-0.02576001719
-0.02571971069
-0.02515300476
-0.02395296585
-0.02231110161
-0.02019907018
-0.01787788464
-0.01548381778
-0.01311071549
-0.01086165388
-0.008815787035
-0.006974670972
-0.005405034184
-0.004080793425
-0.003001431688
-0.002169637098
-0.001341048908
-0.0007693856192
-0.0003000795415
0.0002687043707
0.0006484148021
0.0002582638226
0.0002429890102
0.0002994596347
0.0003499492099
0.000387669003
0.0004062249791
0.0004111018525
0.0004091892097
0.0004041059506
0.0003981025193
0.0003920570661
0.0003868929717
0.0003841401502
0.0003840108446
0.000386992339
0.0003944171081
0.0004058423354
0.0004194556961
0.0004373684512
0.0004550093093
0.0004779311064
0.0005017660679
0.0005292709037
0.000561760221
0.0005942750096
0.000630404891
0.0006696058608
0.0007107777896
0.0007518649026
0.0007937104087
0.0008406253219
0.0008882484669
0.0009388072145
0.0009951381931
0.001061363411
0.001139970379
0.001308315838
0.0013235793
0.001240066057
0.001233031168
0.001266013562
0.001311431432
0.00136171925
0.001422255404
0.001498849018
0.001636443875
0.001576020716
0.001537002943
0.001564817007
0.001610608078
0.001676138292
0.001830973119
0.001745841777
0.001756226733
0.00186467719
0.001872846574
0.001956079312
0.001923003733
0.001963240114
0.001897875387
0.001836770721
0.001793795111
0.001752523459
)


101
(
-4.74617263e-06
-0.0008381169934
-0.001606216781
-0.002663170412
-0.00380625988
-0.004958472754
-0.006144207309
-0.007585379095
-0.009175576776
-0.01099962305
-0.01302686762
-0.01523756111
-0.01746143362
-0.01978066725
-0.02184580993
-0.02355682586
-0.02484286879
-0.02560281369
-0.02564551698
-0.02515743802
-0.0240513396
-0.02249328835
-0.02047298073
-0.0182169795
-0.01586869029
-0.01352583657
-0.01128892727
-0.009238338997
-0.007386140158
-0.005790938316
-0.004439302355
-0.00332942547
-0.002462890616
-0.001637287369
-0.00102868932
-0.0005383547225
4.131950198e-06
0.0004037995052
0.0001706746671
0.0001161461144
0.0001439302872
0.0001864739193
0.0002242892685
0.0002466231889
0.0002549172218
0.000254667031
0.0002495792671
0.0002429955109
0.0002359485373
0.000229708423
0.0002253679196
0.0002235028327
0.0002242941717
0.0002283220544
0.0002361936672
0.0002471516755
0.0002627416278
0.0002790191544
0.0002996635692
0.0003220114126
0.000347508569
0.0003774881484
0.0004087141814
0.0004425520551
0.0004788087457
0.0005176773022
0.0005574311431
0.0005979794154
0.0006419528483
0.0006876593689
0.0007355408652
0.0007878764351
0.0008474101337
0.0009182078434
0.001055887591
0.001105475352
0.001067488292
0.001054756235
0.001072159778
0.001109973815
0.001157467512
0.001212271326
0.001279347397
0.001395653697
0.001394088987
0.001366061167
0.001373725866
0.001411081741
0.001464061156
0.001577077299
0.001566370213
0.001559435583
0.001628238283
0.001663195003
0.001705515535
0.001714677613
0.001765628778
0.001686724012
0.001611721724
0.001547361086
0.001485276618
)


101
(
-4.746172634e-06
-0.0008038949838
-0.001559138937
-0.002595918169
-0.003714741876
-0.00483950977
-0.005992108235
-0.007384070207
-0.008922581328
-0.0106837211
-0.0126450838
-0.0147893521
-0.01696512832
-0.01923511951
-0.02130244888
-0.02304882433
-0.0244019215
-0.02526752297
-0.0254707647
-0.02513870628
-0.02421788031
-0.02282918986
-0.02099137638
-0.01887215997
-0.01662106292
-0.01434340539
-0.01213597711
-0.01008066494
-0.008208060426
-0.006564824719
-0.005157801851
-0.003985959058
-0.003049299952
-0.002218041543
-0.001546382368
-0.001005643977
-0.0004938680228
-6.297190793e-05
-3.727565176e-05
-0.0001056874803
-0.0001225124298
-0.000101701959
-6.879052589e-05
-4.086194226e-05
-2.514960059e-05
-2.084370235e-05
-2.424645198e-05
-3.143903451e-05
-3.977082492e-05
-4.796003822e-05
-5.476609733e-05
-5.961899218e-05
-6.22405262e-05
-6.271194609e-05
-6.007324651e-05
-5.406718864e-05
-4.335672648e-05
-2.99699162e-05
-1.354310509e-05
5.72235405e-06
2.755456253e-05
5.294791381e-05
8.097989452e-05
0.0001110791327
0.0001432842183
0.0001785181657
0.000215623411
0.0002540941506
0.0002939050602
0.0003359684087
0.0003796269825
0.0004254467703
0.0004744989037
0.0005307360986
0.0006199291484
0.0007041779615
0.000737318756
0.0007375658199
0.0007382469017
0.0007589451509
0.0007981336834
0.0008450191154
0.0008971051259
0.0009751512586
0.001040389651
0.001054009902
0.001045344672
0.00106308973
0.001101895285
0.001161991328
0.001221547315
0.001230188065
0.001241570956
0.00129204519
0.001310125301
0.001355030613
0.00142550081
0.001332609325
0.001243932968
0.00116324375
0.001084826266
)


101
(
-4.746172639e-06
-0.0007702138003
-0.001512737307
-0.002529618007
-0.003624638753
-0.004722640857
-0.005843080575
-0.007187332058
-0.008675151519
-0.01037473657
-0.01227077581
-0.01434841801
-0.01647342729
-0.01869221975
-0.02075313431
-0.02252687748
-0.02393834282
-0.02489912942
-0.02524960982
-0.02506913135
-0.02432505437
-0.02310534881
-0.02144465288
-0.01947045746
-0.01732568565
-0.01512111027
-0.01295241012
-0.01090192209
-0.00901344981
-0.007329441968
-0.005868232247
-0.004634357986
-0.003628251163
-0.002768683364
-0.002051571335
-0.001465567703
-0.0009397176296
-0.000485967426
-0.0002984704283
-0.0002916860726
-0.0003159579155
-0.0003176004784
-0.000297315043
-0.0002697830218
-0.0002479186394
-0.0002369792711
-0.0002357762467
-0.000241181221
-0.0002492332272
-0.0002582761293
-0.0002665220872
-0.0002733682226
-0.0002781433297
-0.0002807629545
-0.0002808547168
-0.0002780354284
-0.0002718076285
-0.0002619315792
-0.0002490903102
-0.0002330078142
-0.000214245983
-0.0001925867156
-0.0001681742068
-0.0001411998062
-0.0001116874906
-7.923617831e-05
-4.479167173e-05
-8.72000943e-06
2.874519237e-05
6.782380639e-05
0.0001090300149
0.0001513402114
0.0001952256316
0.000241410181
0.0003029422774
0.0003780087965
0.0004416213285
0.0004757145957
0.0004857176359
0.0004950672814
0.0005220457609
0.0005636771876
0.0006091013166
0.0006632240155
0.0007280518985
0.000780745014
0.0007963152744
0.0008007214066
0.0008298214064
0.0008745562908
0.0009243504396
0.000969882265
0.0009795523521
0.00101123828
0.001048699076
0.001082522149
0.001144944481
0.001062756635
0.0009855709272
0.0009248460041
0.0008669735857
)


101
(
-4.746172208e-06
-0.0007370751441
-0.001467009103
-0.002464258957
-0.003535923767
-0.004607821082
-0.005697061515
-0.006995092962
-0.008433261332
-0.01007268164
-0.01190411034
-0.01391514297
-0.01598712494
-0.01815296072
-0.02019977619
-0.02199305543
-0.02345446828
-0.02450037414
-0.02498530332
-0.02495066662
-0.02437546601
-0.0233230977
-0.02183530977
-0.02001179226
-0.01798256337
-0.01585996885
-0.01373971382
-0.01170437375
-0.00980702101
-0.008090109975
-0.00657919476
-0.00528460812
-0.004209874128
-0.003306569041
-0.002546666663
-0.001921196071
-0.001365580428
-0.0008856548239
-0.0005920455521
-0.0004879609187
-0.0004790097337
-0.0004860521973
-0.0004787971217
-0.0004575786098
-0.000433307594
-0.0004155498321
-0.0004076952156
-0.00040874058
-0.0004149736909
-0.0004235198527
-0.0004322406231
-0.0004400867373
-0.000446335246
-0.0004507531455
-0.0004528895942
-0.0004520508621
-0.0004488092136
-0.0004421380631
-0.0004326174021
-0.0004197529451
-0.0004038073322
-0.0003852798462
-0.0003639326849
-0.0003400769834
-0.0003137074821
-0.0002844936047
-0.0002528827819
-0.0002195894361
-0.0001843603311
-0.0001479029317
-0.0001091728474
-6.894490689e-05
-2.729286531e-05
1.474917127e-05
6.22568166e-05
0.0001207692158
0.0001849364443
0.0002392086759
0.0002708270861
0.0002844450238
0.0003015832343
0.0003346246157
0.0003774925687
0.0004232451972
0.0004751925347
0.0005322099519
0.0005761768641
0.0005908966145
0.0006085145357
0.0006454383163
0.0006883811991
0.0007342286834
0.0007669531671
0.0007918237935
0.000831039402
0.0008607481859
0.0009023663104
0.0008477866199
0.0007944927897
0.000737674392
0.0006827804375
)


101
(
-4.74617265e-06
-0.0007044819211
-0.001421952147
-0.002399831673
-0.003448573746
-0.004495008411
-0.005553989094
-0.006807279539
-0.00819687764
-0.009777557483
-0.01154522708
-0.01348986812
-0.01550694736
-0.01761827465
-0.01964414972
-0.02144937075
-0.02295256141
-0.02407388822
-0.0246809125
-0.0247853124
-0.02437134813
-0.02348359778
-0.02216506943
-0.02049585678
-0.01859061086
-0.01655935133
-0.01449761469
-0.01248811587
-0.01059044366
-0.008849100772
-0.007294836942
-0.005943191147
-0.004801810874
-0.003845096045
-0.003038442859
-0.002366039516
-0.001783079021
-0.001274521516
-0.0009044728265
-0.0007076411305
-0.0006395133211
-0.0006286720807
-0.0006257135488
-0.0006120374869
-0.0005893413712
-0.0005668516166
-0.0005518038953
-0.0005467630067
-0.0005494548454
-0.0005562694421
-0.0005645938963
-0.000572708466
-0.0005797768909
-0.0005854186123
-0.0005893849561
-0.0005907436417
-0.0005894469826
-0.0005852990945
-0.0005784290075
-0.0005687067248
-0.0005559577485
-0.0005404971942
-0.0005222229678
-0.0005011980297
-0.0004777461577
-0.0004518868214
-0.0004234110103
-0.0003927672877
-0.0003600467882
-0.0003258528614
-0.0002901528865
-0.0002526196337
-0.0002132369448
-0.0001729487369
-0.0001310181534
-8.386331264e-05
-2.955102843e-05
2.784698989e-05
7.552304871e-05
0.0001034052081
0.0001198886935
0.0001435198726
0.000181361813
0.0002249676663
0.0002705367578
0.0003203601702
0.0003715113246
0.0004061392269
0.0004240403621
0.0004545704961
0.000495352943
0.0005376839096
0.0005777473658
0.0006051797295
0.0006432072392
0.0006780314016
0.0007138108586
0.0006696930166
0.0006257342273
0.0005714220762
0.0005191454971
)


101
(
-4.746172651e-06
-0.0006724345954
-0.001377563766
-0.002336325952
-0.003362564345
-0.004384159033
-0.005413798522
-0.006623812079
-0.007965953574
-0.009489343572
-0.01119422559
-0.01307287891
-0.01503353075
-0.0170890023
-0.01908787637
-0.02089773306
-0.02243476972
-0.02362214485
-0.02433932965
-0.02457506356
-0.02431464124
-0.02358780266
-0.02243501465
-0.02092204614
-0.01914799193
-0.01721728356
-0.01522426266
-0.01325150152
-0.01136312618
-0.009606490062
-0.008016317922
-0.006613291161
-0.005408712366
-0.004393674484
-0.003536562143
-0.002817257191
-0.002200192125
-0.001661759407
-0.001233614724
-0.0009545895787
-0.0008151177843
-0.0007652597524
-0.0007521855408
-0.000741800364
-0.0007227416452
-0.0006987102918
-0.0006776106591
-0.0006652707702
-0.0006622552827
-0.0006657058342
-0.0006725455069
-0.0006802303651
-0.0006876326961
-0.0006940931167
-0.0006992958479
-0.0007025748039
-0.0007034902135
-0.0007015948291
-0.0006969248307
-0.0006897422992
-0.0006799955305
-0.0006674437462
-0.0006523176619
-0.0006343600026
-0.0006137528442
-0.000590879758
-0.0005654964369
-0.0005379053852
-0.0005081463972
-0.0004762398164
-0.0004431780277
-0.0004084843465
-0.0003719404721
-0.0003337160868
-0.0002943869776
-0.0002528799556
-0.0002071062023
-0.0001555901703
-0.0001037053653
-6.269893588e-05
-3.790585274e-05
-1.802840701e-05
1.222711517e-05
5.311248701e-05
9.666903853e-05
0.0001419473156
0.0001904725681
0.0002345350109
0.0002618548894
0.000288521097
0.0003269593377
0.0003693379519
0.0004113265445
0.0004429954945
0.0004821948313
0.0005192091107
0.0005486646682
0.0005036885888
0.0004608100842
0.0004214691712
0.000385016733
)


101
(
-4.746172655e-06
-0.0006409356427
-0.001333842456
-0.002273733139
-0.003277873492
-0.004275231879
-0.005276427746
-0.006444612376
-0.007740438549
-0.009208009998
-0.01085118354
-0.01266442363
-0.01456746286
-0.01656594167
-0.01853249583
-0.02034003271
-0.02190322616
-0.02314760073
-0.02396341212
-0.02432208588
-0.02420729669
-0.02363677581
-0.02264604594
-0.0212898846
-0.01965282364
-0.01783135394
-0.01591715755
-0.01399212719
-0.01212339392
-0.01036129397
-0.008743947604
-0.007296368712
-0.006033534368
-0.004958687156
-0.004047359064
-0.003279393599
-0.002623895331
-0.00205361012
-0.001578369055
-0.001229133414
-0.001015748318
-0.0009118140632
-0.0008725045374
-0.0008563016934
-0.0008393266359
-0.0008160363965
-0.000791141354
-0.000771811314
-0.0007617922966
-0.000760175085
-0.000763878829
-0.0007701487001
-0.0007772189626
-0.0007838406785
-0.0007896543552
-0.000794364386
-0.000797255392
-0.0007975429135
-0.0007952421324
-0.0007904200306
-0.000783146272
-0.0007732659074
-0.0007608664482
-0.0007460171835
-0.0007284756388
-0.0007086394679
-0.0006864595488
-0.0006619933703
-0.0006352921898
-0.0006061478433
-0.000575440889
-0.0005431856011
-0.0005095251087
-0.0004740199311
-0.0004369469541
-0.0003984411757
-0.0003577506736
-0.0003130166547
-0.0002643573447
-0.0002176286328
-0.0001826058819
-0.0001594049261
-0.0001349548379
-9.908021191e-05
-5.705516365e-05
-1.357019925e-05
3.166365245e-05
7.760244247e-05
0.0001141644842
0.0001415754104
0.0001777771356
0.0002201610692
0.0002634942912
0.000299862698
0.0003406443141
0.0003765062826
0.0004055044219
0.0003667107176
0.0003291397173
0.0002903031525
0.0002519855931
)


101
(
-4.746171778e-06
-0.0006099882186
-0.001290786289
-0.002212044558
-0.00319447882
-0.004168184681
-0.005141811192
-0.006269595073
-0.007520270575
-0.008933509057
-0.01051614796
-0.0122647033
-0.0141092611
-0.01604981301
-0.01797941208
-0.01977808422
-0.02136000881
-0.02265266141
-0.02355596887
-0.02402866
-0.02405131849
-0.02363172626
-0.02279904558
-0.02159914309
-0.02010346499
-0.01839915274
-0.01657360923
-0.01470722334
-0.01286887229
-0.01111159388
-0.009476532181
-0.007992379944
-0.006677564442
-0.005544272697
-0.004576133518
-0.003756675588
-0.00305901906
-0.002454730042
-0.001938979359
-0.001530687295
-0.001246808198
-0.001080033529
-0.0009997929045
-0.0009656991629
-0.0009453756535
-0.0009228427681
-0.0008962739922
-0.0008714886895
-0.0008541650198
-0.0008460501952
-0.0008452338608
-0.0008490795766
-0.0008549708788
-0.0008611869767
-0.0008671321212
-0.0008724315792
-0.0008766283852
-0.0008787153522
-0.0008786562458
-0.0008762762743
-0.0008714727236
-0.0008642157669
-0.0008544342229
-0.0008423504528
-0.0008277829598
-0.0008108937999
-0.000791831007
-0.0007703543547
-0.0007466560783
-0.0007204949709
-0.0006923638143
-0.0006626194505
-0.0006314678384
-0.000598708006
-0.0005641741893
-0.0005281279325
-0.0004904052656
-0.0004503425521
-0.0004067948905
-0.0003607813517
-0.0003193394203
-0.0002893340653
-0.0002657307487
-0.0002355378759
-0.0001961592977
-0.0001535443162
-0.0001104012551
-6.523330196e-05
-2.360271622e-05
8.159434674e-06
4.336026374e-05
8.565854153e-05
0.0001293116264
0.0001701270725
0.0002119240713
0.0002504019033
0.000280125492
0.0002456226748
0.0002116969985
0.0001729027793
0.000132771551
)


101
(
-4.746171787e-06
-0.0005795941544
-0.001248394798
-0.002151253797
-0.003112361207
-0.0040629785
-0.005009885147
-0.006098672742
-0.007305384823
-0.00866578884
-0.01018914725
-0.01187388344
-0.01365938592
-0.01554128377
-0.01742992293
-0.0192136317
-0.02080715436
-0.02213969119
-0.02311979548
-0.02369719177
-0.02384879735
-0.02357401327
-0.02289495594
-0.02184977294
-0.02049844418
-0.01891817795
-0.0171906129
-0.0153935606
-0.01359648007
-0.01185464286
-0.01021187089
-0.008699970336
-0.007340525125
-0.006152509042
-0.005127049689
-0.004253550361
-0.003510133088
-0.002869214776
-0.002316369458
-0.001858280787
-0.001510612839
-0.001278070056
-0.001145775963
-0.001081022306
-0.001048779013
-0.001024234543
-0.0009969247121
-0.000968345806
-0.0009441174455
-0.0009286057292
-0.0009220266166
-0.0009222154712
-0.0009260811454
-0.0009314599879
-0.0009368897523
-0.0009421586579
-0.0009471422352
-0.0009506277197
-0.0009524345993
-0.0009522535596
-0.0009497555023
-0.0009449080259
-0.000937803942
-0.0009283423351
-0.0009164415232
-0.0009021465525
-0.0008858852601
-0.0008673647616
-0.0008467572671
-0.0008238320812
-0.0007985888876
-0.0007714590509
-0.000742645435
-0.0007123585611
-0.0006804824773
-0.0006468279473
-0.0006114358759
-0.000574431022
-0.0005350813797
-0.0004926074774
-0.0004496647855
-0.0004136618179
-0.0003867132084
-0.0003600334647
-0.0003243904105
-0.0002829359655
-0.0002405353534
-0.0001966573731
-0.0001528761385
-0.0001164613994
-8.133506246e-05
-3.914056932e-05
5.649572175e-06
4.991433293e-05
9.356240886e-05
0.0001349939603
0.0001625701968
0.0001303350621
9.865520966e-05
6.166933998e-05
2.743017787e-05
)


101
(
-4.746135376e-06
-0.0005497565345
-0.001206667489
-0.002091354318
-0.00303150154
-0.003959574152
-0.004880584627
-0.005931753501
-0.007095707147
-0.008404785472
-0.009870184067
-0.01149209069
-0.01321823146
-0.01504096754
-0.01688522881
-0.01864834035
-0.02024664916
-0.02161102067
-0.02265763493
-0.02333021725
-0.02360194999
-0.02346516594
-0.02293480227
-0.02204189477
-0.02083649677
-0.01938588392
-0.01776481472
-0.01604740723
-0.0143025358
-0.01258704757
-0.01094709796
-0.009417124782
-0.008021463852
-0.006784498995
-0.005703676192
-0.004774826498
-0.003982105909
-0.003300995975
-0.002711853365
-0.002210844411
-0.001807550183
-0.001511510268
-0.001320670637
-0.001213714141
-0.001158888514
-0.001126441905
-0.001097265847
-0.001066081606
-0.001036201811
-0.001013228689
-0.0009996095963
-0.0009945255048
-0.0009951943907
-0.0009988322909
-0.001003299687
-0.001008430663
-0.001013511096
-0.001017972333
-0.001021097587
-0.001022762044
-0.001022444107
-0.001019817574
-0.001015113836
-0.001008112878
-0.0009988229096
-0.000987136624
-0.0009733902084
-0.0009577181543
-0.0009400824061
-0.0009202165285
-0.0008979765107
-0.0008735627994
-0.0008473493201
-0.0008195110821
-0.0007901153074
-0.0007588696638
-0.0007258523557
-0.0006912530457
-0.0006546788974
-0.0006157729963
-0.0005746417198
-0.0005355254221
-0.0005040026693
-0.0004774860557
-0.000445551801
-0.000405830565
-0.0003635889189
-0.0003207281237
-0.0002764279641
-0.0002360253096
-0.0001995693454
-0.0001572148915
-0.0001108800088
-6.394379236e-05
-1.781836548e-05
2.615263748e-05
5.542761729e-05
2.319212167e-05
-9.116219072e-06
-5.0007427e-05
-8.842500709e-05
)


101
(
-4.746001189e-06
-0.0005204788299
-0.00116560311
-0.002032338197
-0.002951878597
-0.003857929513
-0.004753840344
-0.005768738505
-0.006891150157
-0.008150414821
-0.009559229664
-0.0111194079
-0.0127861234
-0.01454939471
-0.01634641052
-0.01808378094
-0.01968041995
-0.02106891674
-0.02217221336
-0.02293035628
-0.02331313013
-0.02330690719
-0.0229196474
-0.02217568871
-0.02111637671
-0.01979951468
-0.01829238466
-0.01666438237
-0.01498260118
-0.01330456845
-0.01167837078
-0.01014082773
-0.008718577357
-0.007440130022
-0.006308156971
-0.005324543523
-0.004479877798
-0.003754563632
-0.003127881184
-0.002588340437
-0.002137256449
-0.001783185193
-0.001532038269
-0.001374172912
-0.001285560122
-0.001236574126
-0.001201853945
-0.001168296304
-0.001134281575
-0.001104559953
-0.001083240884
-0.001071445089
-0.001067422311
-0.001068235625
-0.001071381719
-0.001075776594
-0.001080514454
-0.001085210933
-0.001089171024
-0.001092186988
-0.00109375358
-0.001093271687
-0.001090774889
-0.001086115714
-0.001079313717
-0.001070384969
-0.001059093595
-0.001045974139
-0.001031042081
-0.001014056306
-0.0009948773491
-0.0009734201162
-0.0009497871302
-0.000924342775
-0.0008973205185
-0.0008686385049
-0.0008380823247
-0.0008056733423
-0.0007714527841
-0.000735308039
-0.0006968097854
-0.0006574250089
-0.0006223014085
-0.000593534228
-0.0005640041764
-0.0005268563894
-0.0004848188277
-0.0004422020116
-0.0003980639898
-0.0003545021418
-0.0003155447982
-0.000272894462
-0.0002249286624
-0.0001752572923
-0.0001259049257
-7.965607396e-05
-4.856804951e-05
-8.317452913e-05
-0.0001190346734
-0.0001688934297
-0.0002187037303
)


101
(
-4.745905184e-06
-0.0004917638223
-0.001125202336
-0.001974200462
-0.002873475543
-0.003758007941
-0.004629588172
-0.005609532462
-0.006691630624
-0.007902594572
-0.009256245508
-0.01075589375
-0.01236335209
-0.0140670452
-0.01581445401
-0.01752145809
-0.01911035835
-0.02051563076
-0.02166625591
-0.02250035685
-0.02298486492
-0.02310117944
-0.02285073628
-0.02225157623
-0.02133723808
-0.02015674085
-0.01876973002
-0.01724008502
-0.01563197222
-0.0140025466
-0.01240124168
-0.0108670491
-0.009428688831
-0.008117653439
-0.006940776234
-0.005905180302
-0.005007669825
-0.004234690168
-0.003567820375
-0.002991453977
-0.002498844036
-0.002093659978
-0.001784559049
-0.00157103702
-0.00143882279
-0.00136315339
-0.001316459281
-0.001278714247
-0.001241525863
-0.001206388371
-0.001177502167
-0.001158027663
-0.001147945698
-0.001144707142
-0.001145569685
-0.001148385516
-0.001152562718
-0.001157007344
-0.001161482397
-0.001165334433
-0.001168382173
-0.001169758772
-0.001169324972
-0.001166942489
-0.001162555929
-0.001156190424
-0.001147503761
-0.001136849854
-0.001124336541
-0.001110076956
-0.001093811193
-0.001075406437
-0.001054557629
-0.00103161513
-0.001006917694
-0.0009806369099
-0.0009525633991
-0.0009225027046
-0.0008905039074
-0.0008566551915
-0.0008205871881
-0.0007826197349
-0.0007456546179
-0.0007137843861
-0.0006847727378
-0.0006503736743
-0.0006090713912
-0.0005660490975
-0.0005218325217
-0.000476559816
-0.0004342693641
-0.000390756591
-0.0003411509056
-0.0002887308634
-0.000235601103
-0.0001860766058
-0.0001523090112
-0.0001949927621
-0.0002393300841
-0.0002978710259
-0.0003566888261
)


101
(
-4.745903415e-06
-0.0004636151756
-0.00108546507
-0.001916935124
-0.002796274229
-0.003659771186
-0.004507761583
-0.005454034473
-0.006497053643
-0.007661228034
-0.008961169393
-0.0104015709
-0.01195014385
-0.01359433316
-0.01529024201
-0.01696276952
-0.01853826558
-0.01995335966
-0.02114240001
-0.02204300534
-0.02261982803
-0.02285019632
-0.02272964967
-0.02227038269
-0.02149886727
-0.02045602046
-0.01919391972
-0.01777043035
-0.01624584188
-0.01467591038
-0.01311066708
-0.01159087464
-0.01014716792
-0.008813378709
-0.007599546172
-0.006517034346
-0.005568139331
-0.004745613139
-0.004035586126
-0.003421746032
-0.002891512032
-0.002442027561
-0.002080256994
-0.001810678052
-0.001628207275
-0.001516031713
-0.001448736824
-0.001402216085
-0.001361236276
-0.001321816691
-0.001286271867
-0.001258891765
-0.001241673169
-0.00123305119
-0.001230436688
-0.001231186419
-0.001234258137
-0.001238267741
-0.001242699227
-0.00124701579
-0.001251139504
-0.001254095817
-0.001255424873
-0.00125519783
-0.001253275541
-0.00124922395
-0.001243163396
-0.001234928394
-0.001224887132
-0.001213221823
-0.001199646777
-0.001184183011
-0.00116636135
-0.001146203564
-0.001123933641
-0.001099841721
-0.001074223241
-0.001046592764
-0.001016810005
-0.0009851473338
-0.0009512157198
-0.0009151433151
-0.0008781076707
-0.0008437415784
-0.000813313932
-0.0007808076443
-0.0007411184826
-0.0006976365551
-0.0006528949966
-0.0006067265299
-0.0005610895147
-0.000516078438
-0.0004640968786
-0.0004089395814
-0.0003517693188
-0.00029841293
-0.0002605746531
-0.0003128580718
-0.0003675478046
-0.0004330024766
-0.0005069680375
)


101
(
-4.74590165e-06
-0.0004360377131
-0.001046392411
-0.001860538316
-0.002720259578
-0.003563184954
-0.004388299167
-0.005302147728
-0.006307321624
-0.00742621421
-0.008673935846
-0.01005643976
-0.0115466862
-0.01313163132
-0.01477459091
-0.01640903119
-0.01796588782
-0.0193842214
-0.02060324027
-0.02156105248
-0.02222076385
-0.02255639846
-0.02255831343
-0.02223330753
-0.02160144908
-0.02069624868
-0.01956243992
-0.01825160529
-0.01681943389
-0.01531937447
-0.01380124212
-0.01230696476
-0.0108687853
-0.009522608981
-0.008281008434
-0.007158676448
-0.006162340653
-0.005290545137
-0.004535055023
-0.003881751505
-0.003315362955
-0.002826913134
-0.002418890245
-0.002096522125
-0.001861244858
-0.001704891066
-0.001607693954
-0.001545514912
-0.00149779102
-0.001454123337
-0.001413219119
-0.001378597036
-0.001353575476
-0.001338410272
-0.001331209255
-0.001329153601
-0.001330443556
-0.001333677495
-0.001337669274
-0.001342089724
-0.001346677853
-0.001350930904
-0.001353909236
-0.001355764863
-0.001356090427
-0.0013543755
-0.001350833619
-0.001345127848
-0.001337771818
-0.00132855436
-0.001317528861
-0.001304817389
-0.001289990613
-0.001272927415
-0.001253441444
-0.001231605049
-0.001208155901
-0.001182708294
-0.001155422041
-0.001125835481
-0.001093882945
-0.001059691688
-0.001023526499
-0.0009878764237
-0.0009553602075
-0.0009231978661
-0.0008852262349
-0.0008416540962
-0.0007959139598
-0.0007487180626
-0.0006999742024
-0.0006527538742
-0.0005982413453
-0.0005396752479
-0.0004784348267
-0.0004202778564
-0.0003765867995
-0.0004383617546
-0.0005022873778
-0.0005663056719
-0.0006300167012
)


101
(
-4.745905183e-06
-0.000409035672
-0.001007986493
-0.001805007934
-0.002645419465
-0.003468218812
-0.00427114369
-0.005153778506
-0.006122336328
-0.007197449243
-0.008394472946
-0.009720479237
-0.01115312757
-0.01267926464
-0.01426822862
-0.01586147068
-0.01739489912
-0.01881027694
-0.02005128752
-0.02105725474
-0.02179049174
-0.02222238566
-0.02233889717
-0.02214184957
-0.02164553423
-0.02087673893
-0.01987317904
-0.01868012665
-0.01734822551
-0.01592776878
-0.01446742016
-0.01300962857
-0.01158792319
-0.01024005793
-0.008980707963
-0.007827184505
-0.006789576213
-0.005871176083
-0.005069516103
-0.004374693881
-0.003771604412
-0.003247272905
-0.002799019628
-0.002429351604
-0.00214250275
-0.001937631755
-0.001802487236
-0.001716616382
-0.001656939229
-0.001607548524
-0.001562106751
-0.001521340034
-0.001488574215
-0.001466149369
-0.001453132293
-0.001446999486
-0.001445858963
-0.001447799083
-0.001451175953
-0.001455341765
-0.00146007348
-0.001465184522
-0.001469796189
-0.001473655526
-0.001475905667
-0.001476785384
-0.001475677554
-0.001472581954
-0.001467712447
-0.001460943158
-0.001452564166
-0.001442429363
-0.00143045466
-0.001416455618
-0.001400003751
-0.001380772253
-0.001359121737
-0.001335828942
-0.001310627111
-0.0012830526
-0.001253154127
-0.00122062574
-0.001185357592
-0.001149294411
-0.001114693362
-0.001081510412
-0.001044318143
-0.0010008731
-0.0009536274088
-0.0009046424675
-0.0008530292537
-0.0008021913789
-0.0007453493512
-0.0006825886359
-0.0006167624579
-0.0005529814552
-0.0005032949279
-0.0005695088927
-0.0006360788884
-0.0006857997992
-0.0007275510276
)


101
(
-4.745905185e-06
-0.0003826123651
-0.0009702558249
-0.001750336727
-0.002571734573
-0.003374833282
-0.004156226033
-0.005008817623
-0.005941973722
-0.006974796091
-0.008122667886
-0.009393620847
-0.01076953633
-0.01223745869
-0.01377173695
-0.01532117433
-0.01682682443
-0.0182334784
-0.01948896144
-0.02053435436
-0.0213318956
-0.02185093266
-0.02207373797
-0.02199771174
-0.02163190711
-0.02099705552
-0.02012430448
-0.01905276755
-0.01782783007
-0.01649592389
-0.01510349614
-0.01369281747
-0.01229849167
-0.01095970342
-0.009693116677
-0.008518108233
-0.007447233789
-0.006487332856
-0.005640957391
-0.004903346821
-0.004262079192
-0.003702951931
-0.003218918442
-0.002807980925
-0.002473644197
-0.002219649895
-0.002041106349
-0.001923617051
-0.001845368108
-0.00178695683
-0.001736496941
-0.001690582077
-0.001650963769
-0.001621082785
-0.00160141713
-0.00159009144
-0.001585614027
-0.001585515512
-0.001588014861
-0.00159176121
-0.0015965458
-0.001602075714
-0.001608084079
-0.001613672695
-0.00161785024
-0.001621259692
-0.001622547525
-0.001621960149
-0.001619469294
-0.001615386012
-0.001609613777
-0.0016018368
-0.001592473218
-0.001581119389
-0.001567395917
-0.001550980447
-0.00153160165
-0.001509887544
-0.001486022926
-0.001460101994
-0.001431863394
-0.001400254586
-0.001365764869
-0.001329244634
-0.001292293502
-0.001256665872
-0.001218605123
-0.001174565425
-0.001125208911
-0.001073298217
-0.001018514744
-0.0009625030397
-0.0009021911118
-0.0008347312775
-0.000762967913
-0.0006928064364
-0.0006361739881
-0.0006958791847
-0.0007522944071
-0.0007740327872
-0.000787626428
)


101
(
-4.745901656e-06
-0.0003567725058
-0.0009331929499
-0.001696521767
-0.00249919205
-0.003282997488
-0.004043487203
-0.004867167357
-0.00576611374
-0.006758114038
-0.007858411542
-0.009075799639
-0.01039597205
-0.01180640871
-0.01328562001
-0.01478911499
-0.01626310856
-0.0176556995
-0.01891864875
-0.01999518202
-0.02084800647
-0.02144503615
-0.02176545964
-0.02180294828
-0.02156179114
-0.02105729703
-0.02031458637
-0.0193668486
-0.01825417179
-0.01701868114
-0.01570369074
-0.01435040174
-0.01299416421
-0.01167516456
-0.01041194007
-0.009225642112
-0.008130696007
-0.00713643344
-0.006249273526
-0.00546952017
-0.004788994839
-0.00419468175
-0.003677271101
-0.003230392402
-0.00285429379
-0.002553848756
-0.00232956353
-0.002174108987
-0.002070392211
-0.001997999778
-0.001940486159
-0.001889653188
-0.001844287732
-0.001807327927
-0.001780740222
-0.001763840221
-0.001755162455
-0.001752154968
-0.0017534361
-0.0017568662
-0.001761254451
-0.001767061463
-0.001773904298
-0.001780751869
-0.001786908658
-0.001792304975
-0.001795945333
-0.001797828719
-0.001797745266
-0.001796203976
-0.001792475473
-0.001786967116
-0.001779826199
-0.001770525743
-0.001758915461
-0.001744820191
-0.001727410465
-0.001706557076
-0.00168335268
-0.001657867981
-0.00162974513
-0.00159796487
-0.001563181582
-0.001525379898
-0.001485106513
-0.001445343556
-0.001404030942
-0.001357415195
-0.001304592564
-0.001248087057
-0.001188275807
-0.001125748799
-0.001059517494
-0.0009861814951
-0.000907084359
-0.0008291437277
-0.0007632110057
-0.0008022071623
-0.0008319031813
-0.0008129350277
-0.000779038205
)


101
(
-4.745905196e-06
-0.0003315218258