/*--------------------------------*- C++ -*----------------------------------*\
| =========                 |                                                 |
| \\      /  F ield         | OpenFOAM: The Open Source CFD Toolbox           |
|  \\    /   O peration     | Version:  2.3.1                                 |
|   \\  /    A nd           | Web:      www.OpenFOAM.org                      |
|    \\/     M anipulation  |                                                 |
\*---------------------------------------------------------------------------*/
FoamFile
{
    version     2.0;
    format      ascii;
    class       dictionary;
    location    "constant";
    object      PM37;
}
// * * * * * * * * * * * * * * * * * * * * * * * * * * * * * * * * * * * * * //

PM37_table
101
(

101
(
1.133112778e-23
-1.213878827e-22
-3.185243799e-21
-1.396408667e-20
-3.345934542e-20
-5.912177793e-20
-8.793460213e-20
-1.19278742e-19
-1.514247786e-19
-1.837841562e-19
-2.158558346e-19
-2.476117588e-19
-2.788916793e-19
-3.094434049e-19
-3.397612541e-19
-3.695170095e-19
-3.981777602e-19
-4.251227988e-19
-4.526620042e-19
-4.747456343e-19
-4.972910117e-19
-5.181585044e-19
-5.323608602e-19
-5.43057832e-19
-5.495848773e-19
-5.50324529e-19
-5.443635493e-19
-5.314181374e-19
-5.093907052e-19
-4.791038136e-19
-4.400552678e-19
-3.933894131e-19
-3.471822395e-19
-2.837697616e-19
-2.220909212e-19
2.232776441e-19
-3.189039236e-19
-2.741261763e-18
-3.144215097e-18
-2.887939821e-18
-2.633094232e-18
-2.391213074e-18
-2.14657515e-18
-1.906913419e-18
-1.680833578e-18
-1.463670555e-18
-1.261123789e-18
-1.072247982e-18
-8.99149571e-19
-7.412307368e-19
-5.998847165e-19
-4.737379025e-19
-3.622636589e-19
-2.653427379e-19
-1.81631812e-19
-1.081643664e-19
-4.507100105e-20
8.90808335e-21
5.547778874e-20
9.542549859e-20
1.293699827e-19
1.585212904e-19
1.839202396e-19
2.061014327e-19
2.249531807e-19
2.418632629e-19
2.569127663e-19
2.701670835e-19
2.817549568e-19
2.919316526e-19
3.007228353e-19
3.082372394e-19
3.144222919e-19
3.927654276e-19
3.165093457e-19
1.528610403e-19
1.223342687e-19
1.505069667e-19
1.737385538e-19
1.923281113e-19
2.068787999e-19
2.171341307e-19
2.815396638e-19
2.28550641e-19
9.402701722e-20
7.469386917e-20
1.065861097e-19
1.279809492e-19
1.924794391e-19
1.047170998e-19
5.192410451e-20
7.357627794e-20
1.038190541e-19
8.400451396e-20
4.779944853e-20
3.973842464e-20
1.294426953e-20
1.991656663e-26
-3.898253105e-36
-5.577176007e-36
-1.302164663e-36
)


101
(
8.809461267e-24
-7.64120359e-23
-1.689469362e-21
-6.875547291e-21
-1.571410676e-20
-2.67346457e-20
-3.840887883e-20
-5.038794868e-20
-6.175305703e-20
-7.214689799e-20
-8.120380359e-20
-8.876590422e-20
-9.45582673e-20
-9.817068075e-20
-9.956840108e-20
-9.827006234e-20
-9.351556521e-20
-8.472499687e-20
-7.239158321e-20
-5.295797075e-20
-2.928921637e-20
5.866706566e-22
3.991192661e-20
8.73591188e-20
1.434972914e-19
2.09203758e-19
2.847053756e-19
3.698598483e-19
4.65017073e-19
5.686516197e-19
6.796728228e-19
7.950465987e-19
9.108110407e-19
1.034377319e-18
1.149610981e-18
1.273392504e-18
7.954402846e-19
-9.680072333e-20
1.332717197e-19
3.428874314e-19
5.319745554e-19
6.972020149e-19
8.539378782e-19
9.973539407e-19
1.124197197e-18
1.238802866e-18
1.33787274e-18
1.422736287e-18
1.49284857e-18
1.549433862e-18
1.592424901e-18
1.623601742e-18
1.644284631e-18
1.655248913e-18
1.657752901e-18
1.65398789e-18
1.645646136e-18
1.632971508e-18
1.618424537e-18
1.602084384e-18
1.585272269e-18
1.568201935e-18
1.550807713e-18
1.534392312e-18
1.519199851e-18
1.50550898e-18
1.492355909e-18
1.480071897e-18
1.469018188e-18
1.458071039e-18
1.447507931e-18
1.436546762e-18
1.426024709e-18
1.413964689e-18
1.338282764e-18
1.285103234e-18
1.281561964e-18
1.274251007e-18
1.262956567e-18
1.247184029e-18
1.226772949e-18
1.201255021e-18
1.170520588e-18
1.089352523e-18
1.021262745e-18
9.927284326e-19
9.560712421e-19
9.11989872e-19
8.599740898e-19
7.613434806e-19
7.051397514e-19
6.462637311e-19
5.769899641e-19
4.877176038e-19
3.990851467e-19
3.086368118e-19
1.927812898e-19
3.964464756e-19
1.197706896e-18
2.85096759e-18
3.855717014e-18
)


101
(
7.876061304e-24
1.542661102e-23
1.743889352e-22
1.240841348e-21
3.914619155e-21
8.496865061e-21
1.510328449e-20
2.388839328e-20
3.503386625e-20
4.879886328e-20
6.555094907e-20
8.575084832e-20
1.099522998e-19
1.390560757e-19
1.738255576e-19
2.152221886e-19
2.646344395e-19
3.234399395e-19
3.925724957e-19
4.752084018e-19
5.714094359e-19
6.831186242e-19
8.142266573e-19
9.657272392e-19
1.138626563e-18
1.334140149e-18
1.552777748e-18
1.794328035e-18
2.0587509e-18
2.343948899e-18
2.647965075e-18
2.966570755e-18
3.292740745e-18
3.636197631e-18
3.970960966e-18
4.305732356e-18
4.707858289e-18
5.117780762e-18
5.528582197e-18
5.919046139e-18
6.264364707e-18
6.557330079e-18
6.827385733e-18
7.073137629e-18
7.289266847e-18
7.489512041e-18
7.664480991e-18
7.820043924e-18
7.948728555e-18
8.056499617e-18
8.136923422e-18
8.195151604e-18
8.233519361e-18
8.250798895e-18
8.247194128e-18
8.227828505e-18
8.193737959e-18
8.141555822e-18
8.08260409e-18
8.010770878e-18
7.935179258e-18
7.853183548e-18
7.764518043e-18
7.674513661e-18
7.583258079e-18
7.489600606e-18
7.395003947e-18
7.296704831e-18
7.206856148e-18
7.117167699e-18
7.028529602e-18
6.93828082e-18
6.855042366e-18
6.769478785e-18
6.680278497e-18
6.587267248e-18
6.490831984e-18
6.389706825e-18
6.284795682e-18
6.173746594e-18
6.053445808e-18
5.918319459e-18
5.767871657e-18
5.598858507e-18
5.410057897e-18
5.201079636e-18
4.972033825e-18
4.725647688e-18
4.457551735e-18
4.167799019e-18
3.852197836e-18
3.515560969e-18
3.157174937e-18
2.777498954e-18
2.365453203e-18
1.902988885e-18
1.524320801e-18
3.015009072e-18
7.671444184e-18
1.515468015e-17
1.892328639e-17
)


101
(
7.259158298e-24
3.449141151e-23
3.801029126e-22
1.779397001e-21
4.858370564e-21
9.984515635e-21
1.743513086e-20
2.757080508e-20
4.079370971e-20
5.761466297e-20
7.870224638e-20
1.048808785e-19
1.371498376e-19
1.770329154e-19
2.259945391e-19
2.858729257e-19
3.592343035e-19
4.488954777e-19
5.571281596e-19
6.898624452e-19
8.487468968e-19
1.038230831e-18
1.266474114e-18
1.537486225e-18
1.855666908e-18
2.226184902e-18
2.653438346e-18
3.140840267e-18
3.69271377e-18
4.309662014e-18
4.992308629e-18
5.738395058e-18
6.536094192e-18
7.415080164e-18
8.32162122e-18
9.287520566e-18
1.035653033e-17
1.149148411e-17
1.270432545e-17
1.396291627e-17
1.520743619e-17
1.639359868e-17
1.756828981e-17
1.872546948e-17
1.984915668e-17
2.097320082e-17
2.206800368e-17
2.314509258e-17
2.417545512e-17
2.517700753e-17
2.611527395e-17
2.699613754e-17
2.781761033e-17
2.85777913e-17
2.92644893e-17
2.985856499e-17
3.040372231e-17
3.085198753e-17
3.12387416e-17
3.150302929e-17
3.170792563e-17
3.18471927e-17
3.189230308e-17
3.188562878e-17
3.181840827e-17
3.163439406e-17
3.138425195e-17
3.106589928e-17
3.071746435e-17
3.034198626e-17
2.984878112e-17
2.932652718e-17
2.878826932e-17
2.823985207e-17
2.764660573e-17
2.702453668e-17
2.633867274e-17
2.567018939e-17
2.499014855e-17
2.432043303e-17
2.3662837e-17
2.295422647e-17
2.223429407e-17
2.148963633e-17
2.07030787e-17
1.985768007e-17
1.896910093e-17
1.805101628e-17
1.708389517e-17
1.605658767e-17
1.49475611e-17
1.37814425e-17
1.255331376e-17
1.12635639e-17
9.851393305e-18
8.20180281e-18
7.40485523e-18
1.369556263e-17
3.22985602e-17
5.966021911e-17
7.253882627e-17
)


101
(
6.715762224e-24
3.917496261e-23
4.067355854e-22
1.854343233e-21
5.097890937e-21
1.064682821e-20
1.895063339e-20
3.057635413e-20
4.618815365e-20
6.661724292e-20
9.294436475e-20
1.265107285e-19
1.689755766e-19
2.227739515e-19
2.904663198e-19
3.752874735e-19
4.816860135e-19
6.148539055e-19
7.795348377e-19
9.861008471e-19
1.239654446e-18
1.549456346e-18
1.931270302e-18
2.395820226e-18
2.955141012e-18
3.623449518e-18
4.414824062e-18
5.342846382e-18
6.4238604e-18
7.66884348e-18
9.090407488e-18
1.069367948e-17
1.247042457e-17
1.449327925e-17
1.668946402e-17
1.909550415e-17
2.173271204e-17
2.462951501e-17
2.780722725e-17
3.126151118e-17
3.491536806e-17
3.865360472e-17
4.254504916e-17
4.6582413e-17
5.072548633e-17
5.504865449e-17
5.950214485e-17
6.413929723e-17
6.890640618e-17
7.383636718e-17
7.881575665e-17
8.38307874e-17
8.88753066e-17
9.39764897e-17
9.908883971e-17
1.040448599e-16
1.089834324e-16
1.137639881e-16
1.185659602e-16
1.228320473e-16
1.266826445e-16
1.305457427e-16
1.337090268e-16
1.366565718e-16
1.393265999e-16
1.41208378e-16
1.425476531e-16
1.432427787e-16
1.430777405e-16
1.431184391e-16
1.417981288e-16
1.399316761e-16
1.373701232e-16
1.345513419e-16
1.31094579e-16
1.270979422e-16
1.226785751e-16
1.179650306e-16
1.125097857e-16
1.071713897e-16
1.018683102e-16
9.684693315e-17
9.144673351e-17
8.626756018e-17
8.100436978e-17
7.58267396e-17
7.049126419e-17
6.555228945e-17
6.076885601e-17
5.621444246e-17
5.163441366e-17
4.705211921e-17
4.269107132e-17
3.833658443e-17
3.378341455e-17
2.839642275e-17
2.789141162e-17
4.954614188e-17
1.132939005e-16
1.746353357e-16
1.84042117e-16
)


101
(
6.193975852e-24
4.069529278e-23
4.131595355e-22
1.899575962e-21
5.313923514e-21
1.13153376e-20
2.054939465e-20
3.383367185e-20
5.216476111e-20
7.679660088e-20
1.093692129e-19
1.519441693e-19
2.07121992e-19
2.786454332e-19
3.707113287e-19
4.886813279e-19
6.398976854e-19
8.332905289e-19
1.077807042e-18
1.39079401e-18
1.783808055e-18
2.274746188e-18
2.892421666e-18
3.660626759e-18
4.60668027e-18
5.763339729e-18
7.165508727e-18
8.849986052e-18
1.086099748e-17
1.323766912e-17
1.602372415e-17
1.925214553e-17
2.293873492e-17
2.724430324e-17
3.209899436e-17
3.756136904e-17
4.369876436e-17
5.057328032e-17
5.831130026e-17
6.703531067e-17
7.672547495e-17
8.722318013e-17
9.870240601e-17
1.112529799e-16
1.248321564e-16
1.396468841e-16
1.557198204e-16
1.734173136e-16
1.927548979e-16
2.137318784e-16
2.363051199e-16
2.600600335e-16
2.851085494e-16
3.116317568e-16
3.398983858e-16
3.684892395e-16
3.976311268e-16
4.278153698e-16
4.583600377e-16
4.874512279e-16
5.163218564e-16
5.453782079e-16
5.717670433e-16
5.963037644e-16
6.194670618e-16
6.395611069e-16
6.564715426e-16
6.697828661e-16
6.793235936e-16
6.862477677e-16
6.879861107e-16
6.864405763e-16
6.806343946e-16
6.716256695e-16
6.580863115e-16
6.405405696e-16
6.208056213e-16
5.965642282e-16
5.681800075e-16
5.386646057e-16
5.077930629e-16
4.781018588e-16
4.459425571e-16
4.141084655e-16
3.824830227e-16
3.503080397e-16
3.179139571e-16
2.867462434e-16
2.581513227e-16
2.325460846e-16
2.066495843e-16
1.818332419e-16
1.603010424e-16
1.398631904e-16
1.2078878e-16
9.817297617e-17
9.75314658e-17
1.600995911e-16
4.15493454e-16
6.699594647e-16
6.990547894e-16
)


101
(
5.682292686e-24
4.146589999e-23
4.171835965e-22
1.94295389e-21
5.534122259e-21
1.201375074e-20
2.225380775e-20
3.737366745e-20
5.878407278e-20
8.828386234e-20
1.282534905e-19
1.817307874e-19
2.526221418e-19
3.464970351e-19
4.699161073e-19
6.313687948e-19
8.424988924e-19
1.117909261e-18
1.473287766e-18
1.936655062e-18
2.530597494e-18
3.287686911e-18
4.258318995e-18
5.489645801e-18
7.037192485e-18
8.968814964e-18
1.136046729e-17
1.429650689e-17
1.787928971e-17
2.221193359e-17
2.74117861e-17
3.358937476e-17
4.083683272e-17
4.950075185e-17
5.960431526e-17
7.134489995e-17
8.494279058e-17
1.006438987e-16
1.189190614e-16
1.4031766e-16
1.652053041e-16
1.936185244e-16
2.263659146e-16
2.640267964e-16
3.067798794e-16
3.553337822e-16
4.099800605e-16
4.71966762e-16
5.418197429e-16
6.195015643e-16
7.051600242e-16
7.962195452e-16
8.941947503e-16
9.996251546e-16
1.11160717e-15
1.225807564e-15
1.344456935e-15
1.465800079e-15
1.587641406e-15
1.705558326e-15
1.822342506e-15
1.938146122e-15
2.045458431e-15
2.147836348e-15
2.243168986e-15
2.327627293e-15
2.398864522e-15
2.460512588e-15
2.508448903e-15
2.54558316e-15
2.56914106e-15
2.575029989e-15
2.565941977e-15
2.542844345e-15
2.5059549e-15
2.454338086e-15
2.392349306e-15
2.313783457e-15
2.224741623e-15
2.126059126e-15
2.018434722e-15
1.905799899e-15
1.789739802e-15
1.66914329e-15
1.549502617e-15
1.425250172e-15
1.296977023e-15
1.171293103e-15
1.05607734e-15
9.46752458e-16
8.396387888e-16
7.321021142e-16
6.411412336e-16
5.561851457e-16
4.723718805e-16
3.764465474e-16
3.879697028e-16
6.043474104e-16
1.338360743e-15
1.953909677e-15
1.924274065e-15
)


101
(
5.178410175e-24
4.41927777e-23
4.223906728e-22
1.986298036e-21
5.759602655e-21
1.274340314e-20
2.406899226e-20
4.121483628e-20
6.60990081e-20
1.012109271e-19
1.49891776e-19
2.164741422e-19
3.066335331e-19
4.284364821e-19
5.917639561e-19
8.095780504e-19
1.099738148e-18
1.485194689e-18
1.991993771e-18
2.664062323e-18
3.541793537e-18
4.681560947e-18
6.168109844e-18
8.088204798e-18
1.054626231e-17
1.367266229e-17
1.761976031e-17
2.256371172e-17
2.872152719e-17
3.633170031e-17
4.567754784e-17
5.706367021e-17
7.080254547e-17
8.765829111e-17
1.080496822e-16
1.326564363e-16
1.622425031e-16
1.977904172e-16
2.409389771e-16
2.93371559e-16
3.568267724e-16
4.325125563e-16
5.224416426e-16
6.283794235e-16
7.512462206e-16
8.928226637e-16
1.053725781e-15
1.236453536e-15
1.442870359e-15
1.670972149e-15
1.917223005e-15
2.178796937e-15
2.459648893e-15
2.753901141e-15
3.063335023e-15
3.380855317e-15
3.701702849e-15
4.023237617e-15
4.342378461e-15
4.649621382e-15
4.951747957e-15
5.245982831e-15
5.51388052e-15
5.768595066e-15
6.002738159e-15
6.21243734e-15
6.396855614e-15
6.551215097e-15
6.670103137e-15
6.753961872e-15
6.806442505e-15
6.816950983e-15
6.807799629e-15
6.767493513e-15
6.686331987e-15
6.573138203e-15
6.43335624e-15
6.258658601e-15
6.05687411e-15
5.820832461e-15
5.56841061e-15
5.301353643e-15
5.027798162e-15
4.732490312e-15
4.442417135e-15
4.122461734e-15
3.80173483e-15
3.478204057e-15
3.176794854e-15
2.884688265e-15
2.584845989e-15
2.283738777e-15
2.035804414e-15
1.794789028e-15
1.53647517e-15
1.234628378e-15
1.29951198e-15
1.905175597e-15
3.41124847e-15
4.592148676e-15
4.425070649e-15
)


101
(
4.682206902e-24
4.466058425e-23
4.26093777e-22
2.029681095e-21
5.990272507e-21
1.350476215e-20
2.599943456e-20
4.537569239e-20
7.41642596e-20
1.15716971e-19
1.746015132e-19
2.568372647e-19
3.704483281e-19
5.268524824e-19
7.404860759e-19
1.030557994e-18
1.423699148e-18
1.954829073e-18
2.665362774e-18
3.622449505e-18
4.893965682e-18
6.573336944e-18
8.798221458e-18
1.172047187e-17
1.552511925e-17
2.044981306e-17
2.678346855e-17
3.487313506e-17
4.515693429e-17
5.815358159e-17
7.451673172e-17
9.503477052e-17
1.206304474e-16
1.530509297e-16
1.938484563e-16
2.450913415e-16
3.091963368e-16
3.892805979e-16
4.898273206e-16
6.145880394e-16
7.680407195e-16
9.526943789e-16
1.172570994e-15
1.430873098e-15
1.72914059e-15
2.069803176e-15
2.452417981e-15
2.881478229e-15
3.3543081e-15
3.862007202e-15
4.399981818e-15
4.968003419e-15
5.559750958e-15
6.169685982e-15
6.801249379e-15
7.426604109e-15
8.050762451e-15
8.660879301e-15
9.260473219e-15
9.833532167e-15
1.038394164e-14
1.090626159e-14
1.137974128e-14
1.182618564e-14
1.223144913e-14
1.25877738e-14
1.289268573e-14
1.313117556e-14
1.330450592e-14
1.342846877e-14
1.350348452e-14
1.352466334e-14
1.349614539e-14
1.339868053e-14
1.324233765e-14
1.304464329e-14
1.278792012e-14
1.24801415e-14
1.213158153e-14
1.172660101e-14
1.12756954e-14
1.081421103e-14
1.032698666e-14
9.818743418e-15
9.285365977e-15
8.713708534e-15
8.141665585e-15
7.54129852e-15
6.978649923e-15
6.422824334e-15
5.832624447e-15
5.270397944e-15
4.784742209e-15
4.28940375e-15
3.73034566e-15
2.959243753e-15
3.183582008e-15
4.465490965e-15
6.784529091e-15
8.621570534e-15
8.324737691e-15
)


101
(
4.194089808e-24
4.300471832e-23
4.278728928e-22
2.064630038e-21
6.226022002e-21
1.429825074e-20
2.804934848e-20
4.98743949e-20
8.303694017e-20
1.319503914e-19
2.027255282e-19
3.035443349e-19
4.45497437e-19
6.444259384e-19
9.208965727e-19
1.302664479e-18
1.828486452e-18
2.550065708e-18
3.530982775e-18
4.871574238e-18
6.680785733e-18
9.108077551e-18
1.237113789e-17
1.672474189e-17
2.248414122e-17
3.006746132e-17
4.00027309e-17
5.295101191e-17
6.977786997e-17
9.158886438e-17
1.198564568e-16
1.564980809e-16
2.039130357e-16
2.660798077e-16
3.471253618e-16
4.521965522e-16
5.873082976e-16
7.597232343e-16
9.775570428e-16
1.246668417e-15
1.574756154e-15
1.964373078e-15
2.421225054e-15
2.947504433e-15
3.543814182e-15
4.210925872e-15
4.943613219e-15
5.742834885e-15
6.594163384e-15
7.48836061e-15
8.420661518e-15
9.385319062e-15
1.03655148e-14
1.135839156e-14
1.234132113e-14
1.330637421e-14
1.425639984e-14
1.516649598e-14
1.605121793e-14
1.687635729e-14
1.765281132e-14
1.837030959e-14
1.902026324e-14
1.961355074e-14
2.013191085e-14
2.057154375e-14
2.094168237e-14
2.121640801e-14
2.141637708e-14
2.154757459e-14
2.159818845e-14
2.156650113e-14
2.146285682e-14
2.129139031e-14
2.104275191e-14
2.071658294e-14
2.031336527e-14
1.9870923e-14
1.936157933e-14
1.876639343e-14
1.812112525e-14
1.746736387e-14
1.676921992e-14
1.605026236e-14
1.526840258e-14
1.446717926e-14
1.363085113e-14
1.275907641e-14
1.192606497e-14
1.111848752e-14
1.024221732e-14
9.415840835e-15
8.663835246e-15
7.889864198e-15
6.952570405e-15
5.523057185e-15
6.069069596e-15
8.177937108e-15
1.088513186e-14
1.299453797e-14
1.25292869e-14
)


101
(
3.714598605e-24
4.343448782e-23
4.312301551e-22
2.108203132e-21
6.466711351e-21
1.51242543e-20
3.022294513e-20
5.472948559e-20
9.277643917e-20
1.500693959e-19
2.34633019e-19
3.573847188e-19
5.333599809e-19
7.841537791e-19
1.138447824e-18
1.635479263e-18
2.330444251e-18
3.298141487e-18
4.633391022e-18
6.483132558e-18
9.01642177e-18
1.246573334e-17
1.716898889e-17
2.353883912e-17
3.210414406e-17
4.35824788e-17
5.891403168e-17
7.934183428e-17
1.065692717e-16
1.429031287e-16
1.915010378e-16
2.565950419e-16
3.435680649e-16
4.607507856e-16
6.166921081e-16
8.214317521e-16
1.086167269e-15
1.422788406e-15
1.841428512e-15
2.348640796e-15
2.953853769e-15
3.656560575e-15
4.460203827e-15
5.36383262e-15
6.363901622e-15
7.452803108e-15
8.613421944e-15
9.83950025e-15
1.111307605e-14
1.242557955e-14
1.376533138e-14
1.511829671e-14
1.646504226e-14
1.778618498e-14
1.90655598e-14
2.033285911e-14
2.153134646e-14
2.26655638e-14
2.373468006e-14
2.471711039e-14
2.5620217e-14
2.643663524e-14
2.716130274e-14
2.778640906e-14
2.83156837e-14
2.876119722e-14
2.910897551e-14
2.934769826e-14
2.949155704e-14
2.953873577e-14
2.949401801e-14
2.936082296e-14
2.915161321e-14
2.885671614e-14
2.846708882e-14
2.798051096e-14
2.743216788e-14
2.683954401e-14
2.616022097e-14
2.539854178e-14
2.458833617e-14
2.374933671e-14
2.28814588e-14
2.198689042e-14
2.100875785e-14
2.001441439e-14
1.898077857e-14
1.79181775e-14
1.69041624e-14
1.589351131e-14
1.480311239e-14
1.378961995e-14
1.283867137e-14
1.187173174e-14
1.0548295e-14
8.327692542e-15
9.499997041e-15
1.261491395e-14
1.477683858e-14
1.614082316e-14
1.527169639e-14
)


101
(
3.244304322e-24
4.383079471e-23
4.344752745e-22
2.159597527e-21
6.712120259e-21
1.598296699e-20
3.252428057e-20
5.995988753e-20
1.034432724e-19
1.70237877e-19
2.707172615e-19
4.192143073e-19
6.357748093e-19
9.493847524e-19
1.399309495e-18
2.039955734e-18
2.948434178e-18
4.230770865e-18
6.025063791e-18
8.543052575e-18
1.204004237e-17
1.687011893e-17
2.354974497e-17
3.273146387e-17
4.528889905e-17
6.243968077e-17
8.585343763e-17
1.178483426e-16
1.617110177e-16
2.21995488e-16
3.049049226e-16
4.186937156e-16
5.737155516e-16
7.847760578e-16
1.066036574e-15
1.432932608e-15
1.901102506e-15
2.484362301e-15
3.190655226e-15
4.02628313e-15
4.997230569e-15
6.096029783e-15
7.319043655e-15
8.659616563e-15
1.010410591e-14
1.163211356e-14
1.321771527e-14
1.485080588e-14
1.650983379e-14
1.818299056e-14
1.98507345e-14
2.149797901e-14
2.310326203e-14
2.463799757e-14
2.612184981e-14
2.754524788e-14
2.885219289e-14
3.006519169e-14
3.118432265e-14
3.219537329e-14
3.309233775e-14
3.387719346e-14
3.454410879e-14
3.509433871e-14
3.552963215e-14
3.586608631e-14
3.608912144e-14
3.620153784e-14
3.619612211e-14
3.60802761e-14
3.587119917e-14
3.55766211e-14
3.519262672e-14
3.471901134e-14
3.415626124e-14
3.350191629e-14
3.278885075e-14
3.201604914e-14
3.11747354e-14
3.026853417e-14
2.930434589e-14
2.830776684e-14
2.730680641e-14
2.627448891e-14
2.516414834e-14
2.405170638e-14
2.291694209e-14
2.175717108e-14
2.063080075e-14
1.95038074e-14
1.834395882e-14
1.723550315e-14
1.621339361e-14
1.520114587e-14
1.360814703e-14
1.070909155e-14
1.250567125e-14
1.637993345e-14
1.746058717e-14
1.773592777e-14
1.657756633e-14
)


101
(
2.783786219e-24
4.614842771e-23
4.37600036e-22
2.202600267e-21
6.962028539e-21
1.687449124e-20
3.49569174e-20
6.55839186e-20
1.151013577e-19
1.926303182e-19
3.11394989e-19
4.899558898e-19
7.546413393e-19
1.143814454e-18
1.710368229e-18
2.528468384e-18
3.704112263e-18
5.384963454e-18
7.768231132e-18
1.11546572e-17
1.592109196e-17
2.259796633e-17
3.196407069e-17
4.504179386e-17
6.326059267e-17
8.867784491e-17
1.242431191e-16
1.741674568e-16
2.444729027e-16
3.433591029e-16
4.816531431e-16
6.734199235e-16
9.356947398e-16
1.290417895e-15
1.75635611e-15
2.352316812e-15
3.09471112e-15
3.994517837e-15
5.054252564e-15
6.278119877e-15
7.661358268e-15
9.185676954e-15
1.083725758e-14
1.260189537e-14
1.44544304e-14
1.636574846e-14
1.830608412e-14
2.025794544e-14
2.22002237e-14
2.411953616e-14
2.598325591e-14
2.778384736e-14
2.950591405e-14
3.112007052e-14
3.264687171e-14
3.40550495e-14
3.533602326e-14
3.648316479e-14
3.75203902e-14
3.841633112e-14
3.917766457e-14
3.980432204e-14
4.029396282e-14
4.065206284e-14
4.089218781e-14
4.102001302e-14
4.10225705e-14
4.091083653e-14
4.067419287e-14
4.032342265e-14
3.988134294e-14
3.935288103e-14
3.873753644e-14
3.804349646e-14
3.726775362e-14
3.641407932e-14
3.549372212e-14
3.453308121e-14
3.352450739e-14
3.246078395e-14
3.134746755e-14
3.021967832e-14
2.909588698e-14
2.796607369e-14
2.678422778e-14
2.559966515e-14
2.441945312e-14
2.324017142e-14
2.208657022e-14
2.094947675e-14
1.982703731e-14
1.875799716e-14
1.778443418e-14
1.685578697e-14
1.514828442e-14
1.175270565e-14
1.425209866e-14
1.862934486e-14
1.792452823e-14
1.671567374e-14
1.549118e-14
)


101
(
2.333624395e-24
4.64273489e-23
4.405923426e-22
2.245327191e-21
7.216183791e-21
1.779885615e-20
3.75242248e-20
7.161992723e-20
1.27816251e-19
2.174297314e-19
3.571028499e-19
5.706044286e-19
8.92026441e-19
1.371495621e-18
2.079259477e-18
3.114940594e-18
4.622334888e-18
6.804160294e-18
9.937399771e-18
1.444577296e-17
2.087214097e-17
3.000213044e-17
4.300158012e-17
6.147676586e-17
8.775291314e-17
1.252548939e-16
1.790380372e-16
2.563106645e-16
3.671870469e-16
5.249196424e-16
7.46259847e-16
1.052004614e-15
1.465845057e-15
2.015248233e-15
2.72017666e-15
3.599107569e-15
4.664807715e-15
5.921387215e-15
7.364294183e-15
8.988424717e-15
1.077562967e-14
1.269743289e-14
1.472966494e-14
1.684724903e-14
1.901590533e-14
2.120462042e-14
2.338201664e-14
2.552531958e-14
2.761900435e-14
2.963559395e-14
3.154343008e-14
3.335401324e-14
3.504957711e-14
3.659461566e-14
3.800881269e-14
3.928049288e-14
4.040039454e-14
4.136064136e-14
4.218127736e-14
4.284200163e-14
4.335092077e-14
4.370729148e-14
4.391689938e-14
4.399112094e-14
4.394061122e-14
4.376272199e-14
4.346349644e-14
4.303710515e-14
4.249941642e-14
4.186730372e-14
4.112745469e-14
4.030221796e-14
3.9406787e-14
3.844398446e-14
3.741600678e-14
3.631868648e-14
3.51695609e-14
3.399620122e-14
3.27945579e-14
3.156403598e-14
3.03068202e-14
2.904741602e-14
2.781107018e-14
2.65952435e-14
2.536726727e-14
2.415331006e-14
2.296446744e-14
2.181852225e-14
2.070272274e-14
1.963317455e-14
1.861789143e-14
1.767981145e-14
1.684924557e-14
1.611151758e-14
1.443579645e-14
1.082862075e-14
1.395836253e-14
1.851967936e-14
1.579870231e-14
1.282031181e-14
1.148512894e-14
)


101
(
1.894398354e-24
4.480705455e-23
4.459906038e-22
2.287700931e-21
7.474281432e-21
1.875588117e-20
4.022948455e-20
7.808632719e-20
1.416535313e-19
2.4482374e-19
4.083100493e-19
6.62223291e-19
1.050173505e-18
1.636892499e-18
2.514514695e-18
3.815158089e-18
5.731562561e-18
8.538835283e-18
1.262126014e-17
1.856950177e-17
2.715409723e-17
3.953398495e-17
5.745765257e-17
8.343429022e-17
1.211928358e-16
1.762670286e-16
2.568163624e-16
3.741544901e-16
5.436317749e-16
7.84504329e-16
1.120020149e-15
1.576923903e-15
2.182735928e-15
2.967480475e-15
3.947751681e-15
5.138086049e-15
6.544009075e-15
8.16015329e-15
9.972282183e-15
1.196105907e-14
1.410036146e-14
1.634762776e-14
1.866844179e-14
2.103106713e-14
2.339982539e-14
2.574147254e-14
2.802059866e-14
3.021851702e-14
3.231953496e-14
3.428791757e-14
3.611066151e-14
3.780148376e-14
3.933398722e-14
4.068511575e-14
4.187278819e-14
4.289237371e-14
4.37321432e-14
4.439636439e-14
4.4894017e-14
4.522419045e-14
4.538625709e-14
4.538726702e-14
4.523756786e-14
4.494623167e-14
4.452479099e-14
4.397816709e-14
4.331200482e-14
4.253052179e-14
4.162333307e-14
4.064104161e-14
3.955792458e-14
3.839357464e-14
3.718557402e-14
3.591669722e-14
3.460470879e-14
3.324078765e-14
3.183955597e-14
3.043897866e-14
2.902824838e-14
2.762788215e-14
2.623045686e-14
2.483168389e-14
2.349882186e-14
2.221222308e-14
2.094788526e-14
1.972473792e-14
1.855850741e-14
1.746848893e-14
1.6428375e-14
1.548029372e-14
1.461924301e-14
1.38520219e-14
1.322227444e-14
1.272256874e-14
1.119812727e-14
7.631823751e-15
1.124825409e-14
1.581313636e-14
1.148072263e-14
6.76227266e-15
4.775033297e-15
)


101
(
1.466684016e-24
4.505716965e-23
4.487871604e-22
2.329637574e-21
7.735997532e-21
1.974524426e-20
4.307554697e-20
8.50009656e-20
1.566821897e-19
2.750112898e-19
4.655149167e-19
7.65933495e-19
1.231496111e-18
1.94492273e-18
3.025704578e-18
4.647102398e-18
7.06447569e-18
1.064709476e-17
1.59226167e-17
2.370364296e-17
3.508610009e-17
5.17757767e-17
7.640514486e-17
1.128048616e-16
1.667986912e-16
2.469096129e-16
3.652559881e-16
5.379908486e-16
7.862802356e-16
1.135499069e-15
1.614464876e-15
2.253117015e-15
3.079211453e-15
4.120928954e-15
5.387691171e-15
6.887966361e-15
8.617610711e-15
1.056020144e-14
1.269037128e-14
1.497739814e-14
1.738152976e-14
1.985079035e-14
2.235045291e-14
2.484252486e-14
2.728797094e-14
2.965300248e-14
3.190861552e-14
3.403808021e-14
3.601707883e-14
3.782140678e-14
3.944844809e-14
4.090261024e-14
4.216195748e-14
4.32195018e-14
4.408277677e-14
4.475273734e-14
4.522594747e-14
4.550970898e-14
4.561292176e-14
4.552483583e-14
4.528628576e-14
4.487185418e-14
4.430205877e-14
4.358226606e-14
4.274383269e-14
4.177834727e-14
4.070095943e-14
3.952356872e-14
3.822370411e-14
3.685277226e-14
3.540146258e-14
3.38874697e-14
3.234673347e-14
3.075683244e-14
2.915454088e-14
2.75264856e-14
2.588540195e-14
2.42495131e-14
2.264536056e-14
2.109589711e-14
1.955196612e-14
1.805189198e-14
1.665099805e-14
1.530539211e-14
1.40361175e-14
1.283420683e-14
1.171810225e-14
1.070120146e-14
9.770905963e-15
8.979935296e-15
8.290148707e-15
7.706138544e-15
7.289274338e-15
7.034529564e-15
5.744215041e-15
2.426325064e-15
6.454245775e-15
1.100403416e-14
5.956871779e-15
1.54318827e-15
2.151394545e-16
)


101
(
1.051057603e-24
4.702001007e-23
4.486655153e-22
2.371043648e-21
8.00097519e-21
2.076657815e-20
4.606490217e-20
9.238130282e-20
1.729720717e-19
3.082026379e-19
5.292334128e-19
8.829200607e-19
1.438579519e-18
2.300980815e-18
3.623600308e-18
5.63151414e-18
8.659508372e-18
1.319879235e-17
1.996744703e-17
3.006584379e-17
4.507667408e-17
6.749195037e-17
1.01243312e-16
1.519709018e-16
2.283618185e-16
3.427192355e-16
5.11580091e-16
7.560629768e-16
1.102935864e-15
1.582504566e-15
2.226267888e-15
3.063830208e-15
4.120842575e-15
5.418516074e-15
6.957617085e-15
8.739869051e-15
1.07497072e-14
1.295867076e-14
1.533002431e-14
1.782249312e-14
2.038697962e-14
2.297392016e-14
2.553988693e-14
2.80428174e-14
3.044790876e-14
3.272638269e-14
3.485295722e-14
3.680349108e-14
3.855983795e-14
4.010996807e-14
4.144779592e-14
4.257438901e-14
4.348016634e-14
4.416386656e-14
4.463027319e-14
4.488649555e-14
4.493049912e-14
4.47781821e-14
4.44371715e-14
4.389759369e-14
4.319140908e-14
4.233358399e-14
4.130159177e-14
4.012985568e-14
3.884453264e-14
3.743137473e-14
3.593876566e-14
3.434050958e-14
3.265694456e-14
3.089586734e-14
2.907230326e-14
2.723397937e-14
2.536779534e-14
2.348791349e-14
2.163504774e-14
1.978518474e-14
1.792361539e-14
1.609797171e-14
1.436348029e-14
1.268930012e-14
1.105346164e-14
9.53338464e-15
8.098881487e-15
6.748655781e-15
5.525535219e-15
4.392126642e-15
3.376190626e-15
2.475011068e-15
1.690002555e-15
1.074680165e-15
5.637624321e-16
1.721955151e-16
-3.574334421e-17
-6.521512136e-17
-1.070028637e-15
-3.984220411e-15
5.213199945e-16
5.239162273e-15
4.659097612e-16
-3.614025049e-15
-4.880853499e-15
)


101
(
6.480742172e-25
4.7132828e-23
4.510572327e-22
2.411822481e-21
8.231930618e-21
2.181932913e-20
4.919961945e-20
1.002442962e-19
1.905858699e-19
3.445917184e-19
6.000085688e-19
1.014461234e-18
1.67425238e-18
2.710935774e-18
4.319866459e-18
6.790840727e-18
1.055939683e-17
1.627524399e-17
2.490776917e-17
3.795144338e-17
5.768359178e-17
8.770309277e-17
1.336877744e-16
2.036454931e-16
3.097553045e-16
4.686196181e-16
7.010830482e-16
1.032514463e-15
1.494148444e-15
2.11857283e-15
2.936221021e-15
3.973700409e-15
5.253273934e-15
6.784839316e-15
8.56042742e-15
1.057468516e-14
1.280006836e-14
1.519666657e-14
1.771090713e-14
2.03111256e-14
2.294687287e-14
2.554667092e-14
2.80718937e-14
3.0485348e-14
3.275497105e-14
3.485339867e-14
3.675788487e-14
3.844536912e-14
3.990587448e-14
4.112818952e-14
4.210661658e-14
4.284308035e-14
4.333723473e-14
4.359121222e-14
4.361541718e-14
4.341454029e-14
4.299017788e-14
4.237080292e-14
4.155624664e-14
4.055115379e-14
3.936638822e-14
3.802222508e-14
3.652983715e-14
3.491141629e-14
3.317738099e-14
3.134229416e-14
2.945013673e-14
2.746318017e-14
2.540427255e-14
2.328909713e-14
2.116485057e-14
1.903772534e-14
1.690429964e-14
1.481249469e-14
1.277300111e-14
1.074971027e-14
8.771613646e-15
6.877582534e-15
5.066986565e-15
3.352100869e-15
1.750348148e-15
2.824524099e-16
-1.10493859e-15
-2.36438056e-15
-3.451820192e-15
-4.440305633e-15
-5.303158724e-15
-6.032563807e-15
-6.625237601e-15
-7.048891278e-15
-7.346671137e-15
-7.53003902e-15
-7.536164251e-15
-7.352178602e-15
-8.035918479e-15
-1.044909285e-14
-5.326150795e-15
-2.212778647e-16
-3.965203419e-15
-6.999138684e-15
-8.180731233e-15
)


101
(
2.582797834e-25