/*--------------------------------*- C++ -*----------------------------------*\
| =========                 |                                                 |
| \\      /  F ield         | OpenFOAM: The Open Source CFD Toolbox           |
|  \\    /   O peration     | Version:  2.3.1                                 |
|   \\  /    A nd           | Web:      www.OpenFOAM.org                      |
|    \\/     M anipulation  |                                                 |
\*---------------------------------------------------------------------------*/
FoamFile
{
    version     2.0;
    format      ascii;
    class       dictionary;
    location    "constant";
    object      PM43;
}
// * * * * * * * * * * * * * * * * * * * * * * * * * * * * * * * * * * * * * //

PM43_table
101
(

101
(
6.202101373e-20
-1.515148213e-17
-1.123695748e-16
-2.593129177e-16
-3.330798633e-16
-4.881749536e-16
2.731038635e-16
8.797739728e-16
2.053534035e-15
3.251346783e-15
4.894107301e-15
5.335427952e-15
8.419446706e-15
8.510394657e-15
8.658126769e-15
9.503571299e-15
1.072954958e-14
6.881190922e-15
1.102999181e-14
7.325205587e-15
5.967502881e-15
7.356232304e-15
5.654515412e-15
3.984662375e-15
2.801531993e-15
1.629385646e-15
4.39227545e-16
-7.994128029e-16
-2.100357816e-15
-3.489167338e-15
-4.663744956e-15
-4.307914753e-15
-9.306561675e-15
-9.527540581e-15
-1.034840621e-14
-1.125819522e-14
-1.098878684e-14
-1.30727882e-14
-1.727466854e-14
-1.949143218e-14
-1.659003831e-14
-1.923316997e-14
-2.079870681e-14
-1.903918599e-14
-2.136799173e-14
-2.120398753e-14
-2.346775864e-14
-2.364279049e-14
-2.543968236e-14
-2.504375652e-14
-2.539412105e-14
-2.590106637e-14
-2.584859698e-14
-2.535882579e-14
-2.507268437e-14
-2.871163152e-14
-2.557823204e-14
-2.707967611e-14
-2.649346141e-14
-2.691967056e-14
-2.653186662e-14
-2.56488191e-14
-2.567220952e-14
-2.529980729e-14
-2.511865707e-14
-2.442783874e-14
-2.369027285e-14
-2.404227728e-14
-2.319213766e-14
-2.266270651e-14
-2.238084159e-14
-2.276036674e-14
-2.11778127e-14
-1.876187652e-14
-1.654813562e-14
-1.713273349e-14
-1.715115153e-14
-1.573998978e-14
-1.423381509e-14
-1.296446809e-14
-1.305522244e-14
-1.194996941e-14
-1.085269065e-14
-9.860472542e-15
-8.704388774e-15
-7.761703447e-15
-6.960620287e-15
-6.212165e-15
-5.459999682e-15
-4.612805323e-15
-3.749468715e-15
-3.141758208e-15
-2.568061145e-15
-1.898800733e-15
-1.397936635e-15
-7.31688459e-17
1.421006719e-15
2.602178606e-21
-1.590367945e-30
-2.703513775e-31
2.954059985e-30
)


101
(
-1.556435971e-19
-1.530506571e-17
-1.151576284e-16
-2.832385368e-16
-4.350199462e-16
-7.65550563e-16
-3.867598531e-16
-3.408082115e-16
3.346466712e-17
2.595041564e-16
7.685305155e-16
1.809570689e-16
1.908564842e-15
1.183405581e-15
7.078545958e-16
9.835157246e-16
1.784883547e-15
-1.217129725e-15
2.244770729e-15
-2.451885302e-16
-6.598279629e-16
8.905982656e-16
3.242156963e-16
-8.858520173e-17
-2.051667414e-16
-2.776194748e-16
-3.171984953e-16
-3.626775368e-16
-4.310837329e-16
-5.502443662e-16
-5.294379443e-16
4.535917327e-16
-1.795775119e-15
-1.065458048e-15
-1.035638465e-15
-7.522991368e-16
1.094259746e-16
-3.744287137e-16
-1.964786695e-15
-2.675189392e-15
-8.046193871e-16
-1.690096342e-15
-1.591551192e-15
-3.170792541e-16
-1.01137832e-15
-2.487339319e-16
-1.121087661e-15
-7.403528596e-16
-1.456647222e-15
-9.001009624e-16
-9.153998264e-16
-7.551012763e-16
-5.063833334e-16
-1.087272103e-16
1.888500195e-16
-1.233998906e-15
2.024921861e-16
-8.433159871e-16
-1.835939936e-16
-6.458139173e-16
-3.884768129e-16
-1.954992518e-16
-2.253897557e-16
-1.15710419e-16
-2.214554285e-16
-1.083011775e-16
-6.079602358e-17
-4.044817303e-16
-3.510970592e-16
-6.016321403e-16
-7.653227647e-16
-1.169342821e-15
-7.167857837e-16
-1.002246995e-17
7.759822209e-16
3.698157931e-16
4.186797379e-17
-7.706097729e-17
8.121556634e-17
2.708682351e-16
-9.763584347e-17
-2.971428943e-17
-6.11550215e-17
2.774119817e-17
2.871481357e-17
-3.051189228e-17
-7.527441109e-17
-1.065636924e-16
-8.376908413e-17
-3.482539738e-17
-4.428584239e-17
-4.000909965e-17
5.699333812e-18
7.118383807e-17
5.30976484e-16
2.932903979e-15
3.703790338e-14
6.652944936e-14
6.968477951e-14
7.236552096e-14
7.15447344e-14
)


101
(
-3.321839025e-19
-1.337072758e-17
-1.039814985e-16
-2.528255211e-16
-3.805621218e-16
-6.760340628e-16
-3.164384454e-16
-2.481626021e-16
9.024240103e-17
2.993604701e-16
7.388507599e-16
2.359209048e-16
1.624592285e-15
1.166199269e-15
6.596487213e-16
7.912133643e-16
1.459935688e-15
-7.977751484e-16
1.410816228e-15
7.829250956e-17
-6.302334332e-16
4.02567627e-16
3.091565016e-16
-5.918269157e-17
-2.406442597e-16
-3.294275387e-16
-3.748504571e-16
-4.091984716e-16
-4.574539207e-16
-5.454023971e-16
-5.641555765e-16
4.394199045e-17
-1.036942211e-15
-1.17839105e-15
-1.061854561e-15
-8.537020871e-16
-2.511892527e-16
-2.30623374e-16
-1.179999028e-15
-2.087202541e-15
-1.454571225e-15
-1.398491147e-15
-1.465595637e-15
-8.029558404e-16
-7.186476793e-16
-4.378513657e-16
-6.388313354e-16
-6.770829172e-16
-9.56979311e-16
-9.126499547e-16
-7.913047803e-16
-6.690264062e-16
-4.821506884e-16
-1.990231469e-16
9.98480014e-17
-3.62076069e-16
-1.797276728e-16
-2.7999402e-16
-2.2879385e-16
-2.742310894e-16
-2.672276468e-16
-1.327305896e-16
-5.199583604e-17
1.783127768e-17
2.099637759e-17
4.610386364e-17
9.499695674e-17
-1.813618363e-17
-1.304985136e-16
-2.893231748e-16
-4.739977407e-16
-6.841942484e-16
-5.468872671e-16
5.419659668e-18
6.766756024e-16
7.9272277e-16
4.81860463e-16
2.56107697e-16
3.204488815e-16
4.787627843e-16
3.524881565e-16
2.61375352e-16
3.365849464e-16
4.340838413e-16
4.77493093e-16
4.226067258e-16
3.606641824e-16
3.397201963e-16
4.195197557e-16
5.461111427e-16
6.402102641e-16
6.887266301e-16
8.044321443e-16
1.113837122e-15
2.512732385e-15
7.23590281e-15
7.389113426e-14
1.330453874e-13
1.393529253e-13
1.447120092e-13
1.43069683e-13
)


101
(
-4.712131219e-19
-1.161318368e-17
-9.35715596e-17
-2.243550284e-16
-3.295228603e-16
-5.917162119e-16
-2.494372918e-16
-1.607658879e-16
1.470979226e-16
3.404376172e-16
7.183838309e-16
2.865393216e-16
1.389852443e-15
1.125392865e-15
6.228233795e-16
6.323881168e-16
1.17061235e-15
-5.078206278e-16
8.217931605e-16
1.908295393e-16
-5.593060948e-16
4.779608795e-17
1.985172422e-16
-5.441278599e-17
-2.593548776e-16
-3.703600049e-16
-4.253704202e-16
-4.555538254e-16
-4.867648655e-16
-5.469179835e-16
-5.776907026e-16
-2.095245335e-16
-6.773419444e-16
-1.042137772e-15
-1.052464808e-15
-8.9859532e-16
-4.750007569e-16
-2.50235823e-16
-7.07547154e-16
-1.484656165e-15
-1.5106511e-15
-1.332455098e-15
-1.305629346e-15
-9.518875373e-16
-6.602560072e-16
-4.338114277e-16
-3.922270633e-16
-4.446263072e-16
-5.787819198e-16
-6.506996474e-16
-5.821364976e-16
-4.70806694e-16
-3.198451506e-16
-1.114000785e-16
1.395847244e-16
8.467830726e-17
3.873732882e-17
6.261687243e-17
6.795509872e-17
9.387588222e-17
1.03144435e-16
1.822275061e-16
2.834443356e-16
3.726944445e-16
4.313543921e-16
4.726400554e-16
5.213603469e-16
5.041007075e-16
4.15043215e-16
2.842883846e-16
1.324850766e-16
3.060057741e-17
1.696713247e-16
6.565165331e-16
1.257215152e-15
1.514755745e-15
1.353565402e-15
1.171571363e-15
1.226599572e-15
1.360908204e-15
1.305168107e-15
1.262702795e-15
1.418974228e-15
1.602189116e-15
1.73542859e-15
1.780052503e-15
1.751140521e-15
1.734977868e-15
1.892067173e-15
2.173843137e-15
2.462496621e-15
2.694966753e-15
3.060820333e-15
3.721358287e-15
6.421917261e-15
1.400283169e-14
1.121281572e-13
1.995555282e-13
2.090208635e-13
2.170635449e-13
2.145991993e-13
)


101
(
-5.76181547e-19
-1.002257925e-17
-8.389488018e-17
-1.977550041e-16
-2.817914506e-16
-5.124680008e-16
-1.858283693e-16
-7.861774724e-17
2.034206469e-16
3.822837006e-16
7.058972675e-16
3.335965717e-16
1.19735699e-15
1.069352034e-15
5.922389212e-16
5.023702682e-16
9.154912178e-16
-3.182936289e-16
4.059174068e-16
1.786663747e-16
-4.935241084e-16
-2.032343196e-16
4.351192249e-17
-8.691523094e-17
-2.772009848e-16
-4.036797933e-16
-4.703268673e-16
-5.017165039e-16
-5.204630091e-16
-5.568281149e-16
-5.837556634e-16
-3.628634321e-16
-5.217543329e-16
-8.597230817e-16
-9.703383917e-16
-8.927295793e-16
-6.056971695e-16
-3.204222729e-16
-4.529527357e-16
-9.899603546e-16
-1.276338685e-15
-1.208553985e-15
-1.141989615e-15
-9.153574992e-16
-6.031254368e-16
-3.627363327e-16
-2.053710116e-16
-1.857252085e-16
-2.218496673e-16
-2.824917292e-16
-2.4343174e-16
-1.453670977e-16
-7.278924076e-18
1.63609613e-16
3.698229753e-16
4.71282736e-16
4.564582622e-16
5.175743451e-16
5.511259663e-16
6.265584848e-16
6.854635329e-16
7.768018142e-16
8.952627465e-16
1.017519313e-15
1.131703681e-15
1.22935434e-15
1.32008294e-15
1.374623841e-15
1.358177053e-15
1.289686356e-15
1.198048664e-15
1.190964331e-15
1.427001785e-15
1.976880797e-15
2.610179577e-15
2.952495569e-15
2.926242725e-15
2.868508938e-15
3.012180182e-15
3.193603554e-15
3.187256566e-15
3.222201659e-15
3.50326308e-15
3.832546232e-15
4.119800464e-15
4.332728271e-15
4.46647629e-15
4.517948814e-15
4.75559654e-15
5.228160271e-15
5.828275794e-15
6.446158529e-15
7.094935577e-15
8.266237336e-15
1.266913419e-14
2.354649149e-14
1.518403883e-13
2.660778839e-13
2.786960501e-13
2.894189034e-13
2.861338786e-13
)


101
(
-6.503799545e-19
-8.589353723e-18
-7.491913344e-17
-1.729543292e-16
-2.372581637e-16
-4.381604952e-16
-1.256651337e-16
-1.708669723e-18
2.586546947e-16
4.244044141e-16
7.001984649e-16
3.776560027e-16
1.040961578e-15
1.004556238e-15
5.647397233e-16
3.967216647e-16
6.92662245e-16
-2.053145028e-16
1.108493488e-16
9.825171625e-17
-4.530875094e-16
-3.798933317e-16
-1.238585057e-16
-1.543716367e-16
-3.057833463e-16
-4.349339795e-16
-5.118442569e-16
-5.479432191e-16
-5.58981755e-16
-5.762126049e-16
-5.914842038e-16
-4.562503621e-16
-4.665879872e-16
-7.050004284e-16
-8.5139369e-16
-8.473624175e-16
-6.595637995e-16
-3.85752341e-16
-3.304323543e-16
-6.309241777e-16
-9.473359871e-16
-9.853242052e-16
-9.390646583e-16
-7.715984842e-16
-4.821480471e-16
-2.335219046e-16
-1.346064889e-17
8.266220921e-17
1.33193924e-16
1.29772219e-16
1.87951293e-16
2.969191898e-16
4.463471429e-16
6.170083779e-16
8.066861631e-16
9.711860231e-16
1.024999838e-15
1.143068931e-15
1.231189356e-15
1.372752992e-15
1.508206041e-15
1.662560355e-15
1.835237982e-15
2.014266651e-15
2.199570542e-15
2.382533589e-15
2.561485542e-15
2.71653091e-15
2.807521101e-15
2.846869466e-15
2.860125593e-15
2.974940045e-15
3.353302733e-15
4.049796843e-15
4.812613085e-15
5.283089742e-15
5.413056812e-15
5.538261779e-15
5.864285259e-15
6.187393001e-15
6.273361683e-15
6.404852331e-15
6.843896017e-15
7.377536369e-15
7.894461626e-15
8.363208834e-15
8.759995898e-15
9.009238075e-15
9.413073235e-15
1.005785913e-14
1.106165473e-14
1.217973302e-14
1.328398007e-14
1.516070522e-14
2.145494964e-14
3.608277524e-14
1.931281341e-13
3.326209481e-13
3.483738042e-13
3.617582972e-13
3.57651653e-13
)


101
(
-6.969410918e-19
-7.304159517e-18
-6.661260614e-17
-1.498826769e-16
-1.958137948e-16
-3.686639707e-16
-6.899372666e-17
6.997338745e-17
3.122951062e-16
4.663110286e-16
7.001932464e-16
4.190903236e-16
9.154562845e-16
9.361599134e-16
5.386872935e-16
3.117867148e-16
5.001884716e-16
-1.488217834e-16
-1.012803969e-16
-1.438580834e-17
-4.429345866e-16
-5.073374537e-16
-2.85631554e-16
-2.485923744e-16
-3.515334491e-16
-4.703439898e-16
-5.529052493e-16
-5.950082141e-16
-6.024543791e-16
-6.054258536e-16
-6.064324391e-16
-5.172632941e-16
-4.603569685e-16
-5.960660552e-16
-7.253944598e-16
-7.638582948e-16
-6.544758993e-16
-4.226279602e-16
-2.741964605e-16
-3.872212674e-16
-6.273982956e-16
-7.02850531e-16
-6.873844799e-16
-5.561472556e-16
-2.917129424e-16
-4.119424147e-17
2.157879317e-16
3.750742577e-16
5.013821153e-16
5.69908837e-16
6.789887497e-16
8.273025043e-16
1.016607001e-15
1.224592729e-15
1.43857666e-15
1.651786788e-15
1.779246666e-15
1.970653698e-15
2.135273651e-15
2.365476519e-15
2.60335781e-15
2.863172399e-15
3.13679052e-15
3.411282648e-15
3.696482508e-15
3.993051046e-15
4.301369124e-15
4.600146075e-15
4.845680213e-15
5.044016539e-15
5.212749922e-15
5.493917807e-15
6.060931832e-15
6.96880262e-15
7.944114871e-15
8.616884668e-15
8.958512016e-15
9.320244946e-15
9.903873564e-15
1.047750164e-14
1.075197642e-14
1.104327192e-14
1.167351066e-14
1.246485301e-14
1.328264569e-14
1.410161629e-14
1.486795306e-14
1.548400892e-14
1.610483465e-14
1.701178347e-14
1.844783782e-14
2.016702355e-14
2.195286053e-14
2.461386827e-14
3.304353419e-14
5.175410791e-14
2.360594392e-13
3.991433541e-13
4.180552944e-13
4.341236179e-13
4.291950566e-13
)


101
(
-7.188417559e-19
-6.110613106e-18
-5.676277768e-17
-1.284708318e-16
-1.573503515e-16
-3.038504283e-16
-1.585926065e-17
1.364297476e-16
3.638700048e-16
5.075276965e-16
7.048420384e-16
4.581876769e-16
8.161420417e-16
8.678800283e-16
5.129154976e-16
2.438504542e-16
3.3565711e-16
-1.331885566e-16
-2.57402234e-16
-1.383775049e-16
-4.609424478e-16
-6.044269884e-16
-4.340127258e-16
-3.603700231e-16
-4.162490793e-16
-5.149179621e-16
-5.969424667e-16
-6.443655333e-16
-6.512001518e-16
-6.444075743e-16
-6.316855208e-16
-5.645537709e-16
-4.800012163e-16
-5.321774516e-16
-6.166251663e-16
-6.64358469e-16
-6.068041021e-16
-4.229343272e-16
-2.410874918e-16
-2.259225572e-16
-3.579800715e-16
-4.107921674e-16
-4.038001951e-16
-2.908616654e-16
-4.321146996e-17
2.102826388e-16
4.945289312e-16
7.060448636e-16
8.991353041e-16
1.043159453e-15
1.219464307e-15
1.429231779e-15
1.682610481e-15
1.959638978e-15
2.239965816e-15
2.525140094e-15
2.737718709e-15
3.01694768e-15
3.284403691e-15
3.628269155e-15
3.99598913e-15
4.401277635e-15
4.823989462e-15
5.243057229e-15
5.666943928e-15
6.109831584e-15
6.583343106e-15
7.071382678e-15
7.524369586e-15
7.939187537e-15
8.326940085e-15
8.832584561e-15
9.638491698e-15
1.081314811e-14
1.207655824e-14
1.303221026e-14
1.365541946e-14
1.431439354e-14
1.52347572e-14
1.616540604e-14
1.675580193e-14
1.730631751e-14
1.819449116e-14
1.929218118e-14
2.047937244e-14
2.172022556e-14
2.294708988e-14
2.408022694e-14
2.508575291e-14
2.633579794e-14
2.821231612e-14
3.065403396e-14
3.331097221e-14
3.685166197e-14
4.774934659e-14
7.072911845e-14
2.807074207e-13
4.656620168e-13
4.87739622e-13
5.064487637e-13
5.007410123e-13
)


101
(
-7.189055024e-19
-5.182853414e-18
-5.006787962e-17
-1.086508638e-16
-1.217593823e-16
-2.435843297e-16
3.371882259e-17
1.976894791e-16
4.129712744e-16
5.476219445e-16
7.131706127e-16
4.951403779e-16
7.388946777e-16
8.025749287e-16
4.872478053e-16
1.898107173e-16
1.967160285e-16
-1.457362949e-16
-3.760118922e-16
-2.613546308e-16
-5.013172915e-16
-6.846061857e-16
-5.66937326e-16
-4.810334697e-16
-4.984137272e-16
-5.720527839e-16
-6.476556375e-16
-6.982612639e-16
-7.060909162e-16
-6.933199626e-16
-6.689233645e-16
-6.098532231e-16
-5.158784206e-16
-5.070343385e-16
-5.385650576e-16
-5.696320955e-16
-5.366143903e-16
-3.934388221e-16
-2.091157438e-16
-1.149085533e-16
-1.448188379e-16
-1.400813263e-16
-1.123680894e-16
2.110843726e-18
2.465801585e-16
5.103433899e-16
8.216687357e-16
1.08215798e-15
1.339535646e-15
1.559846174e-15
1.812911322e-15
2.100757579e-15
2.435939442e-15
2.804412291e-15
3.183394342e-15
3.570818558e-15
3.894877872e-15
4.290042451e-15
4.684830979e-15
5.167720841e-15
5.696179491e-15
6.283556555e-15
6.901213413e-15
7.518965166e-15
8.134064293e-15
8.766529268e-15
9.441708189e-15
1.016210872e-14
1.087918979e-14
1.15775867e-14
1.225310726e-14
1.304499521e-14
1.414751853e-14
1.564712839e-14
1.726864066e-14
1.859314051e-14
1.958559341e-14
2.06222399e-14
2.196010967e-14
2.335022871e-14
2.43884711e-14
2.532361385e-14
2.655660171e-14
2.80160112e-14
2.964631236e-14
3.138568548e-14
3.319356943e-14
3.496143902e-14
3.655702327e-14
3.823507396e-14
4.061867656e-14
4.388001494e-14
4.755927974e-14
5.212115938e-14
6.561718859e-14
9.308730285e-14
3.271173212e-13
5.32183946e-13
5.574442137e-13
5.787508071e-13
5.723629321e-13
)


101
(
-6.998048442e-19
-4.247434198e-18
-4.540147887e-17
-8.229658627e-17
-8.893616344e-17
-1.877296044e-16
7.974069344e-17
2.538114852e-16
4.592292842e-16
5.861435235e-16
7.242575078e-16
5.300414338e-16
6.80088287e-16
7.421129077e-16
4.618616266e-16
1.470975572e-16
8.093989785e-17
-1.764755583e-16
-4.699913835e-16
-3.769110124e-16
-5.578672179e-16
-7.565758915e-16
-6.852475957e-16
-6.0442171e-16
-5.953404473e-16
-6.435844372e-16
-7.081825137e-16
-7.591189887e-16
-7.684335393e-16
-7.52558572e-16
-7.191271573e-16
-6.608008665e-16
-5.653047086e-16
-5.142385213e-16
-4.969991687e-16
-4.964389832e-16
-4.640522666e-16
-3.453007634e-16
-1.693318281e-16
-3.085950169e-17
2.156043781e-17
9.564148178e-17
1.660178941e-16
3.035549029e-16
5.610816791e-16
8.452213774e-16
1.188294512e-15
1.500724276e-15
1.82450443e-15
2.124483411e-15
2.462893389e-15
2.840340367e-15
3.272850231e-15
3.750739202e-15
4.252697411e-15
4.773150394e-15
5.240216041e-15
5.779829061e-15
6.32851563e-15
6.978789847e-15
7.697023026e-15
8.498423636e-15
9.354626336e-15
1.022776559e-14
1.109667663e-14
1.197495666e-14
1.289694029e-14
1.388871422e-14
1.491653893e-14
1.596394039e-14
1.700645462e-14
1.816533446e-14
1.963216115e-14
2.155568912e-14
2.356152832e-14
2.534796969e-14
2.681293763e-14
2.831809822e-14
3.015583133e-14
3.210671297e-14
3.372350246e-14
3.519085463e-14
3.687773461e-14
3.878428446e-14
4.094127225e-14
4.327688454e-14
4.57668309e-14
4.828198073e-14
5.066185784e-14
5.291246304e-14
5.591622674e-14
6.005237755e-14
6.489381956e-14
7.066856473e-14
8.690145942e-14
1.190588165e-13
3.753621508e-13
5.986859297e-13
6.271451832e-13
6.512070372e-13
6.441205858e-13
)


101
(
-6.640636332e-19
-3.466339254e-18
-3.94682882e-17
-6.636727484e-17
-5.877550191e-17
-1.361455323e-16
1.222257173e-16
3.048796029e-16
5.023364874e-16
6.22674646e-16
7.372923781e-16
5.629166124e-16
6.366255472e-16
6.874518686e-16
4.369402734e-16
1.136433002e-16
-1.404972643e-17
-2.17963647e-16
-5.471581327e-16
-4.828409027e-16
-6.247655827e-16
-8.248081597e-16
-7.911552681e-16
-7.260899574e-16
-7.029788106e-16
-7.293903762e-16
-7.805525974e-16
-8.291269061e-16
-8.397545292e-16
-8.229086159e-16
-7.830987465e-16
-7.221008771e-16
-6.282256701e-16
-5.489176857e-16
-4.919856108e-16
-4.544624884e-16
-4.056969942e-16
-2.94830861e-16
-1.264054089e-16
3.824970274e-17
1.531777929e-16
2.933116208e-16
4.196763003e-16
5.961518426e-16
8.80828006e-16
1.197830568e-15
1.582022162e-15
1.951448936e-15
2.346996491e-15
2.731087967e-15
3.163171392e-15
3.642023276e-15
4.184939923e-15
4.78756285e-15
5.43224278e-15
6.111960586e-15
6.74984576e-15
7.465339874e-15
8.197221827e-15
9.042282608e-15
9.978607557e-15
1.102396682e-14
1.215563029e-14
1.333447564e-14
1.452239375e-14
1.571164899e-14
1.693630391e-14
1.824246374e-14
1.9627156e-14
2.108480187e-14
2.257243814e-14
2.418274291e-14
2.609416975e-14
2.847043332e-14
3.101917972e-14
3.331184997e-14
3.534758559e-14
3.743363188e-14
3.987376186e-14
4.247549739e-14
4.479231111e-14
4.695301523e-14
4.924720061e-14
5.169730695e-14
5.44816375e-14
5.753435285e-14
6.080164396e-14
6.417946275e-14
6.750223661e-14
7.05769861e-14
7.426723238e-14
7.931391324e-14
8.549806843e-14
9.268426296e-14
1.118192894e-13
1.487455438e-13
4.25503792e-13
6.652746706e-13
6.970191613e-13
7.237808006e-13
7.159633021e-13
)


101
(
-6.140594114e-19
-2.790562071e-18
-3.405590509e-17
-5.808677571e-17
-3.117092082e-17
-8.868669523e-17
1.612064417e-16
3.509837361e-16
5.420221444e-16
6.56824282e-16
7.514964548e-16
5.93690747e-16
6.057816552e-16
6.391906254e-16
4.128586272e-16
8.774307927e-17
-9.075395302e-17
-2.641593652e-16
-6.128711185e-16
-5.783462006e-16
-6.970994268e-16
-8.925287228e-16
-8.873645168e-16
-8.4340779e-16
-8.172278778e-16
-8.278564805e-16
-8.655513086e-16
-9.099086718e-16
-9.214514306e-16
-9.053264747e-16
-8.61758853e-16
-7.970266156e-16
-7.059043463e-16
-6.078828388e-16
-5.214271072e-16
-4.487802327e-16
-3.747745356e-16
-2.572755958e-16
-8.849281647e-17
9.359829584e-17
2.547751242e-16
4.534724132e-16
6.414022351e-16
8.676241336e-16
1.192008131e-15
1.551754093e-15
1.984301104e-15
2.419050746e-15
2.892238027e-15
3.366425271e-15
3.8985281e-15
4.487457284e-15
5.15283468e-15
5.893637051e-15
6.696951462e-15
7.556697537e-15
8.394445515e-15
9.317063545e-15
1.026115887e-14
1.133012796e-14
1.251061083e-14
1.382567264e-14
1.526292132e-14
1.678704889e-14
1.835136845e-14
1.992352262e-14
2.15212397e-14
2.319600222e-14
2.498087646e-14
2.687934693e-14
2.88746582e-14
3.104555428e-14
3.350044396e-14
3.638581537e-14
3.954398918e-14
4.245936788e-14
4.515727771e-14
4.794283913e-14
5.11066444e-14
5.445408597e-14
5.758263249e-14
6.059651347e-14
6.368158124e-14
6.681071634e-14
7.03229297e-14
7.420928854e-14
7.838818392e-14
8.272847102e-14
8.716246754e-14
9.130572323e-14
9.579593696e-14
1.018370383e-13
1.095305268e-13
1.183152716e-13
1.404910732e-13
1.822557159e-13
4.775640559e-13
7.318773898e-13
7.667296874e-13
7.961169099e-13
7.877453805e-13
)


101
(
-5.52026083e-19
-2.500130491e-18
-2.91367098e-17
-4.398232382e-17
-6.016436871e-18
-4.520405507e-17
1.967390644e-16
3.92244461e-16
5.780447576e-16
6.882288855e-16
7.661705492e-16
6.223160348e-16
5.851044355e-16
5.975966258e-16
3.901736128e-16
6.78707657e-17
-1.514475063e-16
-3.106304673e-16
-6.702526604e-16
-6.638664328e-16
-7.714420064e-16
-9.60417774e-16
-9.760948377e-16
-9.55221055e-16
-9.344806984e-16
-9.361654211e-16
-9.627166352e-16
-1.002446143e-15
-1.014820909e-15
-1.000896776e-15
-9.560783178e-16
-8.880873391e-16
-8.003628066e-16
-6.899019101e-16
-5.831642889e-16
-4.809414654e-16
-3.788484422e-16
-2.452994374e-16
-6.923718065e-17
1.285845749e-16
3.27556512e-16
5.767532504e-16
8.234538142e-16
1.104772161e-15
1.476591141e-15
1.888012206e-15
2.378136454e-15
2.882557238e-15
3.437228213e-15
4.009410274e-15
4.648352223e-15
5.354421805e-15
6.149366955e-15
7.038320084e-15
8.013176193e-15
9.070059744e-15
1.013253295e-14
1.128935069e-14
1.247765067e-14
1.379801865e-14
1.524597455e-14
1.685689054e-14
1.862481612e-14
2.052564856e-14
2.250878004e-14
2.452853889e-14
2.657522206e-14
2.868816711e-14
3.092043959e-14
3.331690321e-14
3.587496528e-14
3.865761203e-14
4.175170418e-14
4.528141726e-14
4.907068429e-14
5.272688143e-14
5.613407789e-14
5.975469567e-14
6.376450799e-14
6.798199103e-14
7.197701635e-14
7.602868883e-14
8.010362313e-14
8.410069143e-14
8.842637723e-14
9.325630069e-14
9.851188764e-14
1.039063012e-13
1.096536765e-13
1.150449029e-13
1.205304755e-13
1.276810146e-13
1.370475385e-13
1.476342055e-13
1.730119748e-13
2.196293402e-13
5.314128295e-13
7.981878566e-13
8.356231974e-13
8.675993608e-13
8.590853554e-13
)


101
(
-4.800564817e-19
-2.050239426e-18
-2.468362512e-17
-3.114775595e-17
1.679370262e-17
-5.547200223e-18
2.288895421e-16
4.287941346e-16
6.102109185e-16
7.16559782e-16
7.806702421e-16
6.486513338e-16
5.725112193e-16
5.625508615e-16
3.69202991e-16
5.275399927e-17
-1.9818309e-16
-3.545354505e-16
-7.204752979e-16
-7.402739117e-16
-8.451934588e-16
-1.028348679e-15
-1.059467182e-15
-1.061337099e-15
-1.052334714e-15
-1.052097285e-15
-1.071467741e-15
-1.107291384e-15
-1.120681207e-15
-1.110372e-15
-1.066935772e-15
-9.972860668e-16
-9.136308971e-16
-7.950739748e-16
-6.756320375e-16
-5.510461184e-16
-4.231863074e-16
-2.701517479e-16
-8.045727978e-17
1.345628653e-16
3.640912863e-16
6.553493177e-16
9.568917886e-16
1.296336827e-15
1.72096461e-15
2.187620397e-15
2.738348558e-15
3.318668538e-15
3.960680496e-15
4.63401196e-15
5.385942152e-15
6.215330809e-15
7.144807074e-15
8.186617678e-15
9.338243471e-15
1.06035711e-14
1.190567569e-14
1.332331387e-14
1.478695434e-14
1.638488426e-14
1.812647972e-14
2.00567861e-14
2.217684002e-14
2.447196072e-14
2.69028833e-14
2.942406808e-14
3.199084968e-14
3.463144854e-14
3.735732107e-14
4.029176242e-14
4.344838093e-14
4.688283784e-14
5.069210178e-14
5.496496279e-14
5.952727083e-14
6.395378112e-14
6.821919862e-14
7.271340927e-14
7.767887258e-14
8.289792008e-14
8.79302373e-14
9.308530578e-14
9.832445095e-14
1.033464578e-13
1.086079259e-13
1.145273409e-13
1.209999166e-13
1.276717645e-13
1.347867053e-13
1.416795131e-13
1.484361846e-13
1.567964323e-13
1.679139533e-13
1.805222836e-13
2.093067313e-13
2.607192306e-13
5.867691265e-13
8.641176444e-13
9.03390676e-13
9.369968218e-13
9.283834684e-13
)


101
(
-4.001047271e-19
-1.318826407e-18
-2.04713801e-17
-1.952157684e-17
3.736510885e-17
3.043741633e-17
2.577281288e-16
4.607702843e-16
6.383918191e-16
7.415340671e-16
7.943622482e-16
6.72555532e-16
5.661778609e-16
5.336233507e-16
3.499646815e-16
4.149554162e-17
-2.331313249e-16
-3.937019998e-16
-7.645057229e-16
-8.079515045e-16
-9.165907398e-16
-1.096095061e-15
-1.138696709e-15
-1.161849606e-15
-1.169263666e-15
-1.173812313e-15
-1.190639503e-15
-1.22420608e-15
-1.239343009e-15
-1.234261037e-15
-1.195071007e-15
-1.126335757e-15
-1.048134752e-15
-9.248807705e-16
-7.987512964e-16
-6.592267979e-16
-5.107092447e-16
-3.386436995e-16
-1.330305447e-16
9.85927327e-17
3.549096522e-16
6.813526961e-16
1.032521777e-15
1.427472785e-15
1.906110842e-15
2.431502527e-15
3.045078685e-15
3.700685265e-15
4.431243873e-15
5.211199752e-15
6.079209154e-15
7.03535415e-15
8.103413811e-15
9.298550455e-15
1.062804079e-14
1.210139912e-14
1.365170338e-14
1.534833868e-14
1.711069835e-14
1.901420362e-14
2.107613937e-14
2.334587251e-14
2.583470615e-14
2.853611976e-14
3.143314954e-14
3.448490407e-14
3.762872279e-14
4.08428191e-14
4.416493196e-14
4.766581747e-14
5.144056076e-14
5.555383314e-14
6.012851489e-14
6.521918621e-14
7.065619938e-14
7.599338568e-14
8.117037666e-14
8.656300696e-14
9.258032673e-14
9.892191467e-14
1.051711828e-13
1.11439167e-13
1.180193633e-13
1.243342419e-13
1.307063912e-13
1.377247814e-13
1.455135881e-13
1.536578455e-13
1.623041247e-13
1.70887563e-13
1.791466828e-13
1.888415523e-13
2.018601635e-13
2.167309697e-13
2.490152504e-13
3.052699262e-13
6.431989272e-13
9.287096728e-13
9.683638346e-13
1.001925595e-12
9.919169827e-13
)


101
(
-3.139892902e-19
-9.892913067e-19
-1.705673848e-17
-9.043172868e-18
5.580218358e-17
6.290432491e-17
2.83336649e-16
4.883259592e-16
6.625077161e-16
7.629113331e-16
8.066739619e-16
6.939026437e-16
5.645001338e-16
5.102196032e-16
3.325563162e-16
3.338531519e-17
-2.581559886e-16
-4.269446251e-16
-8.022118464e-16
-8.675159288e-16
-9.843569399e-16
-1.162595763e-15
-1.214544428e-15
-1.256970988e-15
-1.283930315e-15
-1.299453662e-15
-1.318943493e-15
-1.353086488e-15
-1.37119798e-15
-1.372955918e-15
-1.340976046e-15
-1.276497204e-15
-1.206108447e-15
-1.08142765e-15
-9.537285194e-16
-8.062407178e-16
-6.437860561e-16
-4.56554612e-16
-2.366106148e-16
1.089048862e-17
2.890400791e-16
6.424365144e-16
1.036438042e-15
1.483615735e-15
2.016214521e-15
2.598760071e-15
3.272186762e-15
4.002185205e-15
4.820585641e-15
5.703622339e-15
6.689343173e-15
7.775484321e-15
8.98387938e-15
1.033244508e-14
1.1834583e-14
1.351069353e-14
1.53046783e-14
1.728235592e-14
1.936091126e-14
2.174202604e-14
2.399823396e-14
2.662121668e-14
2.948952667e-14
3.260661421e-14
3.59779748e-14
3.956819246e-14
4.331742383e-14
4.713399712e-14
5.112384002e-14
5.528243221e-14
5.969409445e-14
6.450815818e-14
6.984921203e-14
7.579095438e-14
8.216285688e-14
8.85396967e-14
9.470777263e-14
1.010737429e-13
1.081310824e-13
1.156617786e-13
1.231454191e-13
1.307756852e-13
1.387311928e-13
1.465290333e-13
1.541678017e-13
1.623202833e-13
1.715262587e-13
1.812942478e-13
1.916203073e-13
2.019999727e-13
2.1197928e-13
2.232541616e-13
2.38195302e-13
2.555638897e-13
2.913908826e-13
3.524038531e-13
6.992333792e-13
9.902149483e-13
1.028214452e-12
1.06318318e-12
1.05532194e-12
)


101
(
-2.233957767e-19
-1.123161651e-18
-1.386341443e-17
3.473314056e-19
7.220842219e-17
9.200638969e-17
3.058080068e-16
5.116255483e-16
6.825552675e-16
7.805370963e-16
8.171039896e-16
7.125138327e-16
5.661478194e-16
4.916745694e-16
3.170943925e-16
2.747145136e-17
-2.748338608e-16
-4.537176418e-16
-8.333242507e-16
-9.19296505e-16
-1.047445351e-15
-1.227842583e-15
-1.287689722e-15
-1.347387854e-15
-1.395328385e-15
-1.427061937e-15
-1.454742622e-15
-1.493171922e-15
-1.516167474e-15
-1.526516449e-15
-1.504683196e-15
-1.448318189e-15
-1.389295709e-15
-1.267235318e-15
-1.142787938e-15
-9.940098173e-16
-8.248491233e-16
-6.283693892e-16
-3.985332363e-16
-1.387394194e-16
1.550815131e-16
5.286945088e-16
9.566993486e-16
1.448894294e-15
2.030241754e-15
2.66766935e-15
3.399182013e-15
4.196879401e-15
5.096511271e-15
6.077803765e-15
7.175701655e-15
8.389915854e-15
9.740147601e-15
1.123989891e-14
1.290974379e-14
1.477514206e-14
1.679471785e-14
1.904698883e-14
2.144468742e-14
2.418252764e-14
2.691988434e-14
2.976373039e-14
3.301450083e-14
3.655359743e-14
4.039180947e-14
4.450775698e-14
4.886876993e-14
5.339332734e-14
5.804071055e-14
6.289014966e-14
6.798582979e-14
7.35003639e-14
7.958137968e-14
8.635477848e-14
9.370852932e-14
1.01178293e-13
1.08452417e-13
1.158326199e-13
1.239228401e-13
1.326110482e-13
1.414293317e-13
1.50531354e-13
1.598235173e-13
1.691628861e-13
1.78284427e-13
1.876843956e-13
1.982483954e-13
2.098243901e-13
2.218713587e-13
2.340900403e-13
2.460536594e-13
2.589898254e-13
2.757936807e-13
2.958109571e-13
3.352620248e-13
4.008359417e-13
7.532908207e-13
1.046873829e-12
1.080857214e-12
1.112322346e-12
1.105175572e-12
)


101
(
-1.298781759e-19
-9.344902071e-19
-1.102040847e-17
8.708377211e-18
9.939527196e-17
1.178944511e-16
3.252393807e-16
5.308340298e-16
6.986197562e-16
7.943940349e-16
8.251850935e-16
7.281555973e-16
5.698531006e-16
4.772037933e-16
3.03546263e-16
2.310567573e-17
-2.848070566e-16
-4.738424877e-16
-8.578605304e-16
-9.635790698e-16
-1.105332837e-15
-1.291031554e-15
-1.358522844e-15
-1.433788885e-15
-1.502829278e-15
-1.554552958e-15
-1.596211377e-15
-1.643687535e-15
-1.674438817e-15
-1.69522766e-15
-1.686285273e-15
-1.6422835e-15
-1.599081062e-15
-1.484680537e-15
-1.368580586e-15
-1.224923227e-15
-1.056739359e-15
-8.587146453e-16
-1.444718064e-17
2.273814939e-16
-5.5448068e-17
3.289469905e-16
7.792346721e-16
1.30662317e-15
1.931094856e-15
2.61807542e-15
3.401115206e-15
4.260141366e-15
5.229593327e-15
6.296447995e-15
7.497977335e-15
8.833689691e-15
1.031938124e-14
1.196719406e-14
1.379619219e-14
1.583489202e-14
1.806052084e-14
2.056032603e-14
2.325699699e-14
2.617306733e-14
2.944701984e-14
3.278493449e-14
3.626987016e-14
4.022344311e-14
4.45072647e-14
4.913168855e-14