/*--------------------------------*- C++ -*----------------------------------*\
| =========                 |                                                 |
| \\      /  F ield         | OpenFOAM: The Open Source CFD Toolbox           |
|  \\    /   O peration     | Version:  2.3.1                                 |
|   \\  /    A nd           | Web:      www.OpenFOAM.org                      |
|    \\/     M anipulation  |                                                 |
\*---------------------------------------------------------------------------*/
FoamFile
{
    version     2.0;
    format      ascii;
    class       dictionary;
    location    "constant";
    object      PM56;
}
// * * * * * * * * * * * * * * * * * * * * * * * * * * * * * * * * * * * * * //

PM56_table
101
(

101
(
-1.586874745e-19
-3.253310911e-11
-1.995585324e-10
-7.590599311e-10
-2.32970306e-09
-5.943637927e-09
-1.300604343e-08
-2.661481881e-08
-4.948391645e-08
-8.529833102e-08
-1.355196551e-07
-1.99413541e-07
-2.70008524e-07
-3.428542779e-07
-4.02362521e-07
-4.40473267e-07
-4.516828788e-07
-4.309146956e-07
-3.918470033e-07
-3.254247697e-07
-2.589779387e-07
-1.959428154e-07
-1.3250673e-07
-8.096375798e-08
-4.147137077e-08
-1.277323254e-08
6.655599093e-09
1.901260665e-08
2.626380479e-08
2.978876684e-08
3.087540478e-08
3.04455196e-08
2.907570616e-08
2.599422557e-08
2.275285764e-08
1.824940665e-08
-4.671801484e-09
-2.981640489e-08
-1.278293757e-08
-8.018045004e-09
-5.715107394e-09
-3.952812647e-09
-2.675631865e-09
-1.663739074e-09
-8.318496783e-10
-2.493816934e-10
2.074106338e-10
4.893798882e-10
6.944096798e-10
8.034470073e-10
8.692239252e-10
8.889859903e-10
8.835052394e-10
8.445006061e-10
7.838603879e-10
7.266002553e-10
6.549818836e-10
5.973244543e-10
5.316705015e-10
4.724898168e-10
4.12815131e-10
3.592871679e-10
3.120054133e-10
2.683765612e-10
2.25449658e-10
1.893429999e-10
1.575971049e-10
1.297522923e-10
1.05425072e-10
8.512309381e-11
6.797737915e-11
5.37305108e-11
4.180162869e-11
3.194014114e-11
1.983468034e-11
1.278461641e-11
1.050915413e-11
8.154688976e-12
6.133644611e-12
4.509812716e-12
3.235387606e-12
2.230670958e-12
1.507594701e-12
8.471036454e-13
4.952493702e-13
3.481547163e-13
2.310545332e-13
1.439731692e-13
8.587523421e-14
4.142420764e-14
2.446844579e-14
1.444363799e-14
7.610582981e-15
3.553130377e-15
1.67589533e-15
6.840344692e-16
1.130100926e-16
1.958210217e-16
3.560697243e-16
9.034864297e-16
2.287099965e-15
)


101
(
-1.588668349e-19
-2.920477324e-11
-1.872253917e-10
-7.205440627e-10
-2.220182833e-09
-5.65992836e-09
-1.23422947e-08
-2.516070275e-08
-4.656157259e-08
-7.979173018e-08
-1.258502845e-07
-1.835116117e-07
-2.455945043e-07
-3.072742065e-07
-3.537636411e-07
-3.772827861e-07
-3.73290239e-07
-3.382912064e-07
-2.852260497e-07
-2.093035648e-07
-1.342004651e-07
-6.570834353e-08
-1.903282067e-09
4.774921574e-08
8.288088243e-08
1.051362681e-07
1.166347438e-07
1.201142931e-07
1.179962201e-07
1.12173379e-07
1.042259397e-07
9.536010943e-08
8.632548989e-08
7.633542155e-08
6.676752103e-08
5.734684916e-08
3.654559536e-08
1.240560629e-08
1.810794146e-08
1.897349291e-08
1.781964391e-08
1.624851772e-08
1.46116095e-08
1.309344769e-08
1.173046645e-08
1.044544821e-08
9.303750093e-09
8.224305154e-09
7.260115384e-09
6.372936502e-09
5.584404094e-09
4.875894271e-09
4.250614319e-09
3.694529285e-09
3.194007429e-09
2.754356471e-09
2.356895493e-09
2.019787594e-09
1.72093503e-09
1.463073544e-09
1.237807552e-09
1.043610575e-09
8.76762587e-10
7.336132547e-10
6.093514504e-10
5.040815461e-10
4.143924843e-10
3.383642559e-10
2.744054826e-10
2.208741963e-10
1.764757356e-10
1.39702381e-10
1.097507898e-10
8.527689991e-11
6.308974045e-11
4.672254478e-11
3.577673445e-11
2.70384388e-11
2.016388682e-11
1.480089412e-11
1.06885907e-11
7.557360286e-12
5.250068563e-12
3.484298239e-12
2.28506596e-12
1.507010847e-12
9.873260261e-13
6.335101449e-13
3.921953137e-13
2.32820566e-13
1.371932659e-13
7.841356254e-14
4.521555158e-14
2.446363294e-14
1.321748433e-14
6.557970226e-15
1.864326148e-15
4.00162592e-15
8.221064789e-15
2.001290888e-14
4.186126683e-14
)


101
(
-1.590065289e-19
-2.289197606e-11
-1.636627122e-10
-6.470526962e-10
-2.011990474e-09
-5.123108554e-09
-1.109393268e-08
-2.244340854e-08
-4.114373202e-08
-6.966859564e-08
-1.082255784e-07
-1.547586659e-07
-2.017886649e-07
-2.437938035e-07
-2.67446766e-07
-2.653369267e-07
-2.343743624e-07
-1.736882735e-07
-9.516615308e-08
-4.3033351e-10
9.16435892e-08
1.721869327e-07
2.397038355e-07
2.882617492e-07
3.175490346e-07
3.299554604e-07
3.284699211e-07
3.16700015e-07
2.98062639e-07
2.752893267e-07
2.506315429e-07
2.259337896e-07
2.022112301e-07
1.79316515e-07
1.575192166e-07
1.363876076e-07
1.158471416e-07
9.163902356e-08
7.982834762e-08
7.238901548e-08
6.460648881e-08
5.687977485e-08
4.976591755e-08
4.337520867e-08
3.775216731e-08
3.284713656e-08
2.85689567e-08
2.482297973e-08
2.153346444e-08
1.865490067e-08
1.613082247e-08
1.39289015e-08
1.201579015e-08
1.035817407e-08
8.913474016e-09
7.659173388e-09
6.555824615e-09
5.60135819e-09
4.777570295e-09
4.064052409e-09
3.450725551e-09
2.922609955e-09
2.467844997e-09
2.078099308e-09
1.744161525e-09
1.457738731e-09
1.213426926e-09
1.004467876e-09
8.285597846e-10
6.796844397e-10
5.542471027e-10
4.486585501e-10
3.611260932e-10
2.885005799e-10
2.280134473e-10
1.783950529e-10
1.385028039e-10
1.066320826e-10
8.139015125e-11
6.152998523e-11
4.601301298e-11
3.389581272e-11
2.460414237e-11
1.753719699e-11
1.225854213e-11
8.399396583e-12
5.658856315e-12
3.796703063e-12
2.494794355e-12
1.586080429e-12
9.834292062e-13
5.983674871e-13
3.658162621e-13
2.152975024e-13
1.2533081e-13
6.763678709e-14
2.162355652e-14
5.716702429e-14
1.273888504e-13
3.24591896e-13
7.958540435e-13
)


101
(
-1.591112743e-19
-1.723744889e-11
-1.4219797e-10
-5.80277425e-10
-1.82437068e-09
-4.644304044e-09
-9.995266672e-09
-2.008679343e-08
-3.652968928e-08
-6.121829642e-08
-9.381603087e-08
-1.317264803e-07
-1.673790016e-07
-1.947222457e-07
-2.015369633e-07
-1.804751223e-07
-1.291149887e-07
-4.813515e-08
5.141267934e-08
1.639876565e-07
2.729663033e-07
3.67929822e-07
4.446162209e-07
4.979544155e-07
5.277450603e-07
5.366929449e-07
5.282746322e-07
5.067209918e-07
4.76295893e-07
4.4043755e-07
4.019385508e-07
3.635641601e-07
3.265487314e-07
2.918859983e-07
2.591446042e-07
2.285067705e-07
1.988651737e-07
1.701253709e-07
1.47972366e-07
1.313332157e-07
1.168244895e-07
1.033470567e-07
9.098941393e-08
7.97945459e-08
6.982927288e-08
6.11087381e-08
5.346373909e-08
4.678755411e-08
4.090521926e-08
3.575833305e-08
3.121769589e-08
2.722677585e-08
2.372843871e-08
2.06738763e-08
1.799849977e-08
1.56501e-08
1.359604395e-08
1.1787499e-08
1.020930026e-08
8.817426094e-09
7.605218132e-09
6.551180947e-09
5.630827224e-09
4.831049965e-09
4.1350516e-09
3.52485023e-09
2.995102968e-09
2.535439708e-09
2.139069628e-09
1.798321861e-09
1.502436515e-09
1.248559089e-09
1.031736302e-09
8.479323857e-10
6.917607252e-10
5.596810507e-10
4.484122822e-10
3.564871051e-10
2.808926897e-10
2.19404455e-10
1.699508948e-10
1.30040877e-10
9.830099206e-11
7.327464413e-11
5.371371193e-11
3.865906796e-11
2.726894317e-11
1.899375147e-11
1.314423514e-11
8.876829264e-12
5.818423129e-12
3.720829101e-12
2.341459106e-12
1.468292193e-12
9.076738123e-13
5.220127875e-13
2.038184992e-13
5.837493485e-13
1.292580673e-12
3.160555327e-12
6.103444007e-12
)


101
(
-1.591853607e-19
-1.219198375e-11
-1.226546143e-10
-5.195675775e-10
-1.655107566e-09
-4.216608258e-09
-9.026314676e-09
-1.803717616e-08
-3.258749719e-08
-5.414402033e-08
-8.201352101e-08
-1.13276438e-07
-1.404128302e-07
-1.569680315e-07
-1.515284308e-07
-1.165637977e-07
-4.97111576e-08
4.766971914e-08
1.65427785e-07
2.956150278e-07
4.226183245e-07
5.35042426e-07
6.264579734e-07
6.910221627e-07
7.281734596e-07
7.404407427e-07
7.314153927e-07
7.057471717e-07
6.683450916e-07
6.23293754e-07
5.740839861e-07
5.23642301e-07
4.74227927e-07
4.281442091e-07
3.844676927e-07
3.451508743e-07
3.04242863e-07
2.672033428e-07
2.356973488e-07
2.094687611e-07
1.870867764e-07
1.669354337e-07
1.486082881e-07
1.319124083e-07
1.167757903e-07
1.03291014e-07
9.133708413e-08
8.0841441e-08
7.155958869e-08
6.33526921e-08
5.60379542e-08
4.95156453e-08
4.37190989e-08
3.860255574e-08
3.408271318e-08
3.005283966e-08
2.649246937e-08
2.332084493e-08
2.052629351e-08
1.801875617e-08
1.578382253e-08
1.382267042e-08
1.207802513e-08
1.054187041e-08
9.18972232e-09
7.985736106e-09
6.917698821e-09
5.973442599e-09
5.137565889e-09
4.413200105e-09
3.770052617e-09
3.205379506e-09
2.710076574e-09
2.280722769e-09
1.90828847e-09
1.586329358e-09
1.309074477e-09
1.071963495e-09
8.692777873e-10
6.993175405e-10
5.581124489e-10
4.420879264e-10
3.458699619e-10
2.677121936e-10
2.042867509e-10
1.536382943e-10
1.132567741e-10
8.220971108e-11
5.901065327e-11
4.193071541e-11
2.895311245e-11
1.957629063e-11
1.300041548e-11
8.455944499e-12
5.509504981e-12
3.3595778e-12
1.530451391e-12
4.034783803e-12
8.861239757e-12
2.46835056e-11
5.069331792e-11
)


101
(
-1.592327585e-19
-7.71033465e-12
-1.048729599e-10
-4.643411175e-10
-1.502243987e-09
-3.83402211e-09
-8.170030766e-09
-1.624953579e-08
-2.920805075e-08
-4.820370426e-08
-7.232937099e-08
-9.850296702e-08
-1.193663922e-07
-1.281463382e-07
-1.14006572e-07
-6.906306432e-08
9.513718822e-09
1.203212644e-07
2.542590802e-07
4.021307977e-07
5.487312515e-07
6.818364641e-07
7.933280872e-07
8.757345675e-07
9.27307233e-07
9.501066718e-07
9.47392218e-07
9.237713854e-07
8.846337947e-07
8.346612263e-07
7.781683045e-07
7.180615468e-07
6.574798897e-07
6.002342799e-07
5.452642269e-07
4.940350701e-07
4.439796345e-07
3.967603781e-07
3.546003019e-07
3.181187282e-07
2.864134908e-07
2.579923292e-07
2.32286831e-07
2.088140059e-07
1.872361933e-07
1.676370227e-07
1.499698787e-07
1.343298889e-07
1.204251167e-07
1.079833605e-07
9.680006505e-08
8.666851381e-08
7.752275294e-08
6.932593256e-08
6.203519421e-08
5.545780627e-08
4.953657398e-08
4.420896678e-08
3.944265467e-08
3.513146383e-08
3.124331419e-08
2.777058394e-08
2.46387434e-08
2.182254556e-08
1.931359363e-08
1.706351938e-08
1.503324238e-08
1.320632597e-08
1.155911222e-08
1.009507912e-08
8.790716335e-09
7.626429802e-09
6.584931338e-09
5.658770474e-09
4.83792841e-09
4.113807239e-09
3.480888585e-09
2.924213726e-09
2.435663288e-09
2.013114009e-09
1.650909943e-09
1.346404328e-09
1.086664415e-09
8.685476709e-10
6.870158553e-10
5.364543752e-10
4.121086199e-10
3.114024685e-10
2.324755938e-10
1.722629496e-10
1.24745316e-10
8.828076017e-11
6.186943121e-11
4.238991731e-11
2.899309479e-11
1.82933435e-11
9.23183309e-12
2.691569419e-11
5.928232222e-11
1.558356816e-10
2.900952745e-10
)


101
(
-1.592570033e-19
-3.75070448e-12
-8.870836751e-11
-4.140763826e-10
-1.364042451e-09
-3.491270515e-09
-7.411584232e-09
-1.46853868e-08
-2.630072534e-08
-4.320031571e-08
-6.437128382e-08
-8.669640362e-08
-1.030586423e-07
-1.064575849e-07
-8.644793463e-08
-3.469484688e-08
5.247583354e-08
1.741788812e-07
3.225884072e-07
4.881245013e-07
6.55827861e-07
8.12668116e-07
9.491633548e-07
1.055887907e-06
1.129075859e-06
1.169941244e-06
1.181130064e-06
1.166670032e-06
1.132038358e-06
1.082365724e-06
1.022611077e-06
9.564425958e-07
8.869389361e-07
8.195424479e-07
7.538760139e-07
6.912289508e-07
6.304757935e-07
5.721381675e-07
5.183071952e-07
4.701165879e-07
4.273361208e-07
3.886087811e-07
3.5363888e-07
3.216525867e-07
2.920175701e-07
2.647263722e-07
2.396395412e-07
2.170427128e-07
1.96779236e-07
1.78508385e-07
1.619712946e-07
1.467918356e-07
1.329363488e-07
1.203344617e-07
1.089541069e-07
9.86034801e-08
8.920252535e-08
8.060382037e-08
7.279359848e-08
6.564428718e-08
5.912943235e-08
5.322655121e-08
4.785283453e-08
4.296296613e-08
3.852810127e-08
3.451455835e-08
3.084669256e-08
2.751806206e-08
2.447344049e-08
2.170493605e-08
1.921275549e-08
1.695083966e-08
1.490199781e-08
1.304408601e-08
1.136915411e-08
9.859271527e-09
8.517030541e-09
7.318034886e-09
6.248269188e-09
5.295365395e-09
4.452178613e-09
3.720504687e-09
3.089148342e-09
2.539722052e-09
2.072071479e-09
1.673098578e-09
1.333203635e-09
1.046126687e-09
8.120712009e-10
6.241331073e-10
4.734319356e-10
3.499376708e-10
2.566767729e-10
1.853188848e-10
1.320428004e-10
8.90069184e-11
4.997783286e-11
1.451308386e-10
3.122500728e-10
7.822157547e-10
1.410905209e-09
)


101
(
-1.592613706e-19
-2.745079485e-13
-7.402989444e-11
-3.68305983e-10
-1.238964039e-09
-3.183742541e-09
-6.738126406e-09
-1.331151547e-08
-2.378923619e-08
-3.896985418e-08
-5.781538819e-08
-7.72720992e-08
-9.052299293e-08
-9.043555048e-08
-6.682027609e-08
-1.084492844e-08
8.223766402e-08
2.125370764e-07
3.737724876e-07
5.566854125e-07
7.466915311e-07
9.299672061e-07
1.09577073e-06
1.232959502e-06
1.335015831e-06
1.401758746e-06
1.435072646e-06
1.437997508e-06
1.415489378e-06
1.372764885e-06
1.315350259e-06
1.247706524e-06
1.172956936e-06
1.097696358e-06
1.02259759e-06
9.493681999e-07
8.775259908e-07
8.074109289e-07
7.41228583e-07
6.800959495e-07
6.245491169e-07
5.73663961e-07
5.272861666e-07
4.845988276e-07
4.448652129e-07
4.080129538e-07
3.736450533e-07
3.420825168e-07
3.134424558e-07
2.873571671e-07
2.634145179e-07
2.413430233e-07
2.210428406e-07
2.022323095e-07
1.850539378e-07
1.693605844e-07
1.54920173e-07
1.415434248e-07
1.292842006e-07
1.179280751e-07
1.074406566e-07
9.782154027e-08
8.892095983e-08
8.078110298e-08
7.330974797e-08
6.649340143e-08
6.022544059e-08
5.444779314e-08
4.910174825e-08
4.41318272e-08
3.960081599e-08
3.543341975e-08
3.165472733e-08
2.818242506e-08
2.498269224e-08
2.205072273e-08
1.939118062e-08
1.698172527e-08
1.480160882e-08
1.281809948e-08
1.103063392e-08
9.426632023e-09
8.022998204e-09
6.76774759e-09
5.673159208e-09
4.709318427e-09
3.878977414e-09
3.148267758e-09
2.531814198e-09
2.015550195e-09
1.586624903e-09
1.223259569e-09
9.375160482e-10
7.100290913e-10
5.291038633e-10
3.81533956e-10
2.345349112e-10
6.420158546e-10
1.328616166e-09
3.133624751e-09
5.786504925e-09
)


101
(
-1.592487987e-19
2.753952612e-12
-6.07187752e-11
-3.266104671e-10
-1.125644826e-09
-2.907475067e-09
-6.138987648e-09
-1.210069397e-08
-2.161072726e-08
-3.537844e-08
-5.240096304e-08
-6.976126017e-08
-8.099348122e-08
-7.891957143e-08
-5.353288899e-08
4.515341477e-09
1.011699145e-07
2.378892161e-07
4.102200954e-07
6.098501106e-07
8.229108467e-07
1.034900911e-06
1.23368802e-06
1.407148977e-06
1.545524681e-06
1.646508251e-06
1.710837487e-06
1.74026759e-06
1.738698072e-06
1.710922834e-06
1.662768667e-06
1.599571423e-06
1.52479912e-06
1.445684487e-06
1.363503169e-06
1.281266615e-06
1.199294656e-06
1.117951469e-06
1.039665706e-06
9.651969914e-07
8.95590235e-07
8.306239979e-07
7.707213274e-07
7.150932035e-07
6.630636281e-07
6.145806656e-07
5.689469783e-07
5.264832276e-07
4.872155719e-07
4.50943518e-07
4.173213187e-07
3.862745334e-07
3.574073841e-07
3.303339461e-07
3.052581341e-07
2.820017462e-07
2.605329146e-07
2.403153224e-07
2.217191776e-07
2.043979255e-07
1.881623908e-07
1.731338436e-07
1.590349905e-07
1.459858988e-07
1.33888633e-07
1.227117126e-07
1.12400894e-07
1.027649306e-07
9.378187815e-08
8.53626448e-08
7.756090982e-08
7.031643508e-08
6.361733461e-08
5.742836954e-08
5.167751181e-08
4.634434091e-08
4.139171652e-08
3.684013993e-08
3.268906402e-08
2.884313983e-08
2.530094707e-08
2.208360898e-08
1.918465672e-08
1.657673564e-08
1.421519582e-08
1.209234631e-08
1.024119187e-08
8.565864529e-09
7.102531228e-09
5.837791797e-09
4.746209697e-09
3.807309109e-09
3.029765813e-09
2.390947727e-09
1.856184267e-09
1.403665062e-09
9.528858097e-10
2.394479905e-09
4.715520801e-09
1.024099705e-08
1.92584233e-08
)


101
(
-1.592220451e-19
5.367799477e-12
-4.866746494e-11
-2.886141257e-10
-1.022865081e-09
-2.658991129e-09
-5.605223908e-09
-1.103092227e-08
-1.971281266e-08
-3.231418552e-08
-4.791420521e-08
-6.378991365e-08
-7.386831608e-08
-7.100880067e-08
-4.535615926e-08
1.293692139e-08
1.11053833e-07
2.520593577e-07
4.335696833e-07
6.487647317e-07
8.85004581e-07
1.127510907e-06
1.362681697e-06
1.577715769e-06
1.759950141e-06
1.90413037e-06
2.009063317e-06
2.07490073e-06
2.104142999e-06
2.100754081e-06
2.070292308e-06
2.018659199e-06
1.950171915e-06
1.873132385e-06
1.788239498e-06
1.700281e-06
1.610978775e-06
1.520699857e-06
1.431560247e-06
1.344340437e-06
1.260388423e-06
1.179966094e-06
1.105036175e-06
1.034762797e-06
9.686078313e-07
9.06674935e-07
8.477785228e-07
7.922099279e-07
7.397577933e-07
6.907751571e-07
6.450875859e-07
6.026816994e-07
5.629232268e-07
5.253886893e-07
4.896789866e-07
4.563043702e-07
4.254346452e-07
3.960448531e-07
3.687152173e-07
3.431285875e-07
3.188568067e-07
2.96075899e-07
2.746696792e-07
2.545276261e-07
2.355841711e-07
2.177974865e-07
2.014104681e-07
1.859974895e-07
1.715885365e-07
1.579572549e-07
1.451178112e-07
1.330449726e-07
1.21758157e-07
1.112322424e-07
1.013950231e-07
9.212766093e-08
8.341783785e-08
7.532175043e-08
6.781939524e-08
6.081350654e-08
5.424463928e-08
4.820504278e-08
4.262705938e-08
3.756849613e-08
3.288639406e-08
2.856328461e-08
2.472253064e-08
2.121455817e-08
1.805125401e-08
1.527160416e-08
1.276812967e-08
1.058361741e-08
8.705676561e-09
7.113466924e-09
5.739971916e-09
4.516399057e-09
3.284620185e-09
7.653095726e-09
1.434996135e-08
2.839256048e-08
4.700807793e-08
)


101
(
-1.591616796e-19
7.597845133e-12
-3.777824445e-11
-2.53980017e-10
-9.295389354e-10
-2.435217335e-09
-5.129077299e-09
-1.008365489e-08
-1.805187213e-08
-2.968360021e-08
-4.41782203e-08
-5.905008558e-08
-6.865589598e-08
-6.596996764e-08
-4.128967848e-08
1.568104652e-08
1.133178966e-07
2.56462229e-07
4.45020817e-07
6.741272586e-07
9.329195013e-07
1.207033625e-06
1.481737091e-06
1.742939648e-06
1.97635562e-06
2.172932669e-06
2.328477165e-06
2.441345734e-06
2.512499315e-06
2.544673606e-06
2.542491043e-06
2.511662056e-06
2.457364709e-06
2.390312571e-06
2.309773793e-06
2.22164755e-06
2.129326963e-06
2.03364073e-06
1.936254439e-06
1.838344868e-06
1.741618031e-06
1.646379342e-06
1.556068349e-06
1.470460355e-06
1.389137616e-06
1.312417573e-06
1.238485637e-06
1.167570162e-06
1.099656675e-06
1.035605673e-06
9.751902481e-07
9.185683882e-07
8.653007948e-07
8.145622765e-07
7.655008192e-07
7.197860563e-07
6.764402158e-07
6.351675364e-07
5.960138472e-07
5.593638671e-07
5.243919314e-07
4.910410419e-07
4.594456745e-07
4.293341706e-07
4.008480429e-07
3.73757841e-07
3.483315241e-07
3.245481215e-07
3.021802125e-07
2.808729208e-07
2.606193638e-07
2.41322305e-07
2.231173017e-07
2.059365908e-07
1.897342924e-07
1.743239234e-07
1.597659809e-07
1.461016705e-07
1.331283339e-07
1.209846603e-07
1.095321587e-07
9.877246127e-08
8.872616756e-08
7.946123171e-08
7.078115867e-08
6.258894692e-08
5.514272362e-08
4.83511134e-08
4.208470523e-08
3.640322479e-08
3.11914568e-08
2.656978637e-08
2.246319145e-08
1.889024006e-08
1.575582443e-08
1.287828404e-08
9.972899513e-09
2.11277462e-08
3.769117795e-08
6.941200251e-08
1.106297412e-07
)


101
(
-1.590366056e-19
9.472795098e-12
-2.796232308e-11
-2.22405481e-10
-8.447023373e-10
-2.233458727e-09
-4.703839398e-09
-9.243043792e-09
-1.659199095e-08
-2.74118709e-08
-4.105126405e-08
-5.528966318e-08
-6.494926574e-08
-6.319213622e-08
-4.049308984e-08
1.381659462e-08
1.092123484e-07
2.523534513e-07
4.456634223e-07
6.866016571e-07
9.664424972e-07
1.272093299e-06
1.588257783e-06
1.899028924e-06
2.189354478e-06
2.446601238e-06
2.663120309e-06
2.834861199e-06
2.960878393e-06
3.042011214e-06
3.081416948e-06
3.084078648e-06
3.055393321e-06
3.008655126e-06
2.942031146e-06
2.861889308e-06
2.772870501e-06
2.676738703e-06
2.575593503e-06
2.471631709e-06
2.36595286e-06
2.258687383e-06
2.154260337e-06
2.053763174e-06
1.956982866e-06
1.864753232e-06
1.775088875e-06
1.687950027e-06
1.603193334e-06
1.522233249e-06
1.444683968e-06
1.371132113e-06
1.301571214e-06
1.234879246e-06
1.170353139e-06
1.109100317e-06
1.050280999e-06
9.935701544e-07
9.393059013e-07
8.880874114e-07
8.391930628e-07
7.920777009e-07
7.469411542e-07
7.034454077e-07
6.617896039e-07
6.222670972e-07
5.842860654e-07
5.48471528e-07
5.146992036e-07
4.823305049e-07
4.514983756e-07
4.219125422e-07
3.934606557e-07
3.663465409e-07
3.405770584e-07
3.160611522e-07
2.926640525e-07
2.703878449e-07
2.491541288e-07
2.289555768e-07
2.097340593e-07
1.914878082e-07
1.742841196e-07
1.580937005e-07
1.429189414e-07
1.284246282e-07
1.148064187e-07
1.023479704e-07
9.073840631e-08
7.993339408e-08
6.991189545e-08
6.089519662e-08
5.269149132e-08
4.533044441e-08
3.881925918e-08
3.275725541e-08
2.670524364e-08
5.209299536e-08
8.860190459e-08
1.528158179e-07
2.328238791e-07
)


101
(
-1.589259047e-19
1.101947586e-11
-1.913903436e-11
-1.936189275e-10
-7.674928867e-10
-2.051319625e-09
-4.323724132e-09
-8.495850243e-09
-1.530252294e-08
-2.543586718e-08
-3.841891572e-08
-5.23037817e-08
-6.241612373e-08
-6.218396137e-08
-4.229542384e-08
8.20071012e-09
9.980977517e-08
2.409353166e-07
4.365970767e-07
6.868818473e-07
9.852212206e-07
1.320715991e-06
1.678321034e-06
2.040822358e-06
2.392315881e-06
2.717269022e-06
3.005029042e-06
3.248441159e-06
3.44401458e-06
3.589720227e-06
3.686620695e-06
3.738777969e-06
3.751261911e-06
3.738622157e-06
3.698216881e-06
3.636918251e-06
3.560286701e-06
3.47137838e-06
3.373608078e-06
3.270988372e-06
3.16306188e-06
3.049227928e-06
2.934555875e-06
2.82144305e-06
2.710258622e-06
2.602985146e-06
2.498240743e-06
2.395621939e-06
2.294326588e-06
2.196305352e-06
2.100065646e-06
2.007372378e-06
1.919522893e-06
1.834704484e-06
1.752233081e-06
1.671809992e-06
1.595296158e-06
1.519882593e-06
1.447546315e-06
1.377868941e-06
1.31149357e-06
1.246737189e-06
1.184068086e-06
1.123333842e-06
1.064705666e-06
1.008342793e-06
9.5362793e-07
9.013706513e-07
8.513221999e-07
8.036467618e-07
7.579326944e-07
7.140286043e-07
6.711308049e-07
6.297303467e-07
5.899500759e-07
5.518620289e-07
5.154291638e-07
4.805812703e-07
4.46907252e-07
4.146211263e-07
3.8347921e-07
3.537991945e-07
3.253823908e-07
2.982641861e-07
2.728159472e-07
2.484385107e-07
2.248799614e-07
2.030288557e-07
1.825763957e-07
1.633945708e-07
1.452416975e-07
1.287081756e-07
1.134107101e-07
9.948724683e-08
8.690739593e-08
7.521369632e-08
6.373710053e-08
1.159373026e-07
1.890001042e-07
3.081625293e-07
4.574321739e-07
)


101
(
-1.588645255e-19
1.226303943e-11
-1.123467041e-11
-1.673762063e-10
-6.971386801e-10
-1.886652936e-09
-3.983588376e-09
-7.830790915e-09
-1.415844628e-08
-2.370297967e-08
-3.618679874e-08
-4.992447837e-08
-6.078099637e-08
-6.253466461e-08
-4.612976855e-08
-4.426966309e-10
8.600737432e-08
2.232614577e-07
4.188012604e-07
6.757320197e-07
9.892640565e-07
1.351546407e-06
1.748763068e-06
2.16383537e-06
2.580135607e-06
2.979237296e-06
3.34764265e-06
3.674799439e-06
3.954408056e-06
4.181331008e-06
4.353922451e-06
4.474238964e-06
4.546171961e-06
4.585012786e-06
4.586806847e-06
4.559013307e-06
4.507989694e-06
4.438304463e-06
4.355275514e-06
4.264181754e-06
4.164033234e-06
4.053038851e-06
3.93624019e-06
3.816276463e-06
3.694577677e-06
3.575111262e-06
3.457511954e-06
3.341430295e-06
3.225811144e-06
3.112084774e-06
2.997654905e-06
2.885524067e-06
2.778806483e-06
2.674640546e-06
2.572671722e-06
2.472125278e-06
2.375641529e-06
2.279839738e-06
2.185819613e-06
2.094244206e-06
2.006740763e-06
1.920670368e-06
1.835732171e-06
1.753461896e-06
1.673905826e-06
1.59539452e-06
1.519250558e-06
1.444753718e-06
1.373293716e-06
1.304688295e-06
1.238283559e-06
1.174491628e-06
1.111935969e-06
1.05085254e-06
9.912612657e-07
9.33316672e-07
8.780765474e-07
8.247614251e-07
7.729284343e-07
7.229689657e-07
6.739897446e-07
6.269150587e-07
5.816408495e-07
5.379446871e-07
4.96135559e-07
4.563535991e-07
4.177925998e-07
3.808854621e-07
3.463378795e-07
3.139142537e-07
2.825149513e-07
2.538302892e-07
2.265508041e-07
2.017846657e-07
1.790487881e-07
1.580141406e-07
1.373923731e-07
2.351968884e-07
3.695066282e-07
5.786154493e-07
8.742734051e-07
)


101
(
-1.587990482e-19
1.322713779e-11
-4.181898532e-12
-1.434583008e-10
-6.329505664e-10
-1.737548963e-09
-3.678814541e-09
-7.238047537e-09
-1.313988551e-08
-2.217141197e-08
-3.427255544e-08
-4.801673854e-08
-5.981525022e-08
-6.387922977e-08
-5.146513615e-08
-1.141899361e-08
6.857108415e-08
2.00074771e-07
3.927822704e-07
6.529308726e-07
9.778474637e-07
1.363226941e-06
1.79749742e-06
2.264416927e-06
2.747666218e-06
3.226456616e-06
3.683906429e-06
4.105649643e-06
4.482616448e-06
4.807311303e-06
5.075683156e-06
5.285907128e-06
5.43807556e-06
5.549077528e-06
5.613099548e-06
5.638122312e-06
5.630884572e-06
5.597216368e-06
5.544738423e-06
5.479370173e-06
5.401506939e-06
5.30695003e-06
5.200599867e-06
5.084804525e-06
4.961850971e-06
4.837281546e-06
4.711893226e-06
4.587386734e-06
4.46170107e-06
4.335533292e-06
4.207358202e-06
4.079169753e-06
3.954521833e-06
3.832113587e-06
3.711678802e-06
3.591979269e-06
3.474808249e-06
3.358214277e-06
3.240679446e-06
3.124705587e-06
3.011571557e-06
2.901147235e-06
2.790476559e-06
2.683067505e-06
2.577682774e-06
2.472206973e-06
2.36879756e-06
2.266460079e-06
2.167901911e-06
2.071166357e-06
1.97686168e-06
1.885964316e-06
1.796555634e-06
1.709206777e-06
1.622875404e-06
1.53699073e-06
1.454200293e-06
1.373665057e-06
1.296341753e-06
1.220409268e-06
1.14555564e-06
1.07283171e-06
1.001987202e-06
9.336704308e-07
8.674654726e-07
8.035086651e-07
7.419293037e-07
6.820517851e-07
6.250884122e-07
5.718341515e-07
5.195004988e-07
4.714338327e-07
4.252476434e-07
3.828058783e-07
3.438504377e-07
3.076302655e-07
2.721670352e-07
4.445947592e-07
6.783133303e-07
1.03297768e-06
1.452241322e-06
)


101
(
-1.587311079e-19
1.393406452e-11
2.080849289e-12
-1.216685585e-10
-5.743121974e-10
-1.602301706e-09
-3.405305395e-09
-6.709143253e-09
-1.223038675e-08
-2.080728787e-08
-3.260634485e-08
-4.647312538e-08
-5.933697552e-08
-6.591266329e-08
-5.784098804e-08
-2.408814452e-08
4.821187113e-08
1.719881568e-07
3.588922135e-07
6.178163579e-07
9.498220708e-07
1.35402208e-06
1.822383195e-06
2.338982451e-06
2.889343806e-06
3.451811263e-06
4.005243911e-06
4.531354366e-06
5.018600862e-06
5.457398718e-06
5.841374449e-06
6.164539634e-06
6.421235728e-06
6.628768429e-06
6.779434922e-06
6.881791751e-06
6.942131217e-06
6.966480216e-06
6.964995052e-06
6.94519421e-06
6.907821349e-06
6.847751863e-06
6.770483234e-06
6.676150191e-06
6.56685014e-06
6.450001361e-06
6.328249254e-06
6.206082156e-06
6.078361733e-06
5.947838936e-06
5.814833979e-06
5.678602926e-06
5.540825303e-06
5.405362099e-06
5.26984778e-06
5.132396841e-06
4.997898145e-06
4.862848982e-06
4.723717396e-06
4.582690577e-06
4.442788012e-06
4.305740554e-06
4.168597644e-06
4.033928821e-06
3.897197741e-06
3.762658424e-06
3.626692859e-06
3.490644286e-06
3.357079068e-06
3.224312463e-06
3.094728553e-06
2.967688708e-06
2.842712788e-06
2.720185922e-06
2.598376859e-06
2.47543669e-06
2.352578199e-06
2.234309122e-06
2.119231352e-06
2.006119996e-06
1.895145216e-06
1.785180538e-06
1.675624296e-06
1.570577328e-06
1.468047675e-06
1.367899162e-06
1.2704344e-06
1.176068094e-06
1.083953418e-06
9.978297017e-07
9.135013643e-07
8.342461857e-07
7.590659858e-07
6.883633884e-07
6.236498494e-07
5.636639176e-07
5.057299423e-07
7.976180554e-07
1.191057063e-06
1.78920985e-06
2.497869033e-06
)


101
(
-1.586617094e-19
1.440501671e-11
7.603764657e-12
-1.018298544e-10
-5.206713517e-10
-1.479373211e-09
-3.159390913e-09
-6.236630015e-09
-1.141695726e-08
-1.958453251e-08
-3.113290752e-08
-4.520187873e-08
-5.919811865e-08
-6.839324304e-08
-6.489642906e-08
-3.79264809e-08
2.561226467e-08
1.397900011e-07
3.180491251e-07
5.709795755e-07
9.054239792e-07
1.323341733e-06
1.821351415e-06
2.383716695e-06
2.998555673e-06
3.645636774e-06
4.30001053e-06
4.939445862e-06
5.550052566e-06
6.119580735e-06
6.637836238e-06
7.095802653e-06
7.483677487e-06
7.815711551e-06
8.082054052e-06
8.292033435e-06
8.450400497e-06
8.561243225e-06
8.636058653e-06
8.685716084e-06
8.712037066e-06
8.711178543e-06
8.687504033e-06
8.638620194e-06
8.565363804e-06
8.477100028e-06
8.378262969e-06
8.275177232e-06
8.162008896e-06
8.04301156e-06
7.918925691e-06
7.78864862e-06
7.650861127e-06
7.512709816e-06
7.371985449e-06
7.224414137e-06
7.079917648e-06
6.93203183e-06
6.778566074e-06
6.617720754e-06
6.454976721e-06
6.29199654e-06
6.130621408e-06
5.968563054e-06
5.800201736e-06
5.635235155e-06
5.463001232e-06
5.288478007e-06
5.113134202e-06
4.939437545e-06
4.766473629e-06
4.592875808e-06
4.422063292e-06
4.252653808e-06
4.083038788e-06
3.912301757e-06
3.739296271e-06
3.566766646e-06
3.397100726e-06
3.231682092e-06
3.069853972e-06
2.905299282e-06
2.740969007e-06
2.580456872e-06
2.423279165e-06
2.2691826e-06
2.116280809e-06
1.96927023e-06
1.823407928e-06
1.685822378e-06
1.553172883e-06
1.42433268e-06
1.303459722e-06
1.188948031e-06
1.082800037e-06
9.859284826e-07
8.936284756e-07
1.378702058e-06
2.033425661e-06
3.055470473e-06
4.393637006e-06
)


101
(
-1.585920042e-19
1.466013594e-11
1.244493356e-11
-8.378374273e-11
-4.715377281e-10
-1.367398734e-09
-2.937802178e-09
-5.813835449e-09
-1.068962472e-08
-1.848635155e-08
-2.980851565e-08
-4.412272894e-08
-5.926997605e-08
-7.113245966e-08
-7.238985275e-08
-5.264343848e-08
1.170701938e-09
1.040448301e-07
2.711757965e-07
5.144393388e-07
8.465076023e-07
1.27230846e-06
1.792992062e-06
2.395335474e-06
3.069274689e-06
3.798352585e-06
4.555980164e-06
5.315881764e-06
6.061635733e-06
6.777512841e-06
7.44810357e-06
8.062056215e-06
8.608303941e-06
9.095454295e-06
9.509938258e-06
9.861690056e-06
1.015376253e-05
1.038646465e-05
1.057058447e-05
1.072067077e-05
1.084128865e-05
1.092959477e-05
1.099015305e-05
1.101929144e-05
1.10149462e-05
1.098615056e-05
1.093735065e-05
1.087825233e-05
1.080836105e-05
1.07273989e-05
1.063524438e-05
1.053267023e-05
1.041699725e-05
1.029481025e-05
1.016769427e-05
1.003177493e-05
9.893628521e-06
9.74581081e-06
9.593793645e-06
9.429937095e-06
9.251374266e-06
9.072545637e-06
8.892721848e-06
8.707720139e-06
8.514876452e-06
8.319481707e-06
8.113348338e-06
7.900590873e-06
7.682215837e-06
7.464036974e-06
7.23782384e-06
7.011087071e-06
6.785045031e-06
6.556487657e-06
6.326111655e-06
6.094789807e-06
5.856320405e-06
5.610699044e-06
5.368048704e-06
5.129147671e-06
4.892936211e-06
4.652027575e-06
4.410378497e-06
4.169321725e-06
3.927954587e-06
3.695678175e-06
3.459864557e-06
3.231028525e-06
3.003266657e-06
2.786030929e-06
2.577576495e-06