/*--------------------------------*- C++ -*----------------------------------*\
| =========                 |                                                 |
| \\      /  F ield         | OpenFOAM: The Open Source CFD Toolbox           |
|  \\    /   O peration     | Version:  2.3.1                                 |
|   \\  /    A nd           | Web:      www.OpenFOAM.org                      |
|    \\/     M anipulation  |                                                 |
\*---------------------------------------------------------------------------*/
FoamFile
{
    version     2.0;
    format      ascii;
    class       dictionary;
    location    "constant";
    object      PM8;
}
// * * * * * * * * * * * * * * * * * * * * * * * * * * * * * * * * * * * * * //

PM8_table
101
(

101
(
-8231.257837
-193.4539092
-76.18647586
-44.1809371
-31.08220008
-24.47114553
-20.51961586
-17.83199918
-15.80819722
-14.15917179
-12.74203533
-11.48051006
-10.34281683
-9.284962217
-8.318989466
-7.432380042
-6.611668526
-5.847064898
-5.188148915
-4.535845634
-3.988015397
-3.499520592
-3.030898484
-2.625449485
-2.270742235
-1.954943695
-1.674465085
-1.427038172
-1.204134658
-1.008229916
-0.8340288207
-0.6817056465
-0.5554965675
-0.4170509559
-0.3092430534
-0.2130546486
-0.1285660722
-0.05631792564
0.01148719256
0.07630887866
0.1334249136
0.1784170966
0.2223369344
0.2611109285
0.2934043182
0.3242197613
0.3504554891
0.3751580521
0.3963881542
0.4160578324
0.4328096036
0.4478697378
0.4612082231
0.4728670367
0.4829386281
0.4917007427
0.5003109446
0.5066292365
0.5128431927
0.5177799298
0.5222355229
0.5258567125
0.5288102425
0.5312973025
0.533243036
0.5347812442
0.5358511101
0.5365400524
0.5370039844
0.5370750417
0.5369079448
0.5365227269
0.536042188
0.5352768627
0.5343002593
0.5330960533
0.5319131896
0.5306041441
0.5291740524
0.5276593012
0.5260896897
0.524569556
0.5229853733
0.521433847
0.5198645813
0.5182964764
0.5167898533
0.5153360116
0.5139742801
0.5126740018
0.5114671386
0.5102946198
0.5092386268
0.508258597
0.5073323971
0.5058674538
0.5037072452
0.5097873523
0.5155445419
0.521660052
0.5273730087
)


101
(
-8231.257851
-193.574813
-76.29060435
-44.23196838
-31.10246677
-24.47491137
-20.51752635
-17.82999428
-15.80972195
-14.16653687
-12.75627681
-11.50208441
-10.37101751
-9.320745543
-8.360003117
-7.477906054
-6.661439875
-5.900760931
-5.239935584
-4.593557808
-4.041697658
-3.551566881
-3.085303995
-2.676912582
-2.319136081
-2.00102009
-1.71818948
-1.468143738
-1.243328866
-1.044845511
-0.8684103467
-0.7135862107
-0.5837577607
-0.4478884883
-0.3362545426
-0.23792051
-0.1514456092
-0.07698488067
-0.008330445586
0.05674326757
0.1149885048
0.1624095463
0.2068853205
0.2466339414
0.2803975961
0.31176356
0.3390185058
0.3642158796
0.3862616007
0.4064246333
0.4239218272
0.4395444132
0.4534182066
0.4656159565
0.4762240582
0.4854669692
0.4942460881
0.5011908175
0.5076368021
0.5129781168
0.5176992365
0.5216360448
0.5248883761
0.5276201941
0.5298141765
0.5315711811
0.5328688744
0.533769696
0.534398073
0.5346655855
0.534663406
0.5344264652
0.5340523982
0.5334344506
0.5326096337
0.5315708429
0.5304882084
0.5292854071
0.5279678437
0.5265599583
0.5250905453
0.5236360767
0.5221370486
0.5206555548
0.5191703128
0.5176810814
0.5162392045
0.5148421553
0.513531423
0.5122735741
0.5111272662
0.5100059021
0.5089829682
0.5080459156
0.5071637888
0.505766841
0.5036726691
0.5097483972
0.5155009072
0.5216099873
0.5273164696
)


101
(
-8231.257851
-193.8174944
-76.49972621
-44.33510318
-31.14378006
-24.4828791
-20.51337732
-17.82563936
-15.81214881
-14.1803899
-12.78372765
-11.54410679
-10.42635227
-9.391138826
-8.441199324
-7.568304983
-6.760464753
-6.007813682
-5.344244352
-4.708552822
-4.150468543
-3.656821054
-3.194525887
-2.781418243
-2.417727579
-2.094858588
-1.807353012
-1.55217536
-1.323391235
-1.119917878
-0.9389220503
-0.779126913
-0.642381595
-0.5098109851
-0.392281153
-0.2894710121
-0.198899388
-0.1200242693
-0.04914031519
0.01679545176
0.0770484328
0.1287685741
0.1749608539
0.2166528292
0.2531619106
0.2859734589
0.3151780224
0.3415783725
0.3651893945
0.3864731628
0.4053956242
0.4222101939
0.4371912052
0.4504808469
0.4621736226
0.4724162288
0.4817064174
0.489744551
0.4968016835
0.5029239933
0.5082420441
0.5128125517
0.5166746615
0.5199316727
0.5226371279
0.5248568304
0.5266182663
0.5279570237
0.5289482464
0.5296072648
0.529955822
0.5300386807
0.5299164156
0.5295880911
0.5290594036
0.5283364562
0.5274872772
0.5265128862
0.5254282883
0.524241203
0.5229786106
0.5216811868
0.5203539438
0.5190225355
0.5177001774
0.5163713198
0.5150742808
0.513802544
0.5126032573
0.5114434463
0.510410502
0.5093975836
0.5084618796
0.5076118881
0.5068282204
0.5055667655
0.5036126264
0.5096823728
0.515428748
0.5215313585
0.5272312128
)


101
(
-8231.25785
-194.0621638
-76.71076794
-44.44044576
-31.18671908
-24.49183509
-20.50948075
-17.82088405
-15.81366622
-14.19285123
-12.80944815
-11.58414291
-10.47969425
-9.459206219
-8.520526144
-7.657028956
-6.857886392
-6.113377216
-5.449000041
-4.821680813
-4.26052866
-3.763174764
-3.303187763
-2.887264336
-2.518302481
-2.190541626
-1.898391788
-1.638299576
-1.405316964
-1.197175
-1.011555773
-0.8469063847
-0.7039609092
-0.571326457
-0.4505333265
-0.343390594
-0.2487051944
-0.1655560976
-0.09159990377
-0.02400976868
0.03798024498
0.09291044411
0.1415889125
0.1853103434
0.2241988387
0.2589227715
0.2899722752
0.3178880716
0.3429846662
0.3655769245
0.3858293093
0.4039068004
0.4200454688
0.434436985
0.4472093609
0.4584851812
0.4685556821
0.4774714401
0.4853167965
0.4921922873
0.4981960186
0.503411373
0.5078957483
0.5117249186
0.5149641007
0.5176808538
0.519917472
0.5217110447
0.5231133999
0.5241652025
0.5248891542
0.5253233074
0.5255118353
0.52547745
0.5252375277
0.5248061256
0.5242267494
0.5235034028
0.5226634853
0.5217106783
0.5206670899
0.5195635487
0.5184169005
0.5172527958
0.516091522
0.5149239597
0.5137874077
0.5126646745
0.511594818
0.5105524973
0.5096323341
0.5087351187
0.5079161117
0.5071646712
0.5064881277
0.5053675478
0.5035616074
0.5096310007
0.5153773062
0.5214818374
0.5271839297
)


101
(
-8231.257096
-194.3088398
-76.92375179
-44.54802994
-31.23133412
-24.50182391
-20.50588301
-17.81577293
-15.81430782
-14.20395314
-12.83345733
-11.62220245
-10.53102398
-9.524960501
-8.597893355
-7.744015992
-6.953657028
-6.217388407
-5.553835004
-4.933324339
-4.371272193
-3.870618817
-3.411658278
-2.994029775
-2.620643399
-2.288086646
-1.991307158
-1.726458383
-1.489174849
-1.276559652
-1.086371649
-0.9169526877
-0.7682886884
-0.6335710402
-0.5102909711
-0.3994675685
-0.3008324319
-0.2135535509
-0.136088771
-0.06613942172
-0.00224666791
0.05529209063
0.1065621371
0.1525090499
0.193645508
0.2304318626
0.2633867635
0.2929797331
0.3196190857
0.3436196861
0.3652221001
0.3845972661
0.4019483836
0.4174758633
0.4313382601
0.4436631922
0.4546459528
0.4644319891
0.4731071876
0.4807685418
0.4875064051
0.4934072587
0.4985403148
0.5029760818
0.5067795488
0.5100229039
0.5127574457
0.5150258928
0.516871675
0.5183383451
0.5194554828
0.5202623044
0.5207966623
0.5210845201
0.5211502122
0.5210129666
0.5207128021
0.5202549172
0.5196717888
0.5189683252
0.5181612388
0.5172734642
0.5163257908
0.5153461339
0.5143579634
0.5133566779
0.5123843964
0.5114251287
0.5105067481
0.5095966261
0.508802774
0.5080286397
0.5073350223
0.5067042118
0.5061402834
0.5051667316
0.5035156715
0.5095893976
0.5153394691
0.5214425923
0.5271431545
)


101
(
-8231.257854
-194.5575994
-77.1387329
-44.65790554
-31.27768086
-24.51290036
-20.50263914
-17.81035827
-15.81411471
-14.21373365
-12.85578018
-11.6583003
-10.58032842
-9.588413969
-8.673226685
-7.829201917
-7.047727617
-6.319787501
-5.65842915
-5.043734316
-4.482272809
-3.97903391
-3.520220649
-3.101478362
-2.724507444
-2.387448511
-2.086101095
-1.816612605
-1.574996645
-1.358038289
-1.163392792
-0.9893040744
-0.8352561177
-0.6972539352
-0.5714165727
-0.4574488911
-0.3551547441
-0.2639514582
-0.1828080671
-0.1099830978
-0.04384395691
0.0160959779
0.06988012335
0.1181567408
0.1615308697
0.2004358959
0.235367215
0.2667513603
0.2950213667
0.3205139529
0.3435191005
0.3642340297
0.3828510554
0.3995647401
0.4145490424
0.4279450867
0.4399091101
0.4506069909
0.4601436207
0.468623528
0.4761348376
0.4827630162
0.4885818312
0.4936609709
0.4980636571
0.5018647624
0.5051236243
0.507890429
0.5102075984
0.5121169644
0.5136502864
0.5148504823
0.515754967
0.5163908499
0.5167855871
0.5169606367
0.516954515
0.5167747713
0.516459092
0.5160156816
0.5154608337
0.5148093029
0.5140795137
0.5133021173
0.5125024026
0.5116789682
0.5108785686
0.5100887166
0.509339196
0.5085792472
0.5079238657
0.5072848134
0.5067220719
0.5062275487
0.5057890222
0.5049658005
0.5034789175
0.5095530093
0.5153033862
0.521407054
0.5271083109
)


101
(
-8231.257851
-194.8084826
-77.35572444
-44.77009855
-31.32579877
-24.52510709
-20.49979455
-17.8046842
-15.81312091
-14.22222344
-12.8764358
-11.69244483
-10.62759124
-9.649570068
-8.746456515
-7.912516497
-7.140041438
-6.420513131
-5.762493937
-5.153053092
-4.593224809
-4.088234524
-3.62906195
-3.209484161
-2.829662017
-2.488525751
-2.182756803
-1.908734538
-1.662788725
-1.441578197
-1.242607618
-1.063984903
-0.9048200191
-0.7628360276
-0.634033176
-0.5171095913
-0.4114926329
-0.3166323848
-0.2318250136
-0.1558100687
-0.08707066663
-0.02469086126
0.03155676651
0.0822013136
0.1278355546
0.1688957076
0.2058632064
0.2391291275
0.2691204684
0.2961865223
0.3206548054
0.3427572453
0.3626928313
0.3806493061
0.3968041968
0.4113098901
0.4243076908
0.4359646175
0.4463999684
0.455730757
0.4640495446
0.4714428875
0.4779865063
0.4837489388
0.4887904757
0.4931850298
0.4969979277
0.5002882556
0.5031030239
0.505483687
0.5074604792
0.5090784379
0.5103761829
0.5113829333
0.5121290971
0.5126384621
0.5129477804
0.5130639172
0.5130287893
0.5128562467
0.5125650902
0.5121676985
0.5116754048
0.5111192015
0.5105257494
0.5098951203
0.5092765672
0.5086648893
0.5080914343
0.5075016856
0.506996647
0.506503581
0.5060839732
0.5057345753
0.5054325338
0.5047704012
0.5034479493
0.5095196863
0.5152690153
0.521381066
0.5270915996
)


101
(
-8231.257851
-195.0615536
-77.57476733
-44.88465253
-31.37574004
-24.53849733
-20.49740409
-17.79880369
-15.81136856
-14.22946006
-12.89545036
-11.72465147
-10.67280344
-9.708434417
-8.817524319
-7.99389016
-7.230541144
-6.519504822
-5.865777426
-5.26133462
-4.703898716
-4.198015596
-3.738281127
-3.317987233
-2.935908792
-2.591185114
-2.28123189
-2.002803539
-1.752553121
-1.527153102
-1.323980723
-1.140983229
-0.9769553765
-0.8306288512
-0.6983911876
-0.5784334943
-0.4696948282
-0.3714465833
-0.2831121507
-0.2037766838
-0.1321566965
-0.06718360095
-0.008441990034
0.04460342462
0.09252765372
0.135772927
0.1748234948
0.210045711
0.2418480912
0.2705753997
0.2965738071
0.3201118954
0.3414133677
0.3606671365
0.3780475876
0.3937127481
0.407798974
0.4204679005
0.4318467865
0.4420645892
0.4512233106
0.4594157443
0.4667202237
0.4732057054
0.478928353
0.4839577126
0.4883599033
0.4922020236
0.4955399313
0.4984193568
0.5008690392
0.5029327744
0.5046494839
0.5060503617
0.5071695651
0.5080345127
0.5086820571
0.5091160925
0.5093799461
0.509492786
0.5094780419
0.5093485852
0.509111527
0.5087943657
0.5084253834
0.5080057311
0.5075822756
0.5071594553
0.506769106
0.5063640781
0.5060243362
0.5056856039
0.5054216584
0.5052251366
0.5050706809
0.5045719859
0.5034201824
0.5094959528
0.5152517335
0.5213836487
0.5271171789
)


101
(
-8231.256323
-195.316807
-77.79588592
-45.00160029
-31.42754923
-24.55311812
-20.49551718
-17.79276505
-15.80889691
-14.23547803
-12.91284764
-11.75493363
-10.7159554
-9.765009228
-8.886378642
-8.073252251
-7.319166229
-6.616701621
-5.968058273
-5.368575748
-4.814111237
-4.308161754
-3.847906014
-3.426964098
-3.043089512
-2.69527791
-2.381453107
-2.098788813
-1.844288874
-1.614746344
-1.407474859
-1.220262779
-1.051617974
-0.9008235248
-0.7647620687
-0.6415306118
-0.5296999348
-0.4282620782
-0.3365852342
-0.2539388884
-0.1792694167
-0.1115284149
-0.05019983678
0.005305604915
0.05556676236
0.1010323365
0.1422036832
0.1794395265
0.2131318779
0.2436111384
0.271223026
0.2962565113
0.3189663726
0.3395626255
0.3582207146
0.375097547
0.3903284947
0.4040698055
0.4164466032
0.4275961533
0.4376317072
0.4466558914
0.4547535702
0.4619980263
0.4684435451
0.4741531184
0.4791873207
0.4836163829
0.4875051223
0.4909091451
0.4938603597
0.4964000752
0.4985650791
0.5003865785
0.501901928
0.5031434377
0.5041514022
0.5049275064
0.5055125365
0.5059284504
0.5062057098
0.5063592178
0.5063934854
0.5063316009
0.5062031899
0.5060126836
0.5058024384
0.5055806589
0.5053846873
0.5051719807
0.505015218
0.5048407657
0.5047399752
0.5047048112
0.5047086376
0.5043731606
0.5033976488
0.5094881993
0.515263624
0.5214405696
0.5272312044
)


101
(
-8231.256334
-195.5744161
-78.01914849
-45.12100153
-31.48129009
-24.56903152
-20.49419525
-17.78662658
-15.8057559
-14.24032172
-12.92866067
-11.78331254
-10.75704553
-9.819299556
-8.952979083
-8.1505383
-7.405857623
-6.712046924
-6.069140716
-5.4747301
-4.923708383
-4.418462431
-3.957908189
-3.53639728
-3.151077624
-2.800651165
-2.483323174
-2.196647048
-1.937988764
-1.704347095
-1.49305416
-1.301773527
-1.128751803
-0.9735173369
-0.8333826812
-0.7065901882
-0.5915478433
-0.4869965815
-0.3921413517
-0.3062778262
-0.2285012782
-0.1578547654
-0.0938230385
-0.03577090803
0.01689480206
0.06462998878
0.107961451
0.1472599351
0.1829080913
0.2152200771
0.2445342439
0.2711422865
0.295317778
0.3172978428
0.3372772955
0.3554150143
0.3718448666
0.3867186615
0.4001541089
0.412290474
0.4232486474
0.4331420093
0.4420651819
0.4501003338
0.4573055826
0.4637400917
0.4694544084
0.4745141292
0.4789885166
0.4829444677
0.4864236307
0.4894691172
0.4921140288
0.4943866995
0.4963252619
0.4979667753
0.4993565551
0.5004983397
0.5014298335
0.5021703195
0.5027560581
0.5032095197
0.5035327712
0.5037442706
0.5038711835
0.5039259596
0.5039487014
0.5039416278
0.5039531687
0.5039416705
0.5039834609
0.5039859681
0.5040529088
0.5041894561
0.5043608484
0.5041964174
0.503393972
0.5095181204
0.5153341186
0.521583036
0.5274390924
)


101
(
-8231.259636
-195.8344776
-78.24461059
-45.24290915
-31.53702193
-24.58629644
-20.49349722
-17.7804445
-15.80199437
-14.24403473
-12.94292233
-11.80980941
-10.79607381
-9.871307473
-9.017288633
-8.225685406
-7.490553597
-6.805481201
-6.168856258
-5.579714874
-5.032545831
-4.528715694
-4.068214151
-3.646264547
-3.259779033
-2.907161159
-2.586726178
-2.296317215
-2.03363942
-1.795952322
-1.580692704
-1.385459531
-1.208276311
-1.048731242
-0.9044170817
-0.7738177713
-0.6553600547
-0.5476475627
-0.4497059637
-0.3607372621
-0.2798817437
-0.2062609501
-0.1394160737
-0.07871767728
-0.0235608556
0.02651387251
0.07205382257
0.1134567837
0.1511186246
0.1853359355
0.2164363853
0.2447042638
0.2704209476
0.2938409431
0.3151837582
0.3346255221
0.3523017759
0.3683647084
0.3829207563
0.3961053093
0.4080414218
0.4188502538
0.4286366458
0.4374937974
0.4454898163
0.452687118
0.4591293064
0.4648698707
0.4699745961
0.4745171634
0.4785515765
0.4821300739
0.4852858801
0.4880429645
0.4904365612
0.4925057526
0.4943002168
0.495829366
0.4971328564
0.498224345
0.4991384075
0.4999085077
0.5005403134
0.5010464801
0.5014468517
0.5017601977
0.5020345662
0.5022604691
0.5024913156
0.502694082
0.5029458884
0.5031409944
0.5033843022
0.5037011997
0.5040490442
0.5040592282
0.5034318125
0.5096129729
0.5154946239
0.5218430913
0.5278001083
)


101
(
-8231.260524
-196.0968913
-78.47225883
-45.36733485
-31.59477545
-24.60494985
-20.49346414
-17.77426003
-15.79764805
-14.24664819
-12.95565472
-11.8344363
-10.83303353
-9.921027668
-9.079268446
-8.298626784
-7.573184844
-6.896941144
-6.267047634
-5.68342864
-5.140481884
-4.638711177
-4.178704887
-3.756518829
-3.369113976
-3.014675597
-2.691531134
-2.397712659
-2.131209638
-1.889558843
-1.670374557
-1.471273924
-1.290110902
-1.126429402
-0.9779529604
-0.843392706
-0.7213055837
-0.6102860987
-0.5092483268
-0.4172586428
-0.3333954007
-0.2567979582
-0.1870666283
-0.1236269219
-0.06588432832
-0.01338296739
0.03443470287
0.07799052761
0.1177102233
0.1538937971
0.1868579043
0.2168720457
0.2442133166
0.269145288
0.2919066599
0.312695512
0.3316609203
0.3489620777
0.364697198
0.3789933117
0.3919688323
0.4037484835
0.4144445765
0.42416043
0.4329773797
0.440967984
0.4481780522
0.4546497644
0.4604369442
0.4656104423
0.4702338616
0.474372775
0.478068301
0.4813427225
0.4842261855
0.4867552575
0.4889824215
0.4909218035
0.4926198884
0.4940894618
0.4953578406
0.4964626298
0.4974214014
0.4982451804
0.4989438454
0.4995305264
0.5000717098
0.5005521535
0.5010175777
0.5014478802
0.5019217416
0.5023258456
0.5027595576
0.5032629007
0.5037976675
0.5039845714
0.5035375281
0.509802827
0.5157755573
0.5222374408
0.5283106555
)


101
(
-8231.261174
-196.3618369
-78.70216928
-45.49434253
-31.65461801
-24.6250576
-20.49416094
-17.76813532
-15.79277279
-14.24821141
-12.96689619
-11.85722067
-10.86793263
-9.968466565
-9.138895304
-8.369307671
-7.653690446
-6.986372215
-6.363582962
-5.785762493
-5.247381968
-4.748256353
-4.289237585
-3.867089052
-3.479009461
-3.123082441
-2.797608381
-2.500729422
-2.230648113
-1.985159034
-1.76209873
-1.559182949
-1.374176102
-1.206540042
-1.054008573
-0.9154409049
-0.789556187
-0.6750409338
-0.5708073644
-0.4758090851
-0.3890031468
-0.3094745418
-0.2368406639
-0.1705842898
-0.110163385
-0.05514174468
-0.0049601841
0.04081432651
0.08264083651
0.1208414504
0.1557316857
0.1875707724
0.2166239934
0.2431500426
0.2673989011
0.2895890483
0.3098885507
0.3284702763
0.3454360741
0.3609040168
0.374982264
0.3877951826
0.3994573674
0.4100785121
0.4197514042
0.4285640776
0.4365729929
0.4438183082
0.4503398454
0.4561966065
0.4614527702
0.4661849543
0.4704476383
0.4742692747
0.4776773678
0.4807028474
0.4833961518
0.4857737444
0.4878890376
0.4897614387
0.4914131826
0.4928760593
0.4941786264
0.4953408521
0.4963651133
0.4972478168
0.4980690862
0.4988236437
0.4995461768
0.5002166562
0.5009274848
0.501556745
0.5021976728
0.5028949683
0.5036285445
0.5040016655
0.5037401042
0.510109931
0.5161899272
0.5227547624
0.5289268027
)


101
(
-8231.258102
-196.6293203
-78.93436103
-45.6239638
-31.71659487
-24.64666879
-20.49563903
-17.76212082
-15.78741426
-14.24876502
-12.97667768
-11.8781832
-10.90077449
-10.01362408
-9.196143272
-8.43767142
-7.732004627
-7.073711146
-6.458344576
-5.886600678
-5.353107833
-4.857159668
-4.399645081
-3.97787588
-3.589383453
-3.23227159
-2.90482373
-2.605244683
-2.331878311
-2.082729007
-1.855867802
-1.649175317
-1.460414468
-1.288979647
-1.132543799
-0.9900203471
-0.8602566816
-0.7420754417
-0.6344783494
-0.5363983266
-0.4466747596
-0.3642741452
-0.2887696687
-0.2196610054
-0.1564814364
-0.09884772664
-0.0462086227
0.001867181677
0.04586177652
0.0861309141
0.1230047737
0.1567345376
0.1875777989
0.215784635
0.2415991164
0.2652564399
0.286943049
0.3068514322
0.3250936915
0.3417870559
0.3570297294
0.3709398522
0.3836312735
0.3952149928
0.4057900514
0.4154586343
0.4242941626
0.4323455282
0.439646231
0.4462400135
0.4521803
0.4575475944
0.4624084482
0.4668046236
0.4707687144
0.4743278239
0.4775253695
0.480374708
0.4829338076
0.4852326
0.4872959225
0.4891463598
0.4908130502
0.4923307927
0.4937044898
0.4949123182
0.496031387
0.4970753334
0.4980785434
0.499006836
0.4999689959
0.5008413272
0.5017055639
0.5026087732
0.5035531249
0.5041267043
0.504054154
0.5105273843
0.5167090838
0.5233504397
0.5296293126
)


101
(
-8231.255037
-196.8994848
-79.16891393
-45.75626579
-31.7807761
-24.66985225
-20.49796693
-17.75628207
-15.78163121
-14.24836153
-12.98504313
-11.89735557
-10.93157382
-10.05650997
-9.250998102
-8.503674127
-7.808066752
-7.158899523
-6.551224077
-5.985832083
-5.457528062
-4.965236778
-4.509751215
-4.0887598
-3.700146082
-3.342138818
-3.013048605
-2.71112698
-2.434801771
-2.182224755
-1.951679118
-1.741251413
-1.548792577
-1.373675908
-1.213487684
-1.067125895
-0.933494799
-0.8115400708
-0.7004016261
-0.5990996988
-0.506407767
-0.4211696074
-0.3428501253
-0.2709066049
-0.2049170415
-0.1445842575
-0.08939567728
-0.03892531536
0.007315125668
0.04970933597
0.08861971138
0.1243041655
0.1570078655
0.1869748989
0.2144409761
0.2396386009
0.2627735104
0.2840608996
0.303625879
0.321595085
0.338060494
0.3531296136
0.3669141435
0.3795241076
0.3910600501
0.4016304282
0.4113252341
0.4202104268
0.4283251786
0.4357035836
0.4423823581
0.4484351649
0.4539337648
0.4589335222
0.4634802889
0.4676055504
0.4713468283
0.4747067734
0.477741691
0.4804909321
0.4829913611
0.4852611059
0.4873188637
0.4892095306
0.4909519467
0.4925139438
0.4939547046
0.4953032592
0.4966060012
0.4978141309
0.499043148
0.5001753087
0.5012787123
0.5024023732
0.503569147
0.5043556212
0.5044755817
0.5110357146
0.517294933
0.5239672924
0.5302272287
)


101
(
-8231.261161
-197.172662
-79.4059705
-45.89135157
-31.8472573
-24.69469687
-20.50123009
-17.75069946
-15.7754961
-14.24706596
-12.9920489
-11.91478067
-10.96035631
-10.09714368
-9.303458124
-8.567284161
-7.88182458
-7.241881995
-6.642130147
-6.083347911
-5.560516165
-5.072315947
-4.619373074
-4.199602284
-3.811198898
-3.452585766
-3.122161695
-2.818236171
-2.53929479
-2.283574029
-2.049518228
-1.835422739
-1.63929546
-1.460572505
-1.296762296
-1.146706681
-1.00929569
-0.8835428658
-0.7687313863
-0.6640306599
-0.5682489937
-0.4801498736
-0.399061451
-0.3243360274
-0.2555339749
-0.1924363883
-0.1346080643
-0.08164962358
-0.03307172475
0.01152012351
0.05252174311
0.09021660056
0.124849163
0.1566516168
0.1858522366
0.2126740658
0.2373257731
0.2600472968
0.2809847254
0.3002788914
0.3180215271
0.3343103078
0.3492511404
0.3629522058
0.3755134904
0.3870443271
0.3976431539
0.4073946802
0.4163529158
0.4245537013
0.4320216966
0.4388149485
0.4450010791
0.4506414527
0.4557968655
0.4605143946
0.464833306
0.4687458382
0.4722947839
0.4755223401
0.4784821486
0.4811992835
0.4836797554
0.4859657183
0.4880932324
0.4900345084
0.4918244842
0.4934954325
0.4951131648
0.4966219059
0.498133872
0.499541226
0.5008995132
0.5022589502
0.5036574915
0.504663534
0.504986193
0.5116004295
0.5178988632
0.5245538839
0.5307687986
)


101
(
-8231.26116
-197.4485809
-79.64549665
-46.02918997
-31.91604123
-24.72122017
-20.50545464
-17.74540223
-15.76903574
-14.24490235
-12.99771447
-11.93046884
-10.98711833
-10.13551636
-9.35349802
-8.628446964
-7.953206341
-7.322581142
-6.730959586
-6.179030462
-5.661937806
-5.178212225
-4.728305025
-4.310224974
-3.922412586
-3.563502594
-3.232040153
-2.926427552
-2.645210937
-2.386667959
-2.149338342
-1.931695995
-1.731937738
-1.549641151
-1.382300244
-1.228686177
-1.087625343
-0.9581357671
-0.8395982783
-0.7313394324
-0.6323022366
-0.5412364905
-0.4573793379
-0.3799325823
-0.3083651502
-0.242480237
-0.1819313368
-0.1263914615
-0.07538293897
-0.02850845035
0.01465176292
0.05441279568
0.09103566407
0.1247455775
0.1557599178
0.1842908503
0.2105401981
0.2347609546
0.2571222819
0.2777875716
0.2968575311
0.314424984
0.3305845646
0.345441284
0.3590934418
0.3716494798
0.3832094117
0.3938703383
0.4037049435
0.4127608624
0.4210599233
0.4286466878
0.4355765925
0.4419064114
0.4477038934
0.4530362801
0.4579588319
0.462460692
0.4665664201
0.4703080647
0.4737500804
0.4769356042
0.4798702787
0.4825792925
0.4851083608
0.4874478216
0.4896150208
0.4916284244
0.493574969
0.4954019268
0.4972125464
0.4989086502
0.5005355761
0.5021453746
0.5037813871
0.5050127289
0.5055438881
0.5121675579
0.5184595156
0.5250629654
0.5312588501
)


101
(
-8231.255036
-197.7273329
-79.8874946
-46.16983647
-31.98719129
-24.74948729
-20.51070669
-17.74045462
-15.76230736
-14.24192144
-13.00208562
-11.94445605
-11.01188017
-10.17163938
-9.401111988
-8.68712718
-8.022153656
-7.400932858
-6.817623892
-6.272779999
-5.761678151
-5.282768505
-4.836350174
-4.420439192
-4.033639211
-3.674777352
-3.342572239
-3.035566569
-2.752396321
-2.491369021
-2.251057121
-2.030051021
-1.82673584
-1.640883271
-1.4700558
-1.312988752
-1.168421715
-1.035317888
-0.9130844086
-0.8011752722
-0.6987065985
-0.6045133546
-0.5178143583
-0.43767268
-0.3634059188
-0.2947634595
-0.2314496384
-0.1732385687
-0.119704571
-0.07045524251
-0.02505899556
0.01682944485
0.05550083326
0.09118555503
0.1240917719
0.1544166816
0.1823497872
0.2081453269
0.2319901426
0.254075585
0.274519758
0.2934192365
0.3108580084
0.3269329981
0.3417402592
0.3553874985
0.3679732112
0.3795984029
0.3903511388
0.4002962997
0.409461612
0.4178877435
0.4256173282
0.4326947063
0.439182034
0.4451579422
0.4507032521
0.4558201732
0.4605227471
0.4648213908
0.4687756983
0.4724479049
0.4758610649
0.4790242161
0.4819747738
0.4847262205
0.4872950532
0.4896737322
0.4919617596
0.4941208483
0.4962438895
0.4982399549
0.5001476595
0.5020182528
0.5038962485
0.5053580186
0.5060965267
0.512687025
0.5189330388
0.5254653473
0.5315767857
)


101
(
-8231.261174
-198.0094764
-80.13214972
-46.31345167
-32.06084472
-24.77962069
-20.51709998
-17.73596251
-15.75540641
-14.23820826
-13.00523934
-11.95680744
-11.03469016
-10.20554998
-9.446319577
-8.743316968
-8.088629878
-7.476887816
-6.90205488
-6.364514706
-5.859639523
-5.385853742
-4.943326861
-4.530055403
-4.144713779
-3.786282636
-3.453651517
-3.145535971
-2.860706255
-2.597522944
-2.354555881
-2.130437786
-1.923697375
-1.734328473
-1.560024121
-1.399563826
-1.251609744
-1.115034443
-0.9892095678
-0.8736492664
-0.7676212471
-0.6701191789
-0.5804281089
-0.4975471839
-0.4206340958
-0.3493012159
-0.2832312657
-0.222283705
-0.1661284158
-0.1144072295
-0.06668672729
-0.02260159322
0.01817454873
0.05589610056
0.09076771834
0.1229739955
0.152682026
0.1801382927
0.2055364163
0.2290944709
0.2509600828
0.2712404323
0.2900163752
0.3073716999
0.3233970503
0.3382003704
0.3518782049
0.3645306168
0.3762533723
0.3871271791
0.3971934553
0.4064976378
0.4150752577
0.4229588527
0.4301961009
0.4368601858
0.4430513942
0.4488009467
0.4541292293
0.4590265835
0.4635330752
0.4677161414
0.4716246304
0.4752701425
0.4786691185
0.4818447272
0.4848330447
0.487601441
0.4902441106
0.4927466538
0.4951944567
0.4974988378
0.4996980986
0.5018363149
0.503959993
0.5056529072
0.5065979403
0.5131239772
0.5193001899
0.5257575035
0.531804673
)


101
(
-8231.261167
-198.2946887
-80.37940766
-46.45999242
-32.13699797
-24.81163434
-20.52465854
-17.73195396
-15.74836079
-14.23378787
-13.00719405
-11.96753775
-11.05554912
-10.23724139
-9.489102537
-8.79697611
-8.152570297
-7.55036477
-6.984149956
-6.454122842
-5.95570147
-5.487313283
-5.049042362
-4.638854935
-4.25543375
-3.897851792
-3.565146837
-3.25621537
-2.969997646
-2.704957462
-2.459672269
-2.232750031
-2.02279344
-1.829997241
-1.652225431
-1.488384694
-1.337119954
-1.197205623
-1.067936567
-0.9488041974
-0.8391742523
-0.7382086422
-0.6453395945
-0.559596247
-0.4800272982
-0.4060746737
-0.3373074481
-0.273608023
-0.2147465942
-0.160454847
-0.1103145699
-0.06395209899
-0.02101128562
0.01880013161
0.05570345621
0.08987135629
0.1214510996
0.1506660081
0.1777025518
0.2027960598
0.2261298942
0.2478364495
0.268001665
0.2866999231
0.3040083577
0.3200309414
0.3348652057
0.3486107094
0.3613630881
0.3732142049
0.3842204361
0.3944373977
0.4039028433
0.4126441092
0.4206932231
0.4281048458
0.434981996
0.4413838307
0.447355747
0.4528842152
0.4579862578
0.4627139472
0.4671354182
0.4712850501
0.475162883
0.4787799939
0.4821992667
0.4853801622
0.4883932624
0.4912494563
0.4940342465
0.4966561217
0.4991537732
0.5015662991
0.5039369993
0.5058636827
0.5070106178
0.5134601159
0.5195626146
0.5259523491
0.5319489032
)


101
(
-8231.261162
-198.583233
-80.62957703
-46.60955722
-32.21574464
-24.84561787
-20.5334697
-17.72851198
-15.74124766
-14.22873041
-13.00800881
-11.97670028
-11.07449373
-10.26673834
-9.529473106
-8.84809522
-8.213940261
-7.621307854
-7.063830543
-6.54150579
-6.049756599
-5.587018274
-5.153332463
-4.746635541
-4.365592452
-4.009305818
-3.676915355
-3.367485726
-3.080148345
-2.813520535
-2.566232619
-2.336849837
-2.123958149
-1.927890317
-1.746701726
-1.579469841
-1.424922123
-1.281757221
-1.149186103
-1.026624078
-0.9134439905
-0.8089320661
-0.7127076813
-0.6239182545
-0.5415991241
-0.4650548967
-0.3936712384
-0.3272634706
-0.2656532946
-0.208690855
-0.1560273604
-0.107298196
-0.06212202747
-0.02016950272
0.01881611836
0.05501704296
0.08855753883
0.1196364126
0.1484129015
0.175125905
0.1999837549
0.2231601407
0.2447595637
0.2648559481
0.2835129489
0.3008210432
0.3168764471
0.3317801625
0.3456270031
0.3585129733
0.3705055378
0.3816720147
0.3920606912
0.4017013273
0.4106169583
0.4188405634
0.4264598885
0.4335478114
0.4401821517
0.4463639644
0.4520984408
0.4574110362
0.4623704978
0.4670426645
0.4714271353
0.4755120715
0.479373461
0.4829857498
0.4863887824
0.4896099593
0.49274322
0.4956944672
0.4984967145
0.5011892954
0.5038095622
0.5059718739
0.507319159
0.5136941788
0.5197330984
0.5260700545
0.5320266591
)


101
(
-8231.262053
-198.8766834
-80.88256065
-46.76221362
-32.2971573
-24.88164499
-20.54360689
-17.72570871
-15.73413563
-14.22309846
-13.00773775
-11.98433959
-11.09155665
-10.29406233
-9.567440798
-8.89666432
-8.272705538
-7.689661681
-7.141019923
-6.626566417
-6.141697104
-5.684847057
-5.256039154
-4.853202291
-4.474974867
-4.120442876
-3.788792821
-3.479218655
-3.191044459
-2.923079022
-2.67406314
-2.442554421
-2.227065967
-2.02797072
-1.843476764
-1.672864001
-1.515017131
-1.36864782
-1.232881809
-1.107044674
-0.9904380999
-0.8823963132
-0.78269957
-0.6906666616
-0.6054284661
-0.5262329899
-0.4522951014
-0.3832603777
-0.3189230393
-0.2592217139
-0.2039238874
-0.1527210062
-0.1052248152
-0.06107282219
-0.0199623148
0.01832070485
0.05389876283
0.08694145861
0.1175701166
0.1460051047
0.1724653585
0.1971636451
0.220241762
0.2417831213
0.2618468295
0.2805088296
0.2978541352
0.3139810959
0.3289888193
0.3429731567
0.3560071615
0.3681677522
0.3795144992
0.3900881832
0.3999139989
0.4090086373
0.4174348189
0.4252606932
0.4325882231
0.4394438455
0.4458383036
0.4517765341
0.4573080166
0.4625220234
0.4674371115
0.472021
0.4763415165
0.4804017403
0.4842177367
0.4878184235
0.4913118867
0.4946050902
0.4977228559
0.5007022311
0.5035779089
0.5059810422
0.5075294817
0.5138400192
0.5198305156
0.5261276046
0.5320628047
)

