/*--------------------------------*- C++ -*----------------------------------*\
| =========                 |                                                 |
| \\      /  F ield         | OpenFOAM: The Open Source CFD Toolbox           |
|  \\    /   O peration     | Version:  2.3.1                                 |
|   \\  /    A nd           | Web:      www.OpenFOAM.org                      |
|    \\/     M anipulation  |                                                 |
\*---------------------------------------------------------------------------*/
FoamFile
{
    version     2.0;
    format      ascii;
    class       dictionary;
    location    "constant";
    object      rersatz1;
}
// * * * * * * * * * * * * * * * * * * * * * * * * * * * * * * * * * * * * * //

rersatz1_table
101
(

101
(
-4.966728598e-26
-1.627587957e-19
-3.683705059e-17
-8.902360728e-16
-8.231208347e-15
-4.146606679e-14
-1.429284236e-13
-4.322759791e-13
-1.132361533e-12
-2.697083716e-12
-5.966116085e-12
-1.257454666e-11
-2.514881974e-11
-4.97703628e-11
-9.576624606e-11
-1.789395837e-10
-3.264368861e-10
-5.90183641e-10
-1.007074726e-09
-1.726475366e-09
-2.818763278e-09
-4.416812619e-09
-6.814770027e-09
-1.0170171e-08
-1.4658992e-08
-2.046677693e-08
-2.772913e-08
-3.65003622e-08
-4.684599677e-08
-5.866891783e-08
-7.185728836e-08
-8.618711834e-08
-1.013207155e-07
-1.175148717e-07
-1.340821676e-07
-1.508571783e-07
-3.145812236e-07
-5.962377172e-07
-6.453398494e-07
-6.911487343e-07
-7.329872316e-07
-7.709842639e-07
-8.040964947e-07
-8.321433558e-07
-8.55378639e-07
-8.73073496e-07
-8.856092321e-07
-8.925390848e-07
-8.942812088e-07
-8.906921432e-07
-8.823443775e-07
-8.693555798e-07
-8.520837511e-07
-8.309433958e-07
-8.063475799e-07
-7.786782786e-07
-7.480366021e-07
-7.153931437e-07
-6.807595789e-07
-6.447492562e-07
-6.077570508e-07
-5.701014283e-07
-5.321833361e-07
-4.943741197e-07
-4.570041785e-07
-4.202570178e-07
-3.844405314e-07
-3.498047526e-07
-3.165837185e-07
-2.848331955e-07
-2.547857924e-07
-2.264756908e-07
-2.001147365e-07
-1.755923775e-07
-3.222822251e-07
-4.007022367e-07
-3.361519043e-07
-2.796472165e-07
-2.302300318e-07
-1.873245478e-07
-1.50330574e-07
-1.193944939e-07
-9.313450871e-08
-1.489210559e-07
-1.708475355e-07
-1.206107046e-07
-8.281365279e-08
-5.491899781e-08
-3.499438299e-08
-5.790843039e-08
-3.608124059e-08
-1.715718045e-08
-7.062982921e-09
-6.584817474e-09
-3.502166164e-09
-7.165290598e-10
2.718841556e-15
-6.010808951e-36
-4.655981624e-25
3.141399487e-25
0
)


101
(
-4.91252477e-26
-5.484174484e-27
-2.507877092e-25
-3.365241004e-24
-1.946382487e-23
-8.895726886e-23
-5.55356194e-21
-1.563082248e-20
-3.039149746e-20
-1.306699957e-19
-3.191166223e-19
-4.488524359e-19
-2.990809959e-20
-8.334761114e-20
-1.623122515e-19
-7.936968564e-19
-1.346170515e-18
-3.315548534e-18
-6.630790587e-18
-8.979952488e-18
-2.962374875e-17
-9.674269361e-17
-2.053363317e-16
-3.843198975e-16
-6.991716928e-16
-1.164150548e-15
-1.98682675e-15
-3.096191203e-15
-3.869785438e-15
-4.863856859e-15
-7.563847293e-15
-1.438151912e-14
-2.918040607e-14
-3.763609002e-14
-3.674119398e-14
-2.595154548e-14
-1.540969082e-14
-2.188351484e-14
-5.727458562e-14
-1.034907491e-13
-1.373250387e-13
-1.482251084e-13
-1.554633343e-13
-1.41906171e-13
-1.210620734e-13
-1.155663702e-13
-1.284906489e-13
-1.472482883e-13
-1.967344857e-13
-2.341408356e-13
-2.417412168e-13
-1.881206345e-13
-9.736027668e-14
-4.153476587e-14
-5.823568037e-14
-1.047141328e-13
-1.289379638e-13
-1.297559738e-13
-1.321915447e-13
-1.514288719e-13
-1.44529893e-13
-1.119974089e-13
-6.49209177e-14
-3.638459956e-14
-4.098829427e-14
-5.368357948e-14
-3.8690291e-14
-6.959329107e-15
-1.770217943e-14
-3.720079919e-14
-1.997576919e-14
-9.685199235e-14
-2.505352423e-13
-2.374745536e-13
-3.793875872e-14
-8.92764664e-14
-4.258363462e-14
-5.153863813e-14
-6.962824289e-14
-8.53913703e-15
-1.74340051e-14
-2.314382117e-14
-1.114865706e-14
-7.349289254e-15
-4.427730253e-15
-3.953677164e-15
-5.559307187e-15
-1.206272238e-15
-2.219582526e-15
-1.737383784e-15
-3.323765126e-16
-8.532513282e-16
-3.262227161e-16
-8.768505012e-17
-5.390683611e-15
-1.624357629e-14
-4.981694779e-17
-3.45460847e-15
-8.695796518e-15
-1.198552894e-14
-1.605808849e-11
)


101
(
-4.856709138e-26
-1.119950816e-26
-2.589055868e-25
-1.82577116e-24
-2.432563098e-24
-1.55461052e-23
-4.270496151e-24
-8.211080391e-23
-3.494568818e-22
-5.075336264e-21
-5.405248869e-21
-5.069648465e-21
-2.014390274e-20
-8.348617709e-20
-1.781454231e-19
-9.454167366e-19
-2.012343969e-18
-5.042570364e-18
-9.729251915e-18
-1.532534583e-17
-4.233643921e-17
-1.563485219e-16
-3.911801899e-16
-7.944945293e-16
-1.431684606e-15
-2.451525681e-15
-4.340625105e-15
-6.787811583e-15
-9.108007659e-15
-1.103272214e-14
-1.447386046e-14
-2.844086772e-14
-6.625753538e-14
-1.036295515e-13
-1.133020493e-13
-8.601911279e-14
-3.984069157e-14
-3.08296748e-14
-1.149928765e-13
-2.550507837e-13
-4.133282927e-13
-5.213593389e-13
-5.577958605e-13
-5.297508834e-13
-4.705816994e-13
-4.31335963e-13
-4.387054767e-13
-5.034699808e-13
-6.355986345e-13
-8.31501327e-13
-9.79449684e-13
-9.589810946e-13
-6.444283125e-13
-2.710347681e-13
-1.514222992e-13
-2.43882764e-13
-4.112623359e-13
-4.545192607e-13
-4.518361389e-13
-5.167554971e-13
-5.747906867e-13
-5.675595042e-13
-4.079552882e-13
-2.180516655e-13
-1.565499302e-13
-1.813655921e-13
-1.482073574e-13
-3.818941873e-14
-5.705712016e-14
-1.597054436e-13
-1.877633928e-13
-3.047111966e-14
-8.100766559e-13
-1.168233544e-12
-5.758009713e-13
-2.011819279e-13
-2.206942539e-13
-3.978688083e-14
-2.937222155e-13
-1.129023191e-13
-7.933927594e-14
-7.089985644e-14
-4.955319822e-14
-5.232628178e-14
-5.213231892e-15
-1.403215389e-14
-2.205583996e-14
-2.114190177e-14
-1.104685565e-14
-5.609967617e-15
-4.260648636e-15
-8.635634777e-16
-3.085962992e-15
-2.0063593e-15
-5.431928464e-14
-1.616523464e-13
-4.267854101e-15
-3.806016854e-14
-7.131325943e-14
-1.037030037e-13
2.587076971e-10
)


101
(
-4.799278454e-26
-1.643822162e-26
-4.064497046e-25
-2.907796062e-24
-3.520833642e-24
-1.134326739e-23
1.031093468e-23
-6.86638117e-23
-3.604839517e-22
-5.236509581e-21
-5.665411632e-21
-8.042840083e-21
-2.096367031e-20
-9.881275444e-20
-1.890753713e-19
-1.077817794e-18
-2.502065984e-18
-5.690100879e-18
-1.317474202e-17
-2.174466555e-17
-4.763670363e-17
-1.963766563e-16
-5.629432615e-16
-1.227163037e-15
-2.337831027e-15
-4.034123796e-15
-7.165507223e-15
-1.206347447e-14
-1.75848787e-14
-2.201424254e-14
-2.592017263e-14
-4.206890473e-14
-1.081109045e-13
-2.05996566e-13
-2.761080231e-13
-2.542967595e-13
-1.542858417e-13
-5.807256177e-14
-1.336640584e-13
-4.155755258e-13
-8.153309703e-13
-1.145503765e-12
-1.305241613e-12
-1.317609238e-12
-1.192433248e-12
-1.039081599e-12
-9.973670574e-13
-1.07757062e-12
-1.32840545e-12
-1.757732594e-12
-2.24738626e-12
-2.576646166e-12
-2.260991209e-12
-1.272049548e-12
-5.521216974e-13
-3.663063043e-13
-6.525625748e-13
-9.138918241e-13
-9.461616849e-13
-1.098415607e-12
-1.229411469e-12
-1.293661001e-12
-1.138577078e-12
-7.862393581e-13
-4.470004491e-13
-3.820604434e-13
-2.619235775e-13
-3.907280129e-15
-1.825987032e-13
-5.064475933e-13
-7.099278478e-13
-2.409919518e-13
-1.615757443e-12
-2.920923489e-12
-1.904370115e-12
-4.274160254e-13
-6.944469789e-13
-7.127817927e-14
-6.203787039e-13
-3.556293429e-13
-2.552978607e-13
-2.1780597e-13
-1.881437134e-13
-1.295255276e-13
-7.235452818e-14
-9.178986055e-15
-4.239132958e-14
-7.553507729e-14
-7.822825687e-14
-1.97703455e-14
-1.723327945e-14
-2.738627898e-15
-1.29119566e-14
-1.420147256e-14
-2.976455992e-13
-8.479605323e-13
-4.063390998e-14
-2.031773613e-13
-3.73402249e-13
-5.132117214e-13
-7.039651199e-09
)


101
(
-4.740229468e-26
-2.134144583e-26
-5.674388363e-25
-4.168106644e-24
-5.118846614e-24
-5.762010126e-24
2.53614296e-23
-4.733099003e-23
-3.628676697e-22
-5.279892808e-21
-5.412094807e-21
-1.002930522e-20
-2.784798945e-20
-1.226801703e-19
-1.997220661e-19
-1.222647879e-18
-3.079849003e-18
-6.87921557e-18
-1.66254062e-17
-2.943409616e-17
-5.84093717e-17
-2.035855418e-16
-6.827485635e-16
-1.641810308e-15
-3.316455438e-15
-5.769394657e-15
-1.031127624e-14
-1.790302998e-14
-2.743073135e-14
-3.639351656e-14
-4.113522531e-14
-5.668605072e-14
-1.339166521e-13
-3.079004077e-13
-4.7300974e-13
-5.055604121e-13
-3.505961693e-13
-1.258772601e-13
-1.455964242e-13
-5.068812002e-13
-1.222184416e-12
-2.030348588e-12
-2.549084247e-12
-2.659635041e-12
-2.489926265e-12
-2.188208663e-12
-1.792531498e-12
-1.662278015e-12
-2.022399663e-12
-2.611382559e-12
-3.515327309e-12
-4.608813677e-12
-4.88902507e-12
-3.660738231e-12
-1.819805376e-12
-8.882038754e-13
-7.432702859e-13
-1.178548328e-12
-1.232814686e-12
-1.337232338e-12
-1.85941336e-12
-2.109313364e-12
-1.923705572e-12
-1.512063667e-12
-1.080831778e-12
-6.764354111e-13
-3.525318343e-13
-2.14149153e-13
-5.78492426e-13
-1.250493467e-12
-1.86109398e-12
-8.224510636e-13
-3.427386281e-12
-6.365736062e-12
-4.296222922e-12
-8.390561566e-13
-1.52553369e-12
-9.352542465e-14
-1.165448741e-12
-5.505639674e-13
-6.610167792e-13
-6.666065869e-13
-4.582364298e-13
-3.182348938e-13
-1.376329772e-14
-9.858107719e-14
-5.472194687e-14
-6.869948105e-14
-2.608899086e-13
-8.616387355e-14
-3.865582482e-14
-2.369629332e-14
-1.052238039e-14
-7.920720648e-14
-1.22015884e-12
-3.156382373e-12
-2.09885163e-13
-7.518500559e-13
-1.278426436e-12
-1.706250106e-12
8.338188023e-09
)


101
(
-4.679558916e-26
-2.573821576e-26
-7.39327845e-25
-5.598447001e-24
-7.250621072e-24
1.624991142e-24
3.954408114e-23
-1.719095254e-23
-3.503354176e-22
-5.177385654e-21
-4.680065561e-21
-1.205894585e-20
-3.74984754e-20
-1.401112129e-19
-1.57432066e-19
-1.208196394e-18
-2.806877177e-18
-6.882588674e-18
-1.8204946e-17
-3.203722529e-17
-5.660824189e-17
-1.951161269e-16
-6.869957395e-16
-1.81343541e-15
-3.91716611e-15
-7.059408236e-15
-1.269151613e-14
-2.272755614e-14
-3.628401271e-14
-5.085414879e-14
-5.788604362e-14
-6.465194153e-14
-1.521499276e-13
-3.748653938e-13
-6.779103949e-13
-8.775924388e-13
-7.492127098e-13
-3.325907445e-13
-4.439134528e-14
-4.052016871e-13
-1.356212969e-12
-2.693835429e-12
-3.877870522e-12
-4.329854516e-12
-4.152561715e-12
-3.652715032e-12
-3.07604449e-12
-2.748376811e-12
-2.631301658e-12
-3.056858658e-12
-3.996732192e-12
-5.826097447e-12
-7.296260944e-12
-6.934612529e-12
-4.149492687e-12
-2.27855881e-12
-1.324978633e-12
-1.252640874e-12
-1.201554469e-12
-1.229725597e-12
-2.151530815e-12
-2.909439761e-12
-2.556493338e-12
-1.96889052e-12
-1.646961148e-12
-1.140067964e-12
-1.114776702e-13
-8.156954675e-13
-1.646497041e-12
-2.820009537e-12
-4.006857645e-12
-2.061516904e-12
-6.84854743e-12
-1.31639595e-11
-8.873953623e-12
-1.431308238e-12
-2.613773768e-12
-6.485492191e-13
-3.199483897e-12
-5.76512351e-13
-1.808130271e-12
-1.772593923e-12
-1.307746437e-12
-9.553783567e-13
-7.12989141e-14
-1.720173254e-13
-2.293483337e-14
-8.61818615e-14
-4.072315469e-13
-3.520904034e-13
-3.225745808e-13
-9.066380778e-14
-1.197516332e-14
-2.937208677e-13
-3.919192604e-12
-9.469734972e-12
-8.136224736e-13
-2.157758351e-12
-3.172477133e-12
-4.13685099e-12
-9.211212963e-09
)


101
(
-4.617263576e-26
-2.956307654e-26
-9.205670908e-25
-7.191024868e-24
-9.985789926e-24
1.110165971e-23
5.28088197e-23
2.787319356e-23
-3.245189182e-22
-4.937244927e-21
-3.423432847e-21
-1.36276618e-20
-4.687034854e-20
-1.564350142e-19
-1.384702758e-19
-1.138031715e-18
-2.602105846e-18
-6.158336117e-18
-1.870679791e-17
-3.435777528e-17
-5.466284994e-17
-1.719154847e-16
-6.482879807e-16
-1.899105547e-15
-4.41951216e-15
-8.281008897e-15
-1.469823157e-14
-2.628350697e-14
-4.419012864e-14
-6.681340668e-14
-8.259202619e-14
-8.746317442e-14
-1.338494785e-13
-3.666227088e-13
-8.062755101e-13
-1.200585373e-12
-1.180184072e-12
-6.440053028e-13
-1.255844119e-13
-2.477060907e-13
-1.302668061e-12
-3.205599206e-12
-5.027550963e-12
-6.150326935e-12
-5.998543634e-12
-5.063906083e-12
-4.099541805e-12
-3.556491034e-12
-3.557214562e-12
-4.347026492e-12
-4.460234528e-12
-5.055162837e-12
-7.314136138e-12
-8.640102542e-12
-6.895622993e-12
-3.567586375e-12
-2.527987027e-12
-1.65531464e-12
-1.659847958e-12
-1.284593611e-12
-2.020016883e-12
-3.663604315e-12
-2.854949738e-12
-2.144009149e-12
-1.735033254e-12
-1.530572613e-12
-2.579748432e-13
-2.194079045e-12
-3.883266934e-12
-5.835956178e-12
-7.397925558e-12
-4.003436059e-12
-1.181091002e-11
-2.370150657e-11
-1.549951536e-11
-3.625538952e-12
-5.483029165e-12
-9.981028604e-13
-6.568831232e-12
-1.860002831e-12
-5.699685058e-12
-2.016967895e-12
-2.348832513e-12
-2.417667434e-12
-8.341279729e-13
-1.632717247e-12
-2.267084785e-13
-1.640455017e-14
-2.595416039e-13
-1.083717005e-12
-3.578968134e-13
-1.876949145e-13
-3.357164762e-14
-6.479179738e-13
-1.054051201e-11
-2.3733739e-11
-2.516253782e-12
-5.863176627e-12
-8.43529702e-12
-1.018523538e-11
5.945811377e-08
)


101
(
-4.553340142e-26
-3.285609811e-26
-1.108393219e-24
-8.929271539e-24
-1.330199039e-23
1.962816493e-23
6.3824382e-23
7.275069328e-23
-2.87896597e-22
-4.573246514e-21
-1.687272938e-21
-1.417657583e-20
-5.606059339e-20
-1.202112334e-19
-1.289729715e-19
-1.030387602e-18
-2.281558253e-18
-4.92503201e-18
-1.710490997e-17
-3.297614119e-17
-4.885509039e-17
-1.362437296e-16
-5.329174617e-16
-1.69840782e-15
-4.27825054e-15
-8.366428454e-15
-1.508319411e-14
-2.722901268e-14
-4.630544212e-14
-7.282813666e-14
-9.509540032e-14
-9.975128914e-14
-1.377091807e-13
-3.221443343e-13
-7.852487821e-13
-1.37240124e-12
-1.649255606e-12
-1.142553178e-12
-1.94607812e-13
-1.594831992e-13
-7.627318327e-13
-2.944557921e-12
-5.69333701e-12
-7.715377619e-12
-8.158233516e-12
-7.007041119e-12
-4.836503062e-12
-3.149521293e-12
-2.838431636e-12
-4.438960359e-12
-6.049972116e-12
-6.496370374e-12
-5.816537091e-12
-6.911308496e-12
-6.99722242e-12
-3.195991578e-12
-2.332546005e-12
-2.322180506e-12
-2.856046512e-12
-2.462678889e-12
-3.264801977e-12
-5.193974503e-12
-4.685071494e-12
-2.772991586e-12
-2.291808565e-12
-2.367915012e-12
-1.901666484e-13
-3.768343772e-12
-7.404266842e-12
-1.100370438e-11
-1.262331778e-11
-6.131610462e-12
-1.940354634e-11
-3.88013964e-11
-2.492080723e-11
-8.021577038e-12
-1.120075569e-11
-3.431788308e-13
-9.074376698e-12
-3.849458328e-12
-9.882067674e-12
-3.718455491e-12
-3.646531302e-12
-3.388555794e-12
-8.298110264e-13
-9.719843631e-13
-3.955231299e-13
-6.588572494e-13
-6.462486958e-13
-1.21752785e-12
-1.107996514e-12
-2.949571333e-13
-4.081492178e-13
-9.611621507e-13
-2.494918027e-11
-4.581624571e-11
-4.828769159e-12
-1.140875656e-11
-1.68362136e-11
-2.097079225e-11
1.384916394e-07
)


101
(
-4.487785399e-26
-3.553310045e-26
-1.300264893e-24
-1.080001606e-23
-1.724227479e-23
2.390601096e-23
7.211684491e-23
1.254986962e-22
-2.292191914e-22
-4.064930282e-21
6.002466949e-22
-1.403100791e-20
-4.565964171e-20
-1.262217103e-19
-1.06299257e-19
-8.345594286e-19
-1.787896206e-18
-3.279889252e-18
-1.402839672e-17
-2.528927948e-17
-3.443602536e-17
-1.072270523e-16
-3.819721304e-16
-1.314326285e-15
-3.721555048e-15
-7.843361563e-15
-1.463201324e-14
-2.673328045e-14
-4.619159449e-14
-7.488524372e-14
-1.039290918e-13
-1.095161135e-13
-1.177922459e-13
-2.594409695e-13
-6.725126966e-13
-1.36982065e-12
-1.90886919e-12
-1.531984591e-12
-4.705428894e-13
-2.640871867e-13
-2.306397479e-13
-2.410402695e-12
-5.537461503e-12
-8.235334058e-12
-9.246571144e-12
-8.351212431e-12
-5.699599888e-12
-3.180536751e-12
-2.453674431e-12
-2.683778589e-12
-5.224652006e-12
-8.572083565e-12
-8.50544871e-12
-5.050033403e-12
-3.582921793e-12
-2.428714992e-13
-1.228735926e-12
-1.474413727e-12
-2.900301925e-12
-3.886894364e-12
-5.501904243e-12
-7.723599943e-12
-8.032576062e-12
-3.660065269e-12
-2.095933052e-12
-3.880337671e-12
-1.932236414e-12
-3.892745777e-12
-1.047057398e-11
-1.801899386e-11
-2.146978372e-11
-1.021081078e-11
-2.837217481e-11
-5.804297578e-11
-3.829291277e-11
-1.409229894e-11
-1.951724672e-11
-2.578638491e-14
-1.731975739e-11
-5.795721877e-12
-1.906660178e-11
-4.864513262e-12
-6.662859529e-12
-3.711019979e-12
-2.830788501e-13
-1.813130483e-13
-3.019700091e-12
-4.97904353e-13
-1.644492391e-12
-2.7235295e-13
-2.813298078e-12
-5.30673158e-13
-7.900311349e-13
-1.509234059e-12
-5.202975005e-11
-8.846597935e-11
-1.049122397e-11
-2.236575301e-11
-3.154587284e-11
-3.714263198e-11
4.620263952e-08
)


101
(
-4.420596008e-26
-3.758736312e-26
-1.494010478e-24
-1.277895427e-23
-2.174780399e-23
2.853310967e-23
7.654106433e-23
1.820122342e-22
-1.541012458e-22
-3.448843406e-21
3.311888979e-21
-7.184830969e-21
-4.527909972e-20
-1.579390734e-19
-9.51131083e-20
-6.154678127e-19
-1.282412893e-18
-1.574502435e-18
-9.207958009e-18
-1.62853155e-17
-2.045917609e-17
-6.786629693e-17
-2.073144512e-16
-8.351351326e-16
-2.764104428e-15
-6.347813484e-15
-1.253122835e-14
-2.345717818e-14
-4.041199113e-14
-6.670058011e-14
-9.814582807e-14
-1.065140542e-13
-1.092014782e-13
-1.869659803e-13
-4.809594173e-13
-1.095544583e-12
-1.824789651e-12
-1.879793279e-12
-7.95062195e-13
-4.946857245e-13
-6.101242822e-13
-1.212814287e-12
-4.837179831e-12
-8.632798583e-12
-1.033477972e-11
-9.395716165e-12
-5.585698316e-12
-1.743672849e-12
-1.209296475e-12
-2.509933293e-12
-4.953513048e-12
-6.770294665e-12
-1.061942101e-11
-8.580963484e-12
-7.855579531e-13
-3.739806293e-12
-7.417878648e-12
-4.130292826e-12
-6.306946365e-13
-4.202573091e-12
-6.257891519e-12
-9.471387086e-12
-1.1880085e-11
-5.160948832e-12
-7.746420598e-13
-8.36390559e-13
-3.103617982e-12
-1.764102173e-12
-1.061210827e-11
-2.293784202e-11
-3.149784969e-11
-1.608977065e-11
-3.817252625e-11
-8.244951143e-11
-5.827927887e-11
-1.912365787e-11
-3.169869892e-11
-4.442702331e-12
-2.925865459e-11
-2.265156925e-11
-2.563620348e-11
-6.773612487e-12
-8.319726781e-12
-5.278054494e-12
-6.516751182e-13
-3.37466429e-15
-8.654232403e-12
-1.616329371e-12
-3.551205221e-12
-1.129586795e-12
-1.130130739e-11
-2.025621248e-12
-2.359830714e-12
-3.356241566e-12
-9.864315142e-11
-1.600121563e-10
-2.135301892e-11
-4.028750949e-11
-5.28984682e-11
-7.309297466e-11
-1.979760191e-07
)


101
(
-4.351768799e-26
-3.907507931e-26
-1.686519443e-24
-1.484963504e-23
-2.685278217e-23
3.288693897e-23
7.73733369e-23
2.455699037e-22
-5.235911115e-23
-2.37033252e-21
5.518024483e-21
-2.814021165e-21
-4.046047454e-20
-1.720111768e-19
-9.240797866e-20
-3.856093282e-19
-8.226570307e-19
2.83539353e-19
-3.582783337e-18
-3.657888999e-18
-1.760779547e-18
-4.01011452e-17
-7.467624527e-17
-3.644448136e-16
-1.496835392e-15
-3.985336521e-15
-8.985394504e-15
-1.845286358e-14
-3.162583509e-14
-5.289670384e-14
-8.526309938e-14
-9.428735685e-14
-9.391541315e-14
-1.342443956e-13
-3.212955178e-13
-8.073922617e-13
-1.531788681e-12
-1.788576035e-12
-9.755693423e-13
-3.48504202e-13
-8.815623077e-13
-2.270786837e-13
-3.718660083e-12
-7.473309087e-12
-9.884934144e-12
-1.006817278e-11
-7.35901498e-12
-2.169397341e-12
-3.498445145e-12
-2.184859317e-12
-3.423156258e-12
-8.56843599e-12
-1.04324029e-11
-1.080050498e-11
-3.713059358e-12
-6.01761585e-12
-1.234785776e-11
-1.281373068e-11
-7.558890297e-12
-5.974084712e-13
-4.473664633e-12
-7.853598551e-12
-1.187806339e-11
-5.026799963e-12
-5.638911587e-12
-1.201942622e-11
-9.758279247e-12
-6.529263037e-12
-1.040411774e-11
-2.49947144e-11
-3.764963745e-11
-2.386744554e-11
-4.784297135e-11
-1.091064479e-10
-8.219424374e-11
-2.087950488e-11
-4.148232029e-11
-9.290859694e-12
-2.97245536e-11
-3.375555377e-11
-2.720498095e-11
-7.115273353e-12
-1.076892305e-11
-1.342837151e-11
-1.474383091e-11
-2.849919961e-12
-1.148485464e-11
-5.294985437e-12
-1.647550642e-12
-3.648781898e-12
-5.468267775e-12
-3.669717074e-12
-2.84934458e-12
-7.119555675e-12
-1.698604232e-10
-2.562876542e-10
-3.397076828e-11
-5.723665179e-11
-7.64681486e-11
-1.028588221e-10
3.663235189e-07
)


101
(
-4.281319411e-26
-3.998853062e-26
-1.875502345e-24
-1.698340295e-23
-3.247849479e-23
3.69860696e-23
7.334334074e-23
3.121667157e-22
7.02473296e-23
-1.546381363e-21
7.196580542e-21
2.962355727e-21
-3.08194515e-20
-1.750095373e-19
-1.125881856e-19
-1.696582223e-19
-4.72286195e-19
1.822046925e-18
2.347318449e-18
9.611513517e-18
1.907560212e-17
-1.494341641e-17
1.863004903e-17
2.176835915e-17
-2.840116425e-16
-1.299406877e-15
-4.453247833e-15
-1.189320346e-14
-2.031013929e-14
-3.562629496e-14
-6.502013164e-14
-7.744829434e-14
-6.705956143e-14
-8.704256566e-14
-1.733175311e-13
-4.521243597e-13
-9.744374113e-13
-1.426057057e-12
-1.18817609e-12
-2.181126823e-13
-1.231969669e-12
-1.058280483e-12
-2.125062875e-12
-6.520495775e-12
-9.56517646e-12
-9.309162073e-12
-6.541769291e-12
-3.008141613e-12
-2.511317191e-12
-4.089217049e-12
-2.733080309e-12
-4.003869857e-12
-1.033097651e-11
-1.173121123e-11
-6.231477718e-12
-4.6074437e-12
-1.292722599e-11
-2.148857837e-11
-1.840176244e-11
-5.523575888e-12
-1.865115709e-12
-6.09108789e-12
-8.093812544e-12
-4.181300206e-12
-1.120418278e-11
-2.706569119e-11
-3.141133575e-11
-2.520645191e-11
-2.034797589e-11
-2.822457773e-11
-3.967259096e-11
-2.721742627e-11
-5.202464841e-11
-1.312755588e-10
-1.045689201e-10
-2.157599186e-11
-4.861693017e-11
-1.071129588e-12
-3.893451574e-11
-3.152614773e-11
-3.183891888e-11
-3.08088225e-12
-1.038955641e-12
-5.660781055e-12
-4.436360316e-11
-2.751675711e-12
-7.278746532e-12
-1.44428919e-11
-5.797845623e-12
-2.015918056e-12
-2.109141408e-11
-8.789971226e-12
-3.275658937e-12
-9.987859599e-12
-2.6807558e-10
-3.738332058e-10
-4.790141024e-11
-7.875477328e-11
-8.32348392e-11
-1.381381961e-10
4.529487518e-07
)


101
(
-4.209273355e-26
-4.036062404e-26
-2.058111977e-24
-1.915191364e-23
-3.854909813e-23
4.06514756e-23
6.411108015e-23
3.809661672e-22
2.236376721e-22
-5.940055958e-22
9.000804485e-21
9.95974301e-21
-1.500563117e-20
-1.435115778e-19
-1.625913682e-19
1.673152218e-20
-3.34036119e-19
3.041941053e-18
7.294098211e-18
2.288422512e-17
4.319289904e-17
-5.992647178e-19
6.73604408e-17
3.163624605e-16
7.614753531e-16
1.159819606e-15
5.051160283e-16
-4.341259096e-15
-8.429113303e-15
-1.669984237e-14
-3.918972545e-14
-4.925044406e-14
-5.281173712e-14
-6.630081992e-14
-9.023989713e-14
-2.123911389e-13
-5.422727554e-13
-8.075890013e-13
-7.860502274e-13
-9.453375643e-14
-9.532171837e-13
-1.254128452e-12
-7.608103337e-13
-4.301707766e-12
-7.409120852e-12
-8.900285798e-12
-7.333077597e-12
-2.409554984e-12
-3.701198923e-12
-5.292910674e-12
-3.516636293e-12
-1.099968705e-12
-3.67779682e-12
-8.701928039e-12
-5.547321473e-12
-3.006307388e-12
-1.18619106e-11
-1.699170054e-11
-2.181491618e-11
-1.51253893e-11
-1.737005694e-12
-2.87236338e-12
-6.958033363e-12
-8.824560139e-12
-5.77091411e-12
-3.132381483e-11
-5.127002507e-11
-4.875037849e-11
-4.116393583e-11
-3.845395879e-11
-4.022122527e-11
-2.58728515e-11
-5.512779712e-11
-1.494960201e-10
-1.290912717e-10
-1.604383667e-11
-5.691496922e-11
-1.587810916e-11
-6.551036644e-11
-3.25398081e-11
-3.598102352e-11
-2.300580028e-11
-6.324846595e-12
-8.221715781e-13
-4.670355281e-11
-1.544370308e-11
-2.688469674e-12
-4.054647173e-12
-4.291717441e-11
-4.319901595e-12
-2.384476338e-12
-1.025888181e-11
-8.196453179e-12
-2.219103577e-11
-3.830932412e-10
-5.150588012e-10
-6.77291256e-11
-1.265071088e-10
-1.119271767e-10
-1.703714134e-10
8.285798896e-07
)


101
(
-4.135579701e-26
-4.026679708e-26
-2.231797575e-24
-2.13247529e-23
-4.497058355e-23
4.372070134e-23
4.868404184e-23
4.489720196e-22
7.09027999e-22
4.339894648e-22
1.099163231e-20
1.819275947e-20
5.714324567e-21
-1.139933455e-19
-2.035049938e-19
1.307767038e-19
-3.887181316e-19
3.416349192e-18
1.153269302e-17
3.067218097e-17
5.992614549e-17
1.927521903e-17
8.703190616e-17
4.924621254e-16
1.530773614e-15
3.318923492e-15
5.27744476e-15
3.252810731e-15
3.135266775e-15
8.375282966e-16
-1.512686798e-14
-2.212935516e-14
-2.27205249e-14
-3.350453561e-14
-3.274507881e-14
-7.051695827e-14
-1.716850287e-13
-1.787043253e-13
-4.267780145e-13
-2.106916491e-13
-4.906040755e-13
-1.45350401e-12
-4.599025524e-13
-2.441981423e-12
-5.946943937e-12
-7.288765128e-12
-5.649487025e-12
-3.233660998e-12
-7.623319372e-13
-5.153477738e-12
-6.730536291e-12
-7.766608581e-13
-2.925293617e-12
-3.727875759e-12
-1.3146228e-12
-4.436824166e-12
-1.37166525e-11
-1.702574493e-11
-2.036654841e-11
-1.486431691e-11
-4.335397048e-13
-7.442495533e-12
-7.386131052e-12
-9.063467418e-12
-9.251847192e-12
-1.322179731e-11
-5.14663178e-11
-6.695903309e-11
-6.191734952e-11
-5.488224372e-11
-4.112509534e-11
-2.059657953e-11
-5.361460804e-11
-1.42211473e-10
-1.310297356e-10
-1.535858583e-11
-5.704070651e-11
-2.116773045e-11
-8.200284367e-11
-4.329661194e-11
-4.223718942e-11
-6.482558613e-11
-1.963450108e-11
-1.647290941e-12
-3.010322725e-11
-5.072276657e-11
-3.454322335e-12
-1.597683451e-11
-3.938032635e-11
-7.368738437e-12
-2.868549904e-12
-1.07290605e-11
-1.328394138e-11
-3.266060928e-11
-4.946321757e-10
-6.253740176e-10
-9.225374727e-11
-1.963382312e-10
-1.511268406e-10
-1.951049229e-10
7.8278806e-07
)


101
(
-4.060235109e-26
-3.974735558e-26
-2.394292942e-24
-2.346679496e-23
-5.15915831e-23
4.632330128e-23
2.611725409e-23
5.135909861e-22
9.508724019e-22
1.530419552e-21
1.306602479e-20
2.702196391e-20
3.174867668e-20
-6.869083647e-20
-1.58478828e-19
9.62880282e-20
-7.069373569e-19
3.389118658e-18
1.399820272e-17
3.670794716e-17
7.672182548e-17
1.709693928e-17
3.859716547e-17
4.936811228e-16
1.924714771e-15
4.952946516e-15
9.220008513e-15
1.013630109e-14
1.321385531e-14
1.421439368e-14
3.663520186e-15
2.710740595e-15
-3.534231821e-15
-2.37325103e-14
-1.142137283e-14
-1.307826648e-14
-7.040118245e-14
-1.302812592e-13
-3.036376273e-13
-1.837005422e-13
-2.704168565e-13
-5.005994279e-13
-3.529350417e-13
-8.059567001e-13
-2.521839907e-12
-5.418064501e-12
-5.705857019e-12
-1.924976844e-12
-1.658027309e-12
-1.778690318e-12
-3.466270675e-12
-7.370021143e-12
-1.347817174e-12
-6.595655757e-12
-8.547751427e-12
-6.704109328e-12
-1.400548298e-11
-2.298736315e-11
-2.361159706e-11
-1.963664126e-11
-1.381680764e-12
-1.162476121e-11
-1.390720387e-11
-1.443824632e-11
-2.202785627e-11
-1.699517112e-11
-1.967408071e-11
-5.478380049e-11
-6.352524649e-11
-7.161546326e-11
-4.831503037e-11
-1.219615152e-11
-5.659985062e-11
-1.316473028e-10
-1.057414258e-10
-3.562911775e-11
-5.96688623e-11
-3.292630093e-11
-8.960059061e-11
-4.734390835e-11
-5.627723571e-11
-7.823556056e-11
-6.192904378e-11
-3.900727566e-13
-6.383212912e-12
-6.601749802e-11
-6.904784095e-12
-8.959740216e-12
-2.321606621e-11
-1.205113631e-11
-4.141797606e-12
-2.446460599e-11
-1.137243506e-11
-3.982893523e-11
-5.581757313e-10
-6.824711669e-10
-1.029182529e-10
-2.051984134e-10
-9.793257608e-11
-1.281643691e-10
3.503387185e-07
)


101
(
-3.983236351e-26
-3.886051602e-26
-2.543030721e-24
-2.554689288e-23
-5.830269603e-23
4.81981345e-23
-3.61478495e-24
5.696748935e-22
1.205315484e-21
2.697612553e-21
1.514083931e-20
3.629767246e-20
6.293960437e-20
-5.42763512e-21
-6.80276477e-20
-7.573108923e-20
-1.30638086e-18
2.649698951e-18
1.376785033e-17
3.626918748e-17
7.893940277e-17
2.897727756e-17
-7.756102044e-18
3.607212597e-16
1.866412162e-15
5.828111862e-15
1.218428784e-14
1.692428645e-14
2.276320153e-14
2.475909567e-14
1.407587748e-14
1.518935401e-14
1.113717959e-14
-9.197141334e-15
-1.650535492e-15
-2.376350189e-14
-8.731095847e-14
-2.925666411e-13
-6.131687743e-13
-4.563883203e-13
-1.096318974e-13
-2.323844488e-13
-3.531876017e-13
-7.198509016e-13
-1.235316337e-12
-2.563876558e-12
-2.975046665e-12
-2.168465845e-12
-5.597618749e-13
-3.200384935e-12
-1.725256693e-12
-2.607513233e-12
-4.725427136e-12
-5.318174938e-12
-1.291074227e-11
-1.450722221e-11
-1.373486042e-11
-1.757706152e-11
-2.357225068e-11
-2.110735964e-11
-9.332514452e-12
-6.23727569e-12
-1.264857829e-11
-1.571633596e-11
-2.508701113e-11
-3.638792143e-11
-2.115021398e-11
-2.234639367e-11
-5.038604271e-11
-6.490766113e-11
-4.977645931e-11
-3.322237482e-12
-6.730415434e-11
-1.428206466e-10
-1.092523777e-10
-5.926607336e-11
-8.162621672e-11
-3.456458955e-11
-9.564069153e-11
-4.746567495e-11
-7.302881474e-11
-4.420181337e-11
-6.635429092e-11
-1.342585863e-11
-1.406245111e-11
-5.307238814e-11
-2.886671987e-11
4.514131927e-14
-2.688514247e-11
-5.489551629e-11
-1.481005415e-12
-6.292218239e-11
-1.849296112e-11
-3.403922984e-11
-5.310634363e-10
-5.851651088e-10
-6.304693314e-11
-1.642913876e-10
-5.043800912e-11
2.289430608e-12
2.312090588e-07
)


101
(
-3.904580256e-26
-3.768053379e-26
-2.676156856e-24
-2.75345166e-23
-6.50043904e-23
4.895919092e-23
-3.877253966e-23
6.243567625e-22
1.492188693e-21
3.949669501e-21
1.735390776e-20
4.622740516e-20
9.706240146e-20
7.342423357e-20
7.609191931e-20
1.127568097e-19
-2.013788851e-18
6.702546741e-19
1.191579125e-17
2.764526019e-17
6.655685613e-17
2.489319354e-17
-5.543537117e-17
2.21604478e-16
1.609674248e-15
5.919226471e-15
1.361843954e-14
2.111758514e-14
3.030726641e-14
3.141116773e-14
1.449754705e-14
9.334714042e-15
8.633526452e-15
4.832423648e-15
1.538576985e-14
-2.005396886e-14
-1.533533921e-14
-1.276697943e-13
-4.226727541e-13
-7.283344587e-13
-2.411648796e-13
-2.316380845e-13
-6.527563237e-13
-8.071071069e-13
-1.200020645e-13
-6.253578664e-13
-1.531465783e-12
-1.201179075e-12
-1.436934463e-12
-1.32507939e-12
-1.31123329e-12
-3.736033772e-12
-1.935477532e-12
-4.39267817e-12
-7.758886143e-12
-1.514607395e-11
-2.233128604e-11
-1.740483736e-11
-1.88130995e-11
-1.636645272e-11
-8.741967979e-12
-2.144587248e-13
-7.90031024e-12
-9.718089002e-12
-1.834309257e-11
-3.338101711e-11
-4.148635388e-11
-1.78965592e-11
-1.875270986e-11
-4.714000122e-11
-3.62778418e-11
-7.407198099e-12
-6.725611218e-11
-1.446865628e-10
-1.360475541e-10
-2.639813378e-11
-8.775569543e-11
-1.654670669e-11
-8.69692262e-11
-5.718836311e-11
-5.707580042e-11
-9.87818519e-12
-3.078880966e-11
-2.281630381e-11
-2.775184981e-11
-1.523471885e-11
-3.604927733e-11
-4.488775605e-12
-1.22236988e-11
-3.125394707e-11
-3.170958557e-12
-3.124820879e-11
-2.2247879e-11
-1.823617648e-11
-3.488250595e-10
-3.586602589e-10
-3.942320658e-11
-6.639905016e-11
2.987503049e-11
1.092676389e-10
-2.442378608e-07
)


101
(
-3.824263301e-26
-3.627713174e-26
-2.791728792e-24
-2.938506406e-23
-7.137972942e-23
4.961331397e-23
-4.49698289e-23
6.621554057e-22
1.795342975e-21
5.20994215e-21
1.956626743e-20
5.574206518e-20