/*--------------------------------*- C++ -*----------------------------------*\
| =========                 |                                                 |
| \\      /  F ield         | OpenFOAM: The Open Source CFD Toolbox           |
|  \\    /   O peration     | Version:  2.3.1                                 |
|   \\  /    A nd           | Web:      www.OpenFOAM.org                      |
|    \\/     M anipulation  |                                                 |
\*---------------------------------------------------------------------------*/
FoamFile
{
    version     2.0;
    format      ascii;
    class       dictionary;
    location    "constant";
    object      rHO2;
}
// * * * * * * * * * * * * * * * * * * * * * * * * * * * * * * * * * * * * * //

rHO2_table
101
(

101
(
-0.01625682009
-0.453772083
-0.898543113
-0.5210830322
0.8096537755
2.833568646
5.151818772
7.444244027
9.221001672
10.34176782
10.50506571
9.629058097
7.646291264
4.649616482
0.6266792674
-4.298262982
-9.931105755
-15.96578563
-22.48823402
-28.78935688
-35.1277072
-41.44273634
-47.27800032
-52.84864325
-58.23716295
-63.41146971
-68.32950817
-72.96119379
-77.18432833
-80.96103408
-84.21753042
-86.9448773
-89.23159481
-90.68675276
-91.6800416
-92.20078121
-128.1381415
-188.5789811
-183.7037228
-177.7446229
-171.0258904
-163.8781868
-156.321056
-148.5469366
-140.7426202
-132.9756768
-125.3539395
-117.9711599
-110.8682333
-104.1237199
-97.75970251
-91.79851236
-86.24090524
-81.08741348
-76.32598831
-71.91725547
-67.86650868
-64.10136848
-60.61525912
-57.35596692
-54.30888842
-51.421611
-48.67284514
-46.04405218
-43.52707068
-41.0820347
-38.7058555
-36.39056959
-34.12777685
-31.91608294
-29.75611186
-27.6504441
-25.60517717
-23.64150968
-24.84983159
-24.65358845
-21.88774534
-19.3310033
-16.97279119
-14.80509296
-12.82608857
-11.03626192
-9.434910923
-9.437705801
-8.706084335
-6.817829993
-5.266523369
-3.999745097
-2.984351735
-2.851720465
-1.927180267
-1.174581859
-0.6877263392
-0.4234292001
-0.203843137
-0.04292889824
-4.881481254e-13
2.23437931e-28
1.139444274e-22
-7.533083489e-23
2.289709955e-21
)


101
(
-0.01621410087
-0.4477507652
-0.9001788237
-0.5900941001
0.6035760798
2.426103218
4.495637516
6.514038549
8.052272604
8.98500892
9.087237562
8.309248703
6.645453775
4.233741883
1.134174089
-2.510466267
-6.493130786
-10.5248052
-14.63453135
-18.32746395
-21.71858573
-24.85356577
-27.48807107
-29.76391082
-31.83507541
-33.77545682
-35.62259375
-37.40450306
-39.09519753
-40.68557611
-42.14659345
-43.46819753
-44.67774067
-45.63242651
-46.44307617
-47.10850986
-47.85143054
-48.73951273
-49.15006756
-49.15514902
-48.92779518
-48.56718139
-48.07989307
-47.49756623
-46.84884685
-46.1322868
-45.3704077
-44.56248896
-43.72522474
-42.85819189
-41.97352605
-41.07068564
-40.15153153
-39.2150472
-38.2667628
-37.3079346
-36.32807567
-35.33870618
-34.32616872
-33.295072
-32.23954398
-31.16135527
-30.05943457
-28.93230314
-27.78279797
-26.61348519
-25.42530971
-24.22051393
-23.00090073
-21.77324027
-20.54111923
-19.30997704
-18.08520061
-16.87838665
-15.73655117
-14.62117986
-13.46914042
-12.2961335
-11.13463981
-10.00915629
-8.935131616
-7.917704498
-6.964388538
-6.101018737
-5.291240519
-4.501838642
-3.753495224
-3.07363585
-2.469971488
-1.95388483
-1.508049
-1.106284581
-0.7707830151
-0.5088020609
-0.3029860142
-0.1505090384
-0.04685715455
-0.04840227625
-0.05007109916
-0.05245184073
-0.05415929952
)


101
(
-0.0161714522
-0.4416850557
-0.9011227421
-0.6578751114
0.3923342977
1.9913066
3.765372095
5.427115193
6.595348428
7.151243682
6.925737267
5.886051161
4.062651392
1.612173458
-1.367574437
-4.736620678
-8.300927317
-11.80104444
-15.24476984
-18.27073338
-20.92776158
-23.29435884
-25.22840003
-26.82455945
-28.2269754
-29.52913071
-30.78227728
-32.01572361
-33.21561878
-34.37070845
-35.45273146
-36.44535274
-37.36587679
-38.10564338
-38.74001303
-39.26199741
-39.76410768
-40.35159345
-40.74000523
-40.81396343
-40.64948035
-40.34197826
-39.92179371
-39.42373571
-38.87095595
-38.26398474
-37.62110181
-36.93939193
-36.2335935
-35.5023851
-34.75587619
-33.99355798
-33.21862794
-32.43166575
-31.63389369
-30.8268942
-30.00400478
-29.17615361
-28.33397734
-27.48076511
-26.61333842
-25.73218263
-24.83640557
-23.92654234
-23.00381369
-22.0691385
-21.12299392
-20.16733082
-19.20362866
-18.23451921
-17.26327629
-16.29205267
-15.32547572
-14.3671835
-13.43578185
-12.53625367
-11.64643757
-10.74877535
-9.842723306
-8.943866686
-8.072783471
-7.239681242
-6.44858801
-5.708877532
-5.024223633
-4.378953854
-3.755527188
-3.16481584
-2.627049706
-2.148711029
-1.727878955
-1.359255944
-1.027643478
-0.7496888185
-0.5260665328
-0.3339320033
-0.1752975533
-0.1871272384
-0.1988843548
-0.2148533252
-0.2263623775
)


101
(
-0.01612887406
-0.4355735328
-0.9008714026
-0.7187599357
0.2018335176
1.603979949
3.126755727
4.497778663
5.383204831
5.674554853
5.251745219
4.096904932
2.265978649
-0.07337037047
-2.801443982
-5.785624698
-8.851883425
-11.77465325
-14.55652978
-16.93095113
-18.92327812
-20.62225007
-21.95670732
-23.00626904
-23.89942842
-24.73399688
-25.57197154
-26.44569541
-27.34582578
-28.26033143
-29.15905391
-30.01685619
-30.84182062
-31.53914467
-32.16867337
-32.71943343
-33.21246625
-33.74388041
-34.18485205
-34.41577198
-34.42976
-34.29004553
-34.03040993
-33.68923163
-33.29168938
-32.84152125
-32.35269391
-31.82389603
-31.26428152
-30.67522157
-30.06295824
-29.42926412
-28.77756691
-28.10912616
-27.42626867
-26.733354
-26.01906725
-25.29825861
-24.56481339
-23.82116276
-23.0676473
-22.30517096
-21.53313672
-20.75289246
-19.96562506
-19.17160371
-18.37255439
-17.56787296
-16.76285296
-15.95706157
-15.15213693
-14.3490379
-13.55216622
-12.76219603
-11.98557954
-11.23057427
-10.4952256
-9.769047737
-9.040980192
-8.308756261
-7.584800283
-6.882729111
-6.210219536
-5.570356383
-4.968084081
-4.404130624
-3.868201091
-3.348007937
-2.856995042
-2.409016368
-2.005290653
-1.646385165
-1.324251175
-1.035846042
-0.7943763225
-0.5723006352
-0.3663007903
-0.3985056456
-0.4307706708
-0.4745602306
-0.5077575281
)


101
(
-0.01608636644
-0.4294200705
-0.8994424811
-0.7728634503
0.03141643942
1.261609977
2.572953476
3.711015296
4.38782638
4.507325423
3.991980052
2.83576055
1.111741998
-1.008623957
-3.395185441
-5.925530793
-8.450078472
-10.7782031
-12.91638825
-14.66889926
-16.05960797
-17.17657169
-17.99545648
-18.59774137
-19.09588372
-19.58471312
-20.13197511
-20.77224261
-21.49846878
-22.29799708
-23.13965926
-23.98829699
-24.8423654
-25.60990057
-26.33954532
-27.01775118
-27.64374286
-28.27311598
-28.85386727
-29.29196075
-29.55159158
-29.65815053
-29.63412766
-29.51590534
-29.33122546
-29.08789305
-28.7967561
-28.45727428
-28.0762568
-27.65907268
-27.20758368
-26.72338423
-26.20970664
-25.67077377
-25.10687653
-24.52000002
-23.91048454
-23.28410765
-22.64027054
-21.9731474
-21.29364925
-20.60464446
-19.90172908
-19.19236416
-18.47710717
-17.74852913
-17.01712378
-16.2820377
-15.54829615
-14.81992413
-14.0872239
-13.36115603
-12.64366462
-11.93799266
-11.24259834
-10.56351391
-9.900922243
-9.258976106
-8.627556589
-7.998227069
-7.371090524
-6.753123914
-6.157780101
-5.588286151
-5.0460663
-4.532895294
-4.048744995
-3.583289709
-3.131946607
-2.70864556
-2.319856739
-1.966651856
-1.647517669
-1.354570788
-1.09913841
-0.8553583861
-0.6136885672
-0.6767849964
-0.7394857845
-0.8267144055
-0.8748028306
)


101
(
-0.0160439293
-0.4232293481
-0.8969041247
-0.820609302
-0.1204010606
0.9602516718
2.095293586
3.050150635
3.58059502
3.603828791
3.079113069
2.008989225
0.4765724288
-1.348408545
-3.334171742
-5.370265574
-7.332857379
-9.066497415
-10.58675067
-11.75180855
-12.59547819
-13.20079993
-13.5721239
-13.80010212
-13.9843293
-14.21178691
-14.55240439
-15.04231188
-15.6757563
-16.43945857
-17.30015258
-18.22086618
-19.18605742
-20.10093505
-21.00622
-21.88214203
-22.72514432
-23.5592703
-24.35941114
-25.0634291
-25.62833109
-26.05463723
-26.34815024
-26.53983678
-26.65606298
-26.70687194
-26.70426925
-26.65156726
-26.55399863
-26.41622953
-26.23462411
-26.00684956
-25.73514404
-25.42969575
-25.09128713
-24.70568401
-24.2791024
-23.82284556
-23.34775219
-22.80911747
-22.21865231
-21.62606914
-20.97783188
-20.31375164
-19.63956466
-18.92424971
-18.18812982
-17.43222481
-16.64786302
-15.89723457
-15.10859596
-14.31920574
-13.52875199
-12.75846305
-11.99660693
-11.24992148
-10.52230887
-9.818820796
-9.128623309
-8.462573242
-7.811544581
-7.179596096
-6.562928612
-5.980211449
-5.427266501
-4.90614648
-4.413736435
-3.952305115
-3.509139363
-3.088125803
-2.697139463
-2.338218888
-2.012365335
-1.71170781
-1.442698754
-1.179643741
-0.909024569
-1.023632894
-1.127395208
-1.325024533
-1.420255129
)


101
(
-0.01600156265
-0.4170060482
-0.8933269816
-0.862418015
-0.2550399276
0.6962278503
1.685857353
2.500225489
2.936268961
2.924364278
2.455534407
1.537710586
0.2580253063
-1.219449227
-2.768031373
-4.290245811
-5.686965841
-6.83746209
-7.76913143
-8.381810963
-8.724668845
-8.874992161
-8.852134212
-8.758200244
-8.684628912
-8.707443442
-8.895740215
-9.287619364
-9.878631513
-10.65508841
-11.58231929
-12.62260941
-13.75185261
-14.8701348
-16.00849728
-17.14466527
-18.27301745
-19.40285338
-20.51814704
-21.57991213
-22.55308637
-23.42428707
-24.18490081
-24.86231645
-25.47621987
-26.0328133
-26.54485766
-27.03055635
-27.49294745
-27.91793577
-28.3104301
-28.62639203
-28.87075809
-29.05866869
-29.21964577
-29.27342513
-29.21669568
-29.10956351
-28.93351371
-28.63406717
-28.2337287
-27.79204394
-27.225786
-26.5574905
-25.85067274
-25.0639751
-24.20182298
-23.28507623
-22.28933644
-21.28882116
-20.25091398
-19.19260322
-18.10978088
-17.03547335
-15.96229776
-14.89834554
-13.86992726
-12.85921268
-11.86691839
-10.91643242
-10.00150074
-9.142566484
-8.306734607
-7.520439776
-6.789170812
-6.104464676
-5.464135581
-4.871881034
-4.328096509
-3.824754756
-3.355332877
-2.926733906
-2.546002793
-2.199396936
-1.891368686
-1.584125516
-1.268901426
-1.522741726
-1.702947619
-2.004535376
-2.079499238
)


101
(
-0.01595926645
-0.4107546824
-0.8887791227
-0.8986890749
-0.3738218432
0.4661946416
1.33759096
2.048118133
2.432784061
2.4346558
2.072284653
1.355771188
0.3715915822
-0.7250348655
-1.816880251
-2.820496636
-3.659358749
-4.245431455
-4.619294301
-4.713411336
-4.594328467
-4.335023064
-3.960722119
-3.58305787
-3.290465012
-3.146593618
-3.216436037
-3.540608733
-4.117518698
-4.934344355
-5.956346972
-7.146210781
-8.477824715
-9.848264031
-11.28025021
-12.75358348
-14.26440551
-15.81786457
-17.40818846
-19.01446876
-20.61220356
-22.182002
-23.71380163
-25.22291288
-26.71404318
-28.17905886
-29.60758574
-31.02140784
-32.43540384
-33.80010616
-35.12634247
-36.28729662
-37.32313405
-38.23859853
-39.05339757
-39.67264392
-40.09505714
-40.34383013
-40.43110734
-40.28371004
-39.9355399
-39.48649212
-38.84837973
-38.0470185
-37.11505942
-36.05501493
-34.84697523
-33.58256971
-32.19771865
-30.76806448
-29.2953986
-27.75924004
-26.18744265
-24.61014026
-23.04879734
-21.486386
-19.97208645
-18.48890442
-17.04832179
-15.65392885
-14.29732908
-13.01094439
-11.79824378
-10.63813268
-9.569749417
-8.572746374
-7.637157222
-6.771342328
-5.989410125
-5.278514052
-4.62887849
-4.023382834
-3.500564549
-3.034062154
-2.62103787
-2.212864256
-1.790268881
-2.238760152
-2.459839562
-2.724841653
-2.62643091
)


101
(
-0.01591704071
-0.404479604
-0.8833256225
-0.9298011098
-0.4779814533
0.2670912549
1.044191406
1.682340179
2.050875075
2.105160673
1.887717325
1.407938522
0.7476982828
0.05107732821
-0.5771079291
-1.068012785
-1.365380452
-1.41089681
-1.258388857
-0.8661368709
-0.3178460792
0.3149573221
1.005764793
1.639177955
2.124794636
2.410406676
2.438312218
2.165276745
1.58714547
0.712892692
-0.4255445838
-1.794202937
-3.371709994
-5.060855678
-6.885156784
-8.828043363
-10.89003017
-13.08351488
-15.42407452
-17.89199078
-20.47403337
-23.14739447
-25.85696475
-28.59114849
-31.33276971
-34.05355337
-36.70672802
-39.28408194
-41.83028226
-44.22135814
-46.41716516
-48.33848124
-50.03469215
-51.41696768
-52.61859519
-53.55806315
-54.12305812
-54.39253991
-54.40907175
-54.11333385
-53.5385897
-52.78837624
-51.76549781
-50.57421087
-49.22029033
-47.73615838
-46.09865038
-44.34958186
-42.47915303
-40.50580374
-38.5172032
-36.47371169
-34.45279206
-32.42509932
-30.39318889
-28.38016008
-26.4161803
-24.49556207
-22.63642153
-20.83514507
-19.10358928
-17.43047587
-15.86256832
-14.35117613
-12.95411878
-11.63049145
-10.40797273
-9.255703206
-8.210603046
-7.257381103
-6.385816935
-5.569320635
-4.865665254
-4.2410201
-3.680345022
-3.13414749
-2.526642756
-3.040184494
-3.140395744
-3.065513741
-2.502463441
)


101
(
-0.01587488536
-0.398184968
-0.8770285249
-0.9561099887
-0.5686704725
0.09608789002
0.7999064254
1.392603767
1.773582303
1.910196445
1.866069347
1.64743065
1.328217194
1.039828043
0.87279769
0.8811419943
1.10317887
1.570988727
2.218257612
3.066347134
4.015825561
4.993599048
5.97196798
6.84026301
7.502711048
7.915144118
8.02749849
7.794065589
7.202184301
6.252246425
4.967388652
3.371488193
1.472134709
-0.6476550966
-3.022870607
-5.643844228
-8.514703653
-11.65355822
-15.09613266
-18.78053975
-22.67287309
-26.71179649
-30.80928549
-34.89588758
-38.92358808
-42.83898441
-46.56704495
-50.08693036
-53.39316401
-56.35134443
-58.95194559
-61.16078307
-62.98102872
-64.36517553
-65.42847824
-66.09458779
-66.37925624
-66.2332906
-65.81444484
-65.08118518
-64.02624268
-62.78785352
-61.27949025
-59.60247099
-57.77086978
-55.81046333
-53.73347135
-51.54365919
-49.26645535
-46.92946058
-44.58145776
-42.21287891
-39.84608846
-37.50692754
-35.19780739
-32.93013045
-30.70436035
-28.53773747
-26.45598247
-24.43517897
-22.48565252
-20.62055925
-18.84811993
-17.15741417
-15.5616727
-14.05305137
-12.65776091
-11.33478331
-10.121303
-9.006956974
-7.980768282
-7.026772101
-6.18329061
-5.433629133
-4.75423285
-4.081265141
-3.343354286
-3.607417431
-3.304430415
-2.507331501
-1.107655308
)


101
(
-0.01583280045
-0.3918747575
-0.8699467543
-0.977948889
-0.646949929
-0.04940337297
0.5994912175
1.169606105
1.586133033
1.82789176
1.977013016
2.034736769
2.064433248
2.183891491
2.468313264
2.956926226
3.672115759
4.62359445
5.733747877
7.00804614
8.333797388
9.634494338
10.87924901
11.96561362
12.79460756
13.32447988
13.50979333
13.3016026
12.67576258
11.61772502
10.133057
8.227247856
5.887165717
3.174894273
0.04399852242
-3.494307444
-7.434394736
-11.77603895
-16.52361557
-21.546099
-26.77629443
-32.09579544
-37.3867373
-42.52055357
-47.43306227
-52.05794051
-56.29666886
-60.11957534
-63.50388902
-66.38543086
-68.77877566
-70.69178481
-72.12246474
-73.05459241
-73.51589124
-73.59477161
-73.32094759
-72.62715187
-71.63949847
-70.37207879
-68.81325574
-67.07017165
-65.13940203
-63.05733355
-60.84469124
-58.5321483
-56.17112238
-53.73198532
-51.24962666
-48.73297186
-46.21802138
-43.7136044
-41.23718396
-38.80099681
-36.41268261
-34.07465956
-31.79411503
-29.5846616
-27.46062558
-25.41298764
-23.4407864
-21.55719281
-19.76166639
-18.05200406
-16.43047764
-14.8931499
-13.46393115
-12.11834201
-10.87223664
-9.732383674
-8.671895565
-7.689300281
-6.809009016
-6.024071441
-5.317076538
-4.594997834
-3.814321631
-3.468345179
-2.447375323
-0.6436845827
1.658552342
)


101
(
-0.01579078592
-0.3855527757
-0.8621365875
-0.9956338521
-0.7138143145
-0.1717752329
0.4381635462
1.004990736
1.475503826
1.839378324
2.194618574
2.536491438
2.915624078
3.435865157
4.156708324
5.102767999
6.281911668
7.685528715
9.226656847
10.89834255
12.57697796
14.18227847
15.67786394
16.96698298
17.9533518
18.59091037
18.8331428
18.62587856
17.92985102
16.70856583
14.94310335
12.61687981
9.698156741
6.229496661
2.173357567
-2.432046299
-7.541638635
-13.10362336
-19.05480628
-25.19016998
-31.41542108
-37.57437213
-43.52652857
-49.13335789
-54.32357777
-59.01699925
-63.10936605
-66.59505932
-69.50125736
-71.81736687
-73.57319972
-74.80227753
-75.54277797
-75.79121103
-75.5667947
-75.02456244
-74.12475181
-72.90235762
-71.39748652
-69.68764973
-67.75663896
-65.6700295
-63.45317929
-61.1324686
-58.73519971
-56.2744384
-53.78741322
-51.27924096
-48.75877048
-46.23748363
-43.73466381
-41.26384547
-38.83742071
-36.46225888
-34.145111
-31.88854315
-29.69941286
-27.58534167
-25.55383837
-23.60808809
-21.74506002
-19.96664072
-18.27739599
-16.67098881
-15.14719997
-13.706916
-12.36359351
-11.11080042
-9.951214079
-8.889875412
-7.914502027
-7.009175981
-6.195931435
-5.474802101
-4.834803533
-4.178679689
-3.490276841
-2.194113383
-0.2154684251
2.660436168
5.909973955
)


101
(
-0.01574884175
-0.3792226592
-0.8536513106
-1.009463317
-0.7701950543
-0.2732452711
0.3115363707
0.8912246517
1.430281297
1.928323054
2.496632909
3.12450124
3.847832433
4.756643181
5.894925729
7.272947297
8.885255172
10.70827789
12.64842634
14.68918489
16.69652744
18.5877983
20.3188728
21.793775
22.92255231
23.65172969
23.92770348
23.68523193
22.86587426
21.40796477
19.26937279
16.41806519
12.81701701
8.509564088
3.494966276
-2.135082014
-8.268581417
-14.77946585
-21.53172945
-28.30185203
-34.96194839
-41.36025755
-47.34828846
-52.8077663
-57.68078964
-61.90578512
-65.41393307
-68.21000247
-70.34861092
-71.87874258
-72.84653631
-73.30331796
-73.30904947
-72.88922627
-72.07604542
-70.97190526
-69.5815562
-67.9501388
-66.10317376
-64.10287813
-61.95725717
-59.7052007
-57.37280437
-54.98037217
-52.55081584
-50.10175672
-47.64696996
-45.19753528
-42.76083507
-40.34637743
-37.96520575
-35.63007725
-33.35021747
-31.13002149
-28.97389896
-26.88356313
-24.86275479
-22.91718091
-21.05483152
-19.27942733
-17.59137446
-15.9872213
-14.47138492
-13.03907356
-11.68515774
-10.41508922
-9.236560836
-8.145951522
-7.149262043
-6.244532599
-5.431051919
-4.68196432
-4.018344499
-3.441282914
-2.942015079
-2.442267615
-1.95531141
0.4542403988
3.430927473
7.110044401
10.85002515
)


101
(
-0.01570696794
-0.3728878758
-0.84454162
-1.019720096
-0.8169640655
-0.3558654799
0.2155623354
0.8214530627
1.440583257
2.080891697
2.863914063
3.774885842
4.832630987
6.113502034
7.647143301
9.429899063
11.4445825
13.65491088
15.96237653
18.34356329
20.65232399
22.80667112
24.75389073
26.39529188
27.64611855
28.44201987
28.71749696
28.39144804
27.3856702
25.61917455
23.04005071
19.61668361
15.32477555
10.23868565
4.421885105
-1.97148063
-8.762325443
-15.76397578
-22.79209758
-29.64473401
-36.17357195
-42.25474755
-47.76356395
-52.62242352
-56.79399738
-60.24648448
-62.96112536
-64.94998827
-66.28645991
-67.04475722
-67.27194686
-67.04114831
-66.4314531
-65.47670837
-64.21564404
-62.71471276
-61.007692
-59.13393189
-57.11276125
-54.9813698
-52.76033526
-50.47875544
-48.15759296
-45.81316683
-43.4618299
-41.11749086
-38.789094
-36.48077929
-34.19946592
-31.9526736
-29.74756939
-27.59419579
-25.50519045
-23.48162041
-21.52655788
-19.63998882
-17.82086514
-16.07294198
-14.41137844
-12.83560697
-11.35139837
-9.95077888
-8.639987865
-7.416128366
-6.268177881
-5.202760338
-4.231907545
-3.345720839
-2.553206002
-1.850288487
-1.245031913
-0.7001287784
-0.2375287041
0.1457124668
0.4549348441
0.7407096947
0.9567546531
4.369176748
8.079399847
11.97071905
15.51582554
)


101
(
-0.01566516443
-0.3665517284
-0.8348558599
-1.026671981
-0.8549399314
-0.421531144
0.1465596344
0.789500783
1.497637968
2.285168467
3.280173342
4.467550962
5.846501289
7.479702527
9.384356256
11.54338531
13.92978521
16.49621186
19.13946539
21.83262399
24.41280162
26.80254955
28.94093832
30.72425302
32.07017617
32.8998833
33.13251487
32.67213768
31.42881415
29.31645463
26.29203258
22.34709396
17.49138149
11.8446187
5.539848834
-1.219717499
-8.211460752
-15.21839272
-22.03850011
-28.48887476
-34.44411964
-39.83077607
-44.55377818
-48.57129477
-51.87588632
-54.4661091
-56.36388716
-57.58592473
-58.21171605
-58.31513206
-57.95777822
-57.21254411
-56.15500398
-54.83040073
-53.28117186
-51.55276784
-49.67455515
-47.69536467
-45.62411307
-43.48357878
-41.28777835
-39.06613023
-36.83751896
-34.60917114
-32.39247816
-30.20516098
-28.04610818
-25.92268178
-23.82850536
-21.7757791
-19.77008836
-17.81624181
-15.93062759
-14.11457245
-12.37311635
-10.70617968
-9.102237375
-7.56901762
-6.119931621
-4.757127216
-3.493466537
-2.315984667
-1.227509741
-0.2311555155
0.6819227038
1.517446676
2.259593363
2.910054492
3.47080879
3.944861933
4.312044387
4.624705772
4.853419614
5.012699575
5.105875429
5.146421216
5.048246323
9.03584302
12.90624635
16.24808553
18.78340011
)


101
(
-0.01562343123
-0.3602173739
-0.8246401197
-1.030572367
-0.884891999
-0.4720049331
0.1011776059
0.7898022506
1.593668747
2.530879651
3.732021342
5.185424343
6.869954067
8.833782275
11.08382676
13.59006104
16.31676157
19.20757176
22.15382934
25.12592075
27.94592286
30.54124954
32.8435453
34.7385691
36.1455374
36.97143764
37.11993385
36.48855933
34.99112919
32.55431885
29.15741956
24.83266656
19.64597143
13.7552154
7.348297207
0.6504024831
-6.104124317
-12.6987473
-18.93833171
-24.65979836
-29.78349474
-34.27018466
-38.06965134
-41.18243674
-43.62654104
-45.40802936
-46.57081272
-47.14677977
-47.20688625
-46.81444312
-46.04307086
-44.95465831
-43.61003299
-42.0628994
-40.35592242
-38.52309242
-36.58433569
-34.59066453
-32.55192976
-30.47754799
-28.3748042
-26.26354618
-24.16806218
-22.08482505
-20.02771127
-18.01623429
-16.04528336
-14.11808538
-12.22311147
-10.37679726
-8.580578046
-6.835211265
-5.161163695
-3.556288007
-2.033108347
-0.5984788282
0.7683687621
2.064382494
3.284489625
4.411057438
5.433648242
6.363237327
7.196810321
7.938489641
8.589525529
9.157194358
9.635924919
10.02058291
10.31211177
10.5244351
10.62648053
10.6758496
10.64935198
10.55895617
10.41659833
10.18846549
9.751382669
13.65271567
16.93036627
19.00784942
19.82238052
)


101
(
-0.0155817684
-0.3538878274
-0.8139382384
-1.031661589
-0.9075393522
-0.5089099215
0.07637333279
0.8173423512
1.721760679
2.809160093
4.20838421
5.914161239
7.886838671
10.15862168
12.72781575
15.5521401
18.58685821
21.76866054
24.98344493
28.19605827
31.22306585
33.99204606
36.42875275
38.40130201
39.83113428
40.61718068
40.65382704
39.84507461
38.12454495
35.44710045
31.82545919
27.33645886
22.10061435
16.30646058
10.16583386
3.897913579
-2.276797339
-8.162416904
-13.58662587
-18.4112059
-22.58405032
-26.11338879
-28.98853485
-31.23673817
-32.89804237
-33.9855505
-34.54879607
-34.61927168
-34.2612374
-33.52584329
-32.48351928
-31.18702164
-29.68567851
-28.02691926
-26.25563174
-24.40375062
-22.47455718
-20.519618
-18.55713373
-16.58953258
-14.61176782
-12.63683484
-10.68678984
-8.757241454
-6.873743901
-5.033678987
-3.252102502
-1.527548622
0.1567360413
1.785646589
3.364331985
4.884575116
6.332879409
7.708402413
8.995487703
10.17981975
11.27263682
12.29703329
13.23995638
14.08954875
14.83287236
15.46759092
15.99295432
16.42750112
16.76362901
17.01176184
17.17043391
17.24038149
17.21091191
17.11099152
16.91079007
16.65309231
16.33806833
15.96577096
15.55794266
15.03589785
14.23806598
17.31520273
19.28374082
19.64150528
18.42966417
)


101
(
-0.01554017579
-0.3475659879
-0.8027807081
-1.030167552
-0.9235562269
-0.5337392837
0.06938821585
0.8676119313
1.875564956
3.11212247
4.700107531
6.642023716
8.883942138
11.44041329
14.3021246
17.41559392
20.72581613
24.16443745
27.61279851
31.02356223
34.22300815
37.13113523
39.66873227
41.68345217
43.09974789
43.82021415
43.7412728
42.78523009
40.91673841
38.12840439
34.4728548
30.06420035
25.05629693
19.6590293
14.07951794
8.510275288
3.142238209
-1.858948996
-6.348689762
-10.21804471
-13.44045584
-16.05494095
-18.0723192
-19.54705404
-20.53628941
-21.05575537
-21.1496441
-20.84088291
-20.18929164
-19.2302291
-18.02370313
-16.61458577
-15.04501517
-13.35074662
-11.57387503
-9.751062087
-7.871453019
-5.986413787
-4.114273452
-2.264006719
-0.4229760532
1.4038336
3.206302442
4.978377486
6.691086922
8.357339519
9.944164071
11.46256633
12.92422169
14.32724894
15.66603028
16.93145318
18.12069014
19.22796575
20.23616155
21.13113748
21.91510735
22.60173201
23.20016727
23.70536827
24.10260551
24.37136822
24.52030809
24.56906033
24.51641755
24.37020213
24.13084335
23.81492497
23.39773861
22.9186212
22.36059623
21.74010678
21.08468834
20.38625091
19.66920061
18.81461734
17.62194051
19.28318279
19.47305658
18.01981427
14.8875602
)


101
(
-0.01549865344
-0.3412546497
-0.7912185829
-1.026305578
-0.9335718681
-0.5478660194
0.07772525258
0.9365824551
2.049129824
3.432211301
5.199622442
7.35978559
9.850969218
12.66803602
15.79436478
19.16687599
22.7195933
26.38048412
30.02831231
33.59981533
36.93516879
39.94502173
42.54405132
44.56768067
45.94229565
46.58691768
46.41382475
45.37261531
43.46327496
40.71879192
37.22797132
33.12656528
28.57781367
23.80254665
18.98504449
14.28267963
9.846084621
5.802779472
2.267449268
-0.6747688772
-3.012222426
-4.799494816
-6.061801057
-6.870180891
-7.293707488
-7.351259544
-7.081457525
-6.493885708
-5.634330395
-4.530629043
-3.230131526
-1.768312158
-0.1829331975
1.500965411
3.249393037
5.027589819
6.843340992
8.646913173
10.42998877
12.17342974
13.87291209
15.55459054
17.20437325
18.8127572
20.35354009
21.8347435
23.22269177
24.52315772
25.74593334
26.89520175
27.95337668
28.92788742
29.81196863
30.59589848
31.26828029
31.81545042
32.22185837
32.50166317
32.67775883
32.75166543
32.71209362
32.5348563
32.22255624
31.79757319
31.26445167
30.6450982
29.92394629
29.13805474
28.25812958
27.32534052
26.34186973
25.29781134
24.24207602
23.16253514
22.08577386
20.85130624
19.22508806
19.18620505
17.48414823
14.47489682
9.467126176
)


101
(
-0.01545720141
-0.3349564343
-0.779289445
-1.020279466
-0.9381731015
-0.5525518818
0.09912662687
1.020671055
2.237224618
3.762764696
5.700591967
8.059983325
10.77979078
13.8330791
17.1954369
20.79616623
24.55804477
28.40601825
32.21857832
35.91742371
39.35216305
42.42647822
45.04564914
47.04997202
48.3676668
48.94426873
48.71988808
47.67530686
45.84480484
43.29646971
40.14316866
36.52772534
32.60603087
28.59217931
24.63940757
20.87536873
17.40818025
14.32357232
11.70595038
9.621486168
8.073503728
7.005362906
6.388769084
6.146346417
6.200393645
6.525450017
7.087257118
7.889028752
8.902641339
10.10618404
11.46226482
12.94795514
14.52798186
16.17876444
17.87970861
19.60735973
21.35994459
23.09015912
24.79026226
26.43561505
28.008953
29.54940548
31.040443
32.47577854
33.84019872
35.12108317
36.29638069
37.36048011
38.31613938
39.16989886
39.90993388
40.54428515
41.06002027
41.45417007
41.72472177
41.85438593
41.81959502
41.62555156
41.29627946
40.84987372
40.28759964
39.58554298
38.73195447
37.7453574
36.65378168
35.48055025
34.20632372
32.87445888
31.46304105
30.00963321
28.53903205
27.01209349
25.50494411
23.99051637
22.50570834
20.84834293
18.7613475
17.0950684
13.72716447
9.661745409
3.531998981
)


101
(
-0.01541581954
-0.3286738158
-0.7670286351
-1.01228142
-0.937907022
-0.54895584
0.1315567557
1.11661411
2.435116177
4.097840871
6.196508385
8.737171965
11.66345281
14.92826729
18.4978171
22.29583556
26.23387366
30.23312768
34.17413744
37.96685707
41.46536658
44.56850545
47.1736524
49.1384933
50.39826564
50.93013961
50.70917285
49.74553773
48.10327284
45.87690468
43.18866381
40.17548753
36.97712733
33.78677521
30.72468063
27.89675685
25.37418032
23.20136515
21.43194965
20.11646389
19.2565464
18.80294335
18.7321618
18.9695559
19.43319159
20.09014759
20.90523455
21.8887301
23.02553621
24.30738936
25.70768855
27.21058715
28.79110641
30.40947697
32.05921
33.72970551
35.42056494
37.08240307
38.70747633
40.26489332
41.7341509
43.13612071
44.46545948
45.71534225
46.89459612
47.9586911
48.90002382
49.70211727
50.36053159
50.89028661
51.27729386
51.51830153
51.60801337
51.55276287
51.35503839
51.00197111
50.46764884
49.74220959
48.84520887
47.81137057
46.66661308
45.37468298
43.92221228
42.3174841
40.60277916
38.82219854
36.9497778
35.0196822
33.02690765
31.003873
29.00267497
26.95292965
24.95492442
22.96520255
21.03505863
18.92936796
16.37937113
13.4564846
8.895166069
4.431118635
-1.989189329
)


101
(
-0.01537450794
-0.3224092326
-0.7544478496
-1.002491966
-0.9332830035
-0.5381412493
0.1731858468
1.221539532
2.638676736
4.432295736
6.681591564
9.387193281
12.49659173
15.94752215
19.69563669
23.66045262
27.74241818
31.85694731
35.8888152
39.74047428
43.26896249
46.36882525
48.93519488
50.85027018
52.06311811
52.5828094
52.4211026
51.61383514
50.24662144
48.42762581
46.27708492
43.91904035
41.47211157
39.10421368
36.90244459
34.95394144
33.30558199
31.96746356
30.96195667
30.32674435
30.06308663
30.13265023
30.52281315
31.1685366
31.99059297
32.94968245
34.00339439
35.15741162
36.40836911
37.76493749
39.21226439
40.74180982
42.33645877
43.94098262
45.55384059
47.17276499
48.80375472
50.39764183
51.95199361
53.4349913
54.81394185
56.08713472
57.26018096
58.31661704
59.29057316
60.12336796
60.81044374
61.32999423
61.67039687
61.84883508
61.8486012
61.66708495
61.30089054
60.75708919
60.04501932
59.1637437
58.08416783
56.79476869
55.31424736
53.66018126
51.89914228
49.98745965
47.91445156
45.67475606
43.31428863
40.90467374
38.41878732
35.87369824
33.27720801
30.65992479
28.10497345
25.51020354
23.004381
20.50993759
18.11769779
15.55864214
12.57408826
8.950887651
3.81201962
-0.2651242332
-6.261861585
)


101
(
-0.01533326646
-0.316162384
-0.741601239
-0.991081088
-0.9247750509
-0.5210819832
0.2223174567
1.332878996
2.844399009
4.761744222
7.150790078
10.00587101
13.2751568
16.88659267
20.78493622
24.88641714
29.08119525
33.27612679
37.36111127
41.23568558
44.76182562
47.83045814
50.34148977
52.20659648
53.39231668
53.93465544
53.87985859
53.28477927
52.2462889
50.87612366
49.28579959
47.58341156
45.86475586
44.2683184
42.85236355
41.68954478
40.81532848
40.21758573
39.88656756
39.84770712
40.10209487
40.62064869
41.4029674
42.39855337
43.53851825
44.7784605
46.06654944
47.39819752
48.77536776
50.21707684
51.72240819
53.29322116
54.91479928
56.53029244
58.13192574
59.71984176
61.29748702
62.83038633
64.3155416
65.73227885
67.02984136
68.19247309
69.21796599
70.08665342
70.83579176
71.4284679
71.84668374
72.07413904
72.09344355
71.90838668
71.51052327
70.89630982
70.07046483
69.03745087
67.80508548
66.38450854
64.75368926
62.9130722