/*--------------------------------*- C++ -*----------------------------------*\
| =========                 |                                                 |
| \\      /  F ield         | OpenFOAM: The Open Source CFD Toolbox           |
|  \\    /   O peration     | Version:  2.3.1                                 |
|   \\  /    A nd           | Web:      www.OpenFOAM.org                      |
|    \\/     M anipulation  |                                                 |
\*---------------------------------------------------------------------------*/
FoamFile
{
    version     2.0;
    format      ascii;
    class       polyBoundaryMesh;
    location    "constant/polyMesh";
    object      boundary;
}
// * * * * * * * * * * * * * * * * * * * * * * * * * * * * * * * * * * * * * //

3
(
    bottom
    {
        type            wall;
        inGroups        1(wall);
        nFaces          1;
        startFace       499;
    }
    top
    {
        type            patch;
        nFaces          1;
        startFace       500;
    }
    frontAndBack
    {
        type            empty;
        inGroups        1(empty);
        nFaces          2000;
        startFace       501;
    }
)

// ************************************************************************* //
