/*--------------------------------*- C++ -*----------------------------------*\
| =========                 |                                                 |
| \\      /  F ield         | OpenFOAM: The Open Source CFD Toolbox           |
|  \\    /   O peration     | Version:  2.3.1                                 |
|   \\  /    A nd           | Web:      www.OpenFOAM.org                      |
|    \\/     M anipulation  |                                                 |
\*---------------------------------------------------------------------------*/
FoamFile
{
    version     2.0;
    format      ascii;
    class       dictionary;
    location    "constant";
    object      PVmax;
}
// * * * * * * * * * * * * * * * * * * * * * * * * * * * * * * * * * * * * * //

PVmax_table
101
(
5(3.3180742 3.4731718 3.5542685 3.697189 3.7913759)
5(3.3180742 3.4731718 3.5542685 3.697189 3.7913759)
5(3.3180742 3.4731718 3.5542685 3.697189 3.7913759)
5(3.3180742 3.4731718 3.5542685 3.697189 3.7913759)
5(3.3180742 3.4731718 3.5542685 3.697189 3.7913759)
5(3.3180742 3.4731718 3.5542685 3.697189 3.7913759)
5(3.3180742 3.4731718 3.5542685 3.697189 3.7913759)
5(3.3180742 3.4731718 3.5542685 3.697189 3.7913759)
5(3.3180742 3.4731718 3.5542685 3.697189 3.7913759)
5(3.3180742 3.4731718 3.5542685 3.697189 3.7913759)
5(3.3180742 3.4731718 3.5542685 3.697189 3.7913759)
5(3.3180742 3.4731718 3.5542685 3.697189 3.7913759)
5(3.3180742 3.4731718 3.5542685 3.697189 3.7913759)
5(3.3180742 3.4731718 3.5542685 3.697189 3.7913759)
5(3.3180742 3.4731718 3.5542685 3.697189 3.7913759)
5(3.3180742 3.4731718 3.5542685 3.697189 3.7913759)
5(3.3180742 3.4731718 3.5542685 3.697189 3.7913759)
5(3.3180742 3.4731718 3.5542685 3.697189 3.7913759)
5(3.3180742 3.4731718 3.5542685 3.697189 3.7913759)
5(3.3180742 3.4731718 3.5542685 3.697189 3.7913759)
5(3.3180742 3.4731718 3.5542685 3.697189 3.7913759)
5(3.3180742 3.4731718 3.5542685 3.697189 3.7913759)
5(3.3180742 3.4731718 3.5542685 3.697189 3.7913759)
5(3.3180742 3.4731718 3.5542685 3.697189 3.7913759)
5(3.3180742 3.4731718 3.5542685 3.697189 3.7913759)
5(3.3180742 3.4731718 3.5542685 3.697189 3.7913759)
5(3.3180742 3.4731718 3.5542685 3.697189 3.7913759)
5(3.3180742 3.4731718 3.5542685 3.697189 3.7913759)
5(3.3180742 3.4731718 3.5542685 3.697189 3.7913759)
5(3.3180742 3.4731718 3.5542685 3.697189 3.7913759)
5(3.3180742 3.4731718 3.5542685 3.697189 3.7913759)
5(3.3180742 3.4731718 3.5542685 3.697189 3.7913759)
5(3.3180742 3.4731718 3.5542685 3.697189 3.7913759)
5(3.3180742 3.4731718 3.5542685 3.697189 3.7913759)
5(3.3180742 3.4731718 3.5542685 3.697189 3.7913759)
5(3.3180742 3.4731718 3.5542685 3.697189 3.7913759)
5(3.3180742 3.4731718 3.5542685 3.697189 3.7913759)
5(3.3180742 3.4731718 3.5542685 3.697189 3.7913759)
5(3.3180742 3.4731718 3.5542685 3.697189 3.7913759)
5(3.3180742 3.4731718 3.5542685 3.697189 3.7913759)
5(3.3180742 3.4731718 3.5542685 3.697189 3.7913759)
5(3.3180742 3.4731718 3.5542685 3.697189 3.7913759)
5(3.3180742 3.4731718 3.5542685 3.697189 3.7913759)
5(3.3180742 3.4731718 3.5542685 3.697189 3.7913759)
5(3.3180742 3.4731718 3.5542685 3.697189 3.7913759)
5(3.3180742 3.4731718 3.5542685 3.697189 3.7913759)
5(3.3180742 3.4731718 3.5542685 3.697189 3.7913759)
5(3.3180742 3.4731718 3.5542685 3.697189 3.7913759)
5(3.3180742 3.4731718 3.5542685 3.697189 3.7913759)
5(3.3180742 3.4731718 3.5542685 3.697189 3.7913759)
5(3.3180742 3.4731718 3.5542685 3.697189 3.7913759)
5(3.3180742 3.4731718 3.5542685 3.697189 3.7913759)
5(3.3180742 3.4731718 3.5542685 3.697189 3.7913759)
5(3.3180742 3.4731718 3.5542685 3.697189 3.7913759)
5(3.3180742 3.4731718 3.5542685 3.697189 3.7913759)
5(3.3180742 3.4731718 3.5542685 3.697189 3.7913759)
5(3.3180742 3.4731718 3.5542685 3.697189 3.7913759)
5(3.3180742 3.4731718 3.5542685 3.697189 3.7913759)
5(3.3180742 3.4731718 3.5542685 3.697189 3.7913759)
5(3.3180742 3.4731718 3.5542685 3.697189 3.7913759)
5(3.3180742 3.4731718 3.5542685 3.697189 3.7913759)
5(3.3180742 3.4731718 3.5542685 3.697189 3.7913759)
5(3.3180742 3.4731718 3.5542685 3.697189 3.7913759)
5(3.3180742 3.4731718 3.5542685 3.697189 3.7913759)
5(3.3180742 3.4731718 3.5542685 3.697189 3.7913759)
5(3.3180742 3.4731718 3.5542685 3.697189 3.7913759)
5(3.3180742 3.4731718 3.5542685 3.697189 3.7913759)
5(3.3180742 3.4731718 3.5542685 3.697189 3.7913759)
5(3.3180742 3.4731718 3.5542685 3.697189 3.7913759)
5(3.3180742 3.4731718 3.5542685 3.697189 3.7913759)
5(3.3180742 3.4731718 3.5542685 3.697189 3.7913759)
5(3.3180742 3.4731718 3.5542685 3.697189 3.7913759)
5(3.3180742 3.4731718 3.5542685 3.697189 3.7913759)
5(3.3180742 3.4731718 3.5542685 3.697189 3.7913759)
5(3.3180742 3.4731718 3.5542685 3.697189 3.7913759)
5(3.3180742 3.4731718 3.5542685 3.697189 3.7913759)
5(3.3180742 3.4731718 3.5542685 3.697189 3.7913759)
5(3.3180742 3.4731718 3.5542685 3.697189 3.7913759)
5(3.3180742 3.4731718 3.5542685 3.697189 3.7913759)
5(3.3180742 3.4731718 3.5542685 3.697189 3.7913759)
5(3.3180742 3.4731718 3.5542685 3.697189 3.7913759)
5(3.3180742 3.4731718 3.5542685 3.697189 3.7913759)
5(3.3180742 3.4731718 3.5542685 3.697189 3.7913759)
5(3.3180742 3.4731718 3.5542685 3.697189 3.7913759)
5(3.3180742 3.4731718 3.5542685 3.697189 3.7913759)
5(3.3180742 3.4731718 3.5542685 3.697189 3.7913759)
5(3.3180742 3.4731718 3.5542685 3.697189 3.7913759)
5(3.3180742 3.4731718 3.5542685 3.697189 3.7913759)
5(3.3180742 3.4731718 3.5542685 3.697189 3.7913759)
5(3.3180742 3.4731718 3.5542685 3.697189 3.7913759)
5(3.3180742 3.4731718 3.5542685 3.697189 3.7913759)
5(3.3180742 3.4731718 3.5542685 3.697189 3.7913759)
5(3.3180742 3.4731718 3.5542685 3.697189 3.7913759)
5(3.3180742 3.4731718 3.5542685 3.697189 3.7913759)
5(3.3180742 3.4731718 3.5542685 3.697189 3.7913759)
5(3.3180742 3.4731718 3.5542685 3.697189 3.7913759)
5(3.3180742 3.4731718 3.5542685 3.697189 3.7913759)
5(3.3180742 3.4731718 3.5542685 3.697189 3.7913759)
5(3.3180742 3.4731718 3.5542685 3.697189 3.7913759)
5(3.3180742 3.4731718 3.5542685 3.697189 3.7913759)
5(3.3180742 3.4731718 3.5542685 3.697189 3.7913759)
)
;