/*--------------------------------*- C++ -*----------------------------------*\
| =========                 |                                                 |
| \\      /  F ield         | OpenFOAM: The Open Source CFD Toolbox           |
|  \\    /   O peration     | Version:  2.3.1                                 |
|   \\  /    A nd           | Web:      www.OpenFOAM.org                      |
|    \\/     M anipulation  |                                                 |
\*---------------------------------------------------------------------------*/
FoamFile
{
    version     2.0;
    format      ascii;
    class       dictionary;
    location    "constant";
    object      PVmin;
}
// * * * * * * * * * * * * * * * * * * * * * * * * * * * * * * * * * * * * * //

PVmin_table
101
(
5(0.0012034326 0.00013702319 1.2248223e-06 5.5878233e-05 0.00023581867)
5(0.0012034326 0.00013702319 1.2248223e-06 5.5878233e-05 0.00023581867)
5(0.0012034326 0.00013702319 1.2248223e-06 5.5878233e-05 0.00023581867)
5(0.0012034326 0.00013702319 1.2248223e-06 5.5878233e-05 0.00023581867)
5(0.0012034326 0.00013702319 1.2248223e-06 5.5878233e-05 0.00023581867)
5(0.0012034326 0.00013702319 1.2248223e-06 5.5878233e-05 0.00023581867)
5(0.0012034326 0.00013702319 1.2248223e-06 5.5878233e-05 0.00023581867)
5(0.0012034326 0.00013702319 1.2248223e-06 5.5878233e-05 0.00023581867)
5(0.0012034326 0.00013702319 1.2248223e-06 5.5878233e-05 0.00023581867)
5(0.0012034326 0.00013702319 1.2248223e-06 5.5878233e-05 0.00023581867)
5(0.0012034326 0.00013702319 1.2248223e-06 5.5878233e-05 0.00023581867)
5(0.0012034326 0.00013702319 1.2248223e-06 5.5878233e-05 0.00023581867)
5(0.0012034326 0.00013702319 1.2248223e-06 5.5878233e-05 0.00023581867)
5(0.0012034326 0.00013702319 1.2248223e-06 5.5878233e-05 0.00023581867)
5(0.0012034326 0.00013702319 1.2248223e-06 5.5878233e-05 0.00023581867)
5(0.0012034326 0.00013702319 1.2248223e-06 5.5878233e-05 0.00023581867)
5(0.0012034326 0.00013702319 1.2248223e-06 5.5878233e-05 0.00023581867)
5(0.0012034326 0.00013702319 1.2248223e-06 5.5878233e-05 0.00023581867)
5(0.0012034326 0.00013702319 1.2248223e-06 5.5878233e-05 0.00023581867)
5(0.0012034326 0.00013702319 1.2248223e-06 5.5878233e-05 0.00023581867)
5(0.0012034326 0.00013702319 1.2248223e-06 5.5878233e-05 0.00023581867)
5(0.0012034326 0.00013702319 1.2248223e-06 5.5878233e-05 0.00023581867)
5(0.0012034326 0.00013702319 1.2248223e-06 5.5878233e-05 0.00023581867)
5(0.0012034326 0.00013702319 1.2248223e-06 5.5878233e-05 0.00023581867)
5(0.0012034326 0.00013702319 1.2248223e-06 5.5878233e-05 0.00023581867)
5(0.0012034326 0.00013702319 1.2248223e-06 5.5878233e-05 0.00023581867)
5(0.0012034326 0.00013702319 1.2248223e-06 5.5878233e-05 0.00023581867)
5(0.0012034326 0.00013702319 1.2248223e-06 5.5878233e-05 0.00023581867)
5(0.0012034326 0.00013702319 1.2248223e-06 5.5878233e-05 0.00023581867)
5(0.0012034326 0.00013702319 1.2248223e-06 5.5878233e-05 0.00023581867)
5(0.0012034326 0.00013702319 1.2248223e-06 5.5878233e-05 0.00023581867)
5(0.0012034326 0.00013702319 1.2248223e-06 5.5878233e-05 0.00023581867)
5(0.0012034326 0.00013702319 1.2248223e-06 5.5878233e-05 0.00023581867)
5(0.0012034326 0.00013702319 1.2248223e-06 5.5878233e-05 0.00023581867)
5(0.0012034326 0.00013702319 1.2248223e-06 5.5878233e-05 0.00023581867)
5(0.0012034326 0.00013702319 1.2248223e-06 5.5878233e-05 0.00023581867)
5(0.0012034326 0.00013702319 1.2248223e-06 5.5878233e-05 0.00023581867)
5(0.0012034326 0.00013702319 1.2248223e-06 5.5878233e-05 0.00023581867)
5(0.0012034326 0.00013702319 1.2248223e-06 5.5878233e-05 0.00023581867)
5(0.0012034326 0.00013702319 1.2248223e-06 5.5878233e-05 0.00023581867)
5(0.0012034326 0.00013702319 1.2248223e-06 5.5878233e-05 0.00023581867)
5(0.0012034326 0.00013702319 1.2248223e-06 5.5878233e-05 0.00023581867)
5(0.0012034326 0.00013702319 1.2248223e-06 5.5878233e-05 0.00023581867)
5(0.0012034326 0.00013702319 1.2248223e-06 5.5878233e-05 0.00023581867)
5(0.0012034326 0.00013702319 1.2248223e-06 5.5878233e-05 0.00023581867)
5(0.0012034326 0.00013702319 1.2248223e-06 5.5878233e-05 0.00023581867)
5(0.0012034326 0.00013702319 1.2248223e-06 5.5878233e-05 0.00023581867)
5(0.0012034326 0.00013702319 1.2248223e-06 5.5878233e-05 0.00023581867)
5(0.0012034326 0.00013702319 1.2248223e-06 5.5878233e-05 0.00023581867)
5(0.0012034326 0.00013702319 1.2248223e-06 5.5878233e-05 0.00023581867)
5(0.0012034326 0.00013702319 1.2248223e-06 5.5878233e-05 0.00023581867)
5(0.0012034326 0.00013702319 1.2248223e-06 5.5878233e-05 0.00023581867)
5(0.0012034326 0.00013702319 1.2248223e-06 5.5878233e-05 0.00023581867)
5(0.0012034326 0.00013702319 1.2248223e-06 5.5878233e-05 0.00023581867)
5(0.0012034326 0.00013702319 1.2248223e-06 5.5878233e-05 0.00023581867)
5(0.0012034326 0.00013702319 1.2248223e-06 5.5878233e-05 0.00023581867)
5(0.0012034326 0.00013702319 1.2248223e-06 5.5878233e-05 0.00023581867)
5(0.0012034326 0.00013702319 1.2248223e-06 5.5878233e-05 0.00023581867)
5(0.0012034326 0.00013702319 1.2248223e-06 5.5878233e-05 0.00023581867)
5(0.0012034326 0.00013702319 1.2248223e-06 5.5878233e-05 0.00023581867)
5(0.0012034326 0.00013702319 1.2248223e-06 5.5878233e-05 0.00023581867)
5(0.0012034326 0.00013702319 1.2248223e-06 5.5878233e-05 0.00023581867)
5(0.0012034326 0.00013702319 1.2248223e-06 5.5878233e-05 0.00023581867)
5(0.0012034326 0.00013702319 1.2248223e-06 5.5878233e-05 0.00023581867)
5(0.0012034326 0.00013702319 1.2248223e-06 5.5878233e-05 0.00023581867)
5(0.0012034326 0.00013702319 1.2248223e-06 5.5878233e-05 0.00023581867)
5(0.0012034326 0.00013702319 1.2248223e-06 5.5878233e-05 0.00023581867)
5(0.0012034326 0.00013702319 1.2248223e-06 5.5878233e-05 0.00023581867)
5(0.0012034326 0.00013702319 1.2248223e-06 5.5878233e-05 0.00023581867)
5(0.0012034326 0.00013702319 1.2248223e-06 5.5878233e-05 0.00023581867)
5(0.0012034326 0.00013702319 1.2248223e-06 5.5878233e-05 0.00023581867)
5(0.0012034326 0.00013702319 1.2248223e-06 5.5878233e-05 0.00023581867)
5(0.0012034326 0.00013702319 1.2248223e-06 5.5878233e-05 0.00023581867)
5(0.0012034326 0.00013702319 1.2248223e-06 5.5878233e-05 0.00023581867)
5(0.0012034326 0.00013702319 1.2248223e-06 5.5878233e-05 0.00023581867)
5(0.0012034326 0.00013702319 1.2248223e-06 5.5878233e-05 0.00023581867)
5(0.0012034326 0.00013702319 1.2248223e-06 5.5878233e-05 0.00023581867)
5(0.0012034326 0.00013702319 1.2248223e-06 5.5878233e-05 0.00023581867)
5(0.0012034326 0.00013702319 1.2248223e-06 5.5878233e-05 0.00023581867)
5(0.0012034326 0.00013702319 1.2248223e-06 5.5878233e-05 0.00023581867)
5(0.0012034326 0.00013702319 1.2248223e-06 5.5878233e-05 0.00023581867)
5(0.0012034326 0.00013702319 1.2248223e-06 5.5878233e-05 0.00023581867)
5(0.0012034326 0.00013702319 1.2248223e-06 5.5878233e-05 0.00023581867)
5(0.0012034326 0.00013702319 1.2248223e-06 5.5878233e-05 0.00023581867)
5(0.0012034326 0.00013702319 1.2248223e-06 5.5878233e-05 0.00023581867)
5(0.0012034326 0.00013702319 1.2248223e-06 5.5878233e-05 0.00023581867)
5(0.0012034326 0.00013702319 1.2248223e-06 5.5878233e-05 0.00023581867)
5(0.0012034326 0.00013702319 1.2248223e-06 5.5878233e-05 0.00023581867)
5(0.0012034326 0.00013702319 1.2248223e-06 5.5878233e-05 0.00023581867)
5(0.0012034326 0.00013702319 1.2248223e-06 5.5878233e-05 0.00023581867)
5(0.0012034326 0.00013702319 1.2248223e-06 5.5878233e-05 0.00023581867)
5(0.0012034326 0.00013702319 1.2248223e-06 5.5878233e-05 0.00023581867)
5(0.0012034326 0.00013702319 1.2248223e-06 5.5878233e-05 0.00023581867)
5(0.0012034326 0.00013702319 1.2248223e-06 5.5878233e-05 0.00023581867)
5(0.0012034326 0.00013702319 1.2248223e-06 5.5878233e-05 0.00023581867)
5(0.0012034326 0.00013702319 1.2248223e-06 5.5878233e-05 0.00023581867)
5(0.0012034326 0.00013702319 1.2248223e-06 5.5878233e-05 0.00023581867)
5(0.0012034326 0.00013702319 1.2248223e-06 5.5878233e-05 0.00023581867)
5(0.0012034326 0.00013702319 1.2248223e-06 5.5878233e-05 0.00023581867)
5(0.0012034326 0.00013702319 1.2248223e-06 5.5878233e-05 0.00023581867)
5(0.0012034326 0.00013702319 1.2248223e-06 5.5878233e-05 0.00023581867)
)
;