/*--------------------------------*- C++ -*----------------------------------*\
| =========                 |                                                 |
| \\      /  F ield         | OpenFOAM: The Open Source CFD Toolbox           |
|  \\    /   O peration     | Version:  2.3.1                                 |
|   \\  /    A nd           | Web:      www.OpenFOAM.org                      |
|    \\/     M anipulation  |                                                 |
\*---------------------------------------------------------------------------*/
FoamFile
{
    version     2.0;
    format      ascii;
    class       dictionary;
    location    "constant";
    object      PVnorm;
}
// * * * * * * * * * * * * * * * * * * * * * * * * * * * * * * * * * * * * * //

PVnorm_table
101
(
5{0}
5(0.01 0.0099614847 0.010017692 0.009957342 0.01)
5(0.02 0.019907687 0.020028189 0.019929911 0.02)
5(0.03 0.029847957 0.030039282 0.029894714 0.03)
5(0.04 0.039787332 0.040049563 0.039862806 0.04)
5(0.05 0.049723344 0.050045482 0.049821052 0.05)
5(0.06 0.059658928 0.060048216 0.059779657 0.06)
5(0.07 0.06958816 0.070048096 0.069739537 0.07)
5(0.08 0.07951598 0.08003666 0.079692889 0.08)
5(0.09 0.089445066 0.090022399 0.08965235 0.09)
5(0.1 0.09937816 0.10001508 0.099625042 0.1)
5(0.11 0.10932018 0.11001202 0.10958807 0.11)
5(0.12 0.11926126 0.12000801 0.11954794 0.12)
5(0.13 0.12919392 0.12999379 0.12949281 0.13)
5(0.14 0.13912092 0.13998239 0.13942504 0.14)
5(0.15 0.14904333 0.14997217 0.14937525 0.15)
5(0.16 0.15896069 0.15996471 0.15932999 0.16)
5(0.17 0.16888714 0.16995712 0.16928623 0.17)
5(0.18 0.17882422 0.17995071 0.17924647 0.18)
5(0.19 0.18875924 0.18994309 0.18920683 0.19)
5(0.2 0.19869852 0.19994543 0.19917655 0.2)
5(0.21 0.208636 0.20994364 0.20913799 0.21)
5(0.22 0.21858208 0.21994778 0.21911671 0.22)
5(0.23 0.22853681 0.22995585 0.22909264 0.23)
5(0.24 0.23848502 0.23996461 0.23907294 0.24)
5(0.25 0.24845044 0.24998071 0.24905973 0.25)
5(0.26 0.25841508 0.25999788 0.25904925 0.26)
5(0.27 0.26838103 0.27001726 0.26904496 0.27)
5(0.28 0.27835934 0.28003203 0.27904214 0.28)
5(0.29 0.28833277 0.29004753 0.2890375 0.29)
5(0.3 0.29831247 0.30007502 0.29904876 0.3)
5(0.31 0.30830355 0.31011459 0.3090643 0.31)
5(0.32 0.31829529 0.32015279 0.31908073 0.32)
5(0.33 0.32829805 0.3302038 0.32910737 0.33)
5(0.34 0.33829282 0.34024988 0.33911946 0.34)
5(0.35 0.34830322 0.35030351 0.34915221 0.35)
5(0.36 0.35831905 0.36037569 0.35921672 0.36)
5(0.37 0.36832527 0.37041866 0.36918452 0.37)
5(0.38 0.37832053 0.38048024 0.37919997 0.38)
5(0.39 0.38833035 0.39060975 0.38926573 0.39)
5(0.4 0.39832167 0.40065176 0.39923978 0.4)
5(0.41 0.40832059 0.41068207 0.40921555 0.41)
5(0.42 0.41827956 0.42072085 0.41919392 0.42)
5(0.43 0.42825463 0.43086021 0.42926157 0.43)
5(0.44 0.43823135 0.44084681 0.43922899 0.44)
5(0.45 0.44824267 0.45085291 0.44922272 0.45)
5(0.46 0.45828859 0.46090519 0.45921946 0.46)
5(0.47 0.46818132 0.47096186 0.46918226 0.47)
5(0.48 0.47808074 0.48105024 0.47916833 0.48)
5(0.49 0.48797695 0.49109117 0.48911294 0.49)
5(0.5 0.49795937 0.5011122 0.4990909 0.5)
5(0.51 0.50796616 0.51114845 0.50906049 0.51)
5(0.52 0.51797576 0.52114579 0.51902111 0.52)
5(0.53 0.52798762 0.53112917 0.52897587 0.53)
5(0.54 0.53800029 0.54108482 0.53891863 0.54)
5(0.55 0.54789552 0.55101673 0.54885698 0.55)
5(0.56 0.55777961 0.56093325 0.55878301 0.56)
5(0.57 0.56763847 0.57082345 0.56868735 0.57)
5(0.58 0.57753283 0.58076343 0.57860766 0.58)
5(0.59 0.58744858 0.59072506 0.58853862 0.59)
5(0.6 0.59735856 0.60068623 0.59846965 0.6)
5(0.61 0.60727595 0.61065029 0.60840558 0.61)
5(0.62 0.61718807 0.62061246 0.61833986 0.62)
5(0.63 0.62709537 0.63058078 0.62828253 0.63)
5(0.64 0.63699399 0.64054747 0.63822062 0.64)
5(0.65 0.64690493 0.65051974 0.64817138 0.65)
5(0.66 0.65681503 0.66049174 0.65811654 0.66)
5(0.67 0.66673326 0.67046825 0.668073 0.67)
5(0.68 0.67665192 0.68044509 0.67802384 0.68)
5(0.69 0.68657993 0.69042614 0.68798363 0.69)
5(0.7 0.69650909 0.70040735 0.69794204 0.7)
5(0.71 0.70644393 0.71039062 0.7079036 0.71)
5(0.72 0.71637545 0.72037551 0.71786952 0.72)
5(0.73 0.72632244 0.73036001 0.72783337 0.73)
5(0.74 0.73626459 0.74034875 0.73780549 0.74)
5(0.75 0.74620968 0.75033655 0.74777132 0.75)
5(0.76 0.75616543 0.76032643 0.75774814 0.76)
5(0.77 0.76611916 0.77031684 0.76771616 0.77)
5(0.78 0.7760734 0.78030488 0.7776986 0.78)
5(0.79 0.7860333 0.79029415 0.78767179 0.79)
5(0.8 0.79599616 0.80028461 0.79765368 0.8)
5(0.81 0.80595781 0.81027133 0.80763543 0.81)
5(0.82 0.81592368 0.82026253 0.81761246 0.82)
5(0.83 0.82588937 0.83024932 0.82759381 0.83)
5(0.84 0.8358678 0.84023916 0.83758175 0.84)
5(0.85 0.84584146 0.85022692 0.84757177 0.85)
5(0.86 0.85581027 0.86020868 0.85756073 0.86)
5(0.87 0.86581037 0.87019507 0.86755617 0.87)
5(0.88 0.87579492 0.88017897 0.87755619 0.88)
5(0.89 0.88578716 0.89016474 0.88756082 0.89)
5(0.9 0.89579161 0.90014764 0.89757032 0.9)
5(0.91 0.90580811 0.91012412 0.90758202 0.91)
5(0.92 0.91583254 0.92010306 0.91760971 0.92)
5(0.93 0.92583965 0.93007372 0.92765081 0.93)
5(0.94 0.9358832 0.94005134 0.93771344 0.94)
5(0.95 0.94595346 0.95003782 0.94780663 0.95)
5(0.96 0.9560321 0.96001071 0.95792778 0.96)
5(0.97 0.96622242 0.96999793 0.96806902 0.97)
5(0.98 0.9765835 0.97997609 0.97829007 0.98)
5(0.99 0.98729738 0.98994555 0.9887174 0.99)
5{1}
)
;