/*--------------------------------*- C++ -*----------------------------------*\
| =========                 |                                                 |
| \\      /  F ield         | OpenFOAM: The Open Source CFD Toolbox           |
|  \\    /   O peration     | Version:  2.3.1                                 |
|   \\  /    A nd           | Web:      www.OpenFOAM.org                      |
|    \\/     M anipulation  |                                                 |
\*---------------------------------------------------------------------------*/
FoamFile
{
    version     2.0;
    format      ascii;
    class       dictionary;
    location    "constant";
    object      theta2;
}
// * * * * * * * * * * * * * * * * * * * * * * * * * * * * * * * * * * * * * //

theta2_table
101
(
5{60}
5(54.953325 54.654318 54.350633 54.138244 53.965988)
5(51.626708 51.163736 50.704181 50.33822 50.013248)
5(48.773363 48.173945 47.60417 47.08733 46.650899)
5(46.209092 45.493667 44.818936 44.169457 43.619121)
5(43.841961 43.022559 42.233283 41.471119 40.825522)
5(41.611752 40.707319 39.838847 38.970918 38.243267)
5(39.520975 38.535984 37.596394 36.632615 35.827392)
5(37.545097 36.4883 35.477947 34.431455 33.560198)
5(35.669797 34.547713 33.469622 32.349108 31.414049)
5(33.878124 32.701814 31.569147 30.373441 29.381046)
5(32.165863 30.940005 29.761017 28.502153 27.463784)
5(30.536661 29.263185 28.039267 26.727327 25.647051)
5(28.975189 27.664955 26.408166 25.033065 23.922234)
5(27.487699 26.136607 24.848321 23.422243 22.289728)
5(26.057128 24.674934 23.360798 21.889521 20.737716)
5(24.69175 23.273523 21.938212 20.433185 19.263875)
5(23.380808 21.93582 20.583725 19.041162 17.862928)
5(22.121212 20.656793 19.286822 17.721111 16.536444)
5(20.914677 19.431546 18.047613 16.461374 15.27347)
5(19.759649 18.257519 16.866459 15.258968 14.073454)
5(18.650735 17.13439 15.739134 14.116093 12.938841)
5(17.586593 16.059673 14.661788 13.028364 11.865754)
5(16.56581 15.031667 13.633069 11.996422 10.849411)
5(15.58692 14.049524 12.652101 11.015783 9.8882854)
5(14.648363 13.10926 11.716973 10.083926 8.9797925)
5(13.74837 12.213741 10.826638 9.2057711 8.1304286)
5(12.884984 11.359739 9.9756672 8.3754823 7.3369461)
5(12.059272 10.543495 9.1663813 7.5919334 6.5931962)
5(11.274819 9.764677 8.4070165 6.8515261 5.8911199)
5(10.522555 9.0177517 7.6889543 6.1548712 5.2469894)
5(9.7999049 8.3197792 7.0050703 5.5120569 4.6509896)
5(9.1111468 7.6543913 6.3730305 4.8985696 4.0849232)
5(8.4629694 7.0118941 5.7566344 4.3406756 3.6268263)
5(7.8346159 6.4216011 5.1610302 3.8320204 3.1877863)
5(7.2376187 5.8533538 4.6468107 3.3873173 2.8201733)
5(6.6748234 5.3365517 4.1556327 2.9555891 2.5059445)
5(6.1346421 4.8316397 3.7603142 2.6283982 2.1917158)
5(5.6458994 4.3473784 3.4024691 2.2982592 1.912991)
5(5.1742348 3.8908223 3.0409266 1.9755578 1.6898251)
5(4.726349 3.5123988 2.7757991 1.7327272 1.4666592)
5(4.292393 3.1345429 2.5249845 1.4898238 1.2434933)
5(3.8836213 2.8573463 2.2736578 1.2468444 1.0203274)
5(3.5268668 2.639819 2.0158521 1.0055433 1)
5(3.1701124 2.4232425 1.831512 1 1)
5(2.8894026 2.2054979 1.6548347 1 1)
5(2.6780025 1.9867983 1.4765251 1 1)
5(2.4666025 1.8633866 1.298875 1 1)
5(2.2552024 1.7406568 1.1217849 1 1)
5(2.0438024 1.6192312 1 1 1)
5(1.9032209 1.4959638 1 1 1)
5(1.7811481 1.372506 1 1 1)
5(1.6590753 1.2498274 1 1 1)
5(1.5370025 1.127956 1 1 1)
5(1.4149297 1.0069006 1 1 1)
5(1.2928569 1 1 1 1)
5(1.1707842 1 1 1 1)
5(1.0487114 1 1 1 1)
5{1}
5{1}
5{1}
5{1}
5{1}
5{1}
5{1}
5{1}
5{1}
5{1}
5{1}
5{1}
5{1}
5{1}
5{1}
5{1}
5{1}
5{1}
5{1}
5{1}
5{1}
5{1}
5{1}
5{1}
5{1}
5{1}
5{1}
5{1}
5{1}
5{1}
5{1}
5{1}
5{1}
5{1}
5{1}
5{1}
5{1}
5{1}
5{1}
5{1}
5{1}
5{1}
5{1}
)
;