/*--------------------------------*- C++ -*----------------------------------*\
| =========                 |                                                 |
| \\      /  F ield         | OpenFOAM: The Open Source CFD Toolbox           |
|  \\    /   O peration     | Version:  2.3.1                                 |
|   \\  /    A nd           | Web:      www.OpenFOAM.org                      |
|    \\/     M anipulation  |                                                 |
\*---------------------------------------------------------------------------*/
FoamFile
{
    version     2.0;
    format      ascii;
    class       dictionary;
    location    "constant";
    object      Z;
}
// * * * * * * * * * * * * * * * * * * * * * * * * * * * * * * * * * * * * * //

Z_table
101
(
5(0.077645364 0.080344814 0.083269218 0.085968668 0.088893072)
5(0.082727393 0.086168731 0.089896847 0.093338184 0.0970663)
5(0.085241733 0.088881242 0.092824043 0.096463551 0.10040635)
5(0.087082938 0.090832327 0.094894164 0.098643553 0.10270539)
5(0.088515348 0.092339545 0.096482425 0.10030662 0.1044495)
5(0.089677917 0.093542668 0.097729481 0.10159423 0.10578105)
5(0.090661079 0.094532264 0.098726048 0.10259723 0.10679102)
5(0.091460919 0.095323728 0.099508439 0.10337125 0.10755596)
5(0.092117181 0.095958024 0.10011894 0.10395978 0.1081207)
5(0.092653691 0.096465626 0.10059522 0.10440716 0.10853675)
5(0.093092085 0.096868438 0.10095949 0.10473584 0.10882689)
5(0.093458438 0.097187677 0.10122769 0.10495692 0.10899693)
5(0.093733587 0.097414321 0.10140178 0.10508252 0.10906998)
5(0.093944376 0.097572286 0.10150252 0.10513043 0.10906067)
5(0.094090003 0.097666309 0.10154064 0.10511695 0.10899128)
5(0.094189636 0.097713073 0.10153013 0.10505357 0.10887062)
5(0.094240128 0.097712074 0.10147335 0.10494529 0.10870657)
5(0.094248863 0.097671506 0.10137937 0.10480201 0.10850988)
5(0.094225516 0.09759805 0.10125163 0.10462416 0.10827774)
5(0.094173774 0.097498176 0.10109961 0.10442401 0.10802545)
5(0.094090475 0.097370501 0.10092386 0.10420389 0.10775725)
5(0.093985178 0.0972222 0.10072897 0.103966 0.10747277)
5(0.093861926 0.09705834 0.10052112 0.10371754 0.10718032)
5(0.093719408 0.096878252 0.10030033 0.10345918 0.10688126)
5(0.093562319 0.096686252 0.10007051 0.10319445 0.10657871)
5(0.093393697 0.096485174 0.099834274 0.10292575 0.10627485)
5(0.093212622 0.096275034 0.099592648 0.10265506 0.10597267)
5(0.093022974 0.096059193 0.09934843 0.10238465 0.10567389)
5(0.092827498 0.095839789 0.099103105 0.1021154 0.10537871)
5(0.092622446 0.095614133 0.098855128 0.10184682 0.10508781)
5(0.092413577 0.095387952 0.098610191 0.10158457 0.10480681)
5(0.092201983 0.095161903 0.098368484 0.1013284 0.10453499)
5(0.091987809 0.094935265 0.098128344 0.1010758 0.10426888)
5(0.091770879 0.094710488 0.097895064 0.10083467 0.10401925)
5(0.091553378 0.094485974 0.097662954 0.10059555 0.10377253)
5(0.09133577 0.094265654 0.097439695 0.10036958 0.10354362)
5(0.091118966 0.094049139 0.097223494 0.10015367 0.10332802)
5(0.090902693 0.093833028 0.097007558 0.099937894 0.10311242)
5(0.090689049 0.093622728 0.09680088 0.099734559 0.10291271)
5(0.090476278 0.093419056 0.096607067 0.099549845 0.10273786)
5(0.090267356 0.093218311 0.096415178 0.099366133 0.102563)
5(0.090060689 0.093019278 0.096224417 0.099183007 0.10238815)
5(0.089857073 0.092822565 0.096035182 0.099000674 0.10221329)
5(0.08965976 0.09263818 0.095864801 0.09884322 0.10206984)
5(0.089462448 0.092454556 0.095696006 0.098688114 0.10192956)
5(0.089273858 0.092279527 0.095535669 0.098541338 0.10179748)
5(0.089093219 0.092112693 0.09538379 0.098403264 0.10167436)
5(0.088912579 0.091946227 0.095232678 0.098266325 0.10155278)
5(0.08873194 0.091782357 0.095086976 0.098137393 0.10144201)
5(0.0885513 0.091618544 0.09494139 0.098008633 0.10133148)
5(0.088395584 0.09147505 0.094811137 0.097890603 0.10122669)
5(0.088246381 0.091336875 0.09468491 0.097775404 0.10112344)
5(0.088097178 0.091199207 0.094559738 0.097661766 0.1010223)
5(0.087947975 0.091061867 0.094435249 0.09754914 0.10092252)
5(0.087798773 0.090924614 0.094310942 0.097436783 0.10082311)
5(0.08764957 0.090787433 0.094186784 0.097324647 0.100724)
5(0.087500367 0.090650122 0.094062357 0.097212113 0.10062435)
5(0.087351164 0.090512606 0.093937502 0.097098944 0.10052384)
5(0.087216355 0.090385753 0.093819268 0.096988667 0.10042218)
5(0.087091112 0.090265752 0.093704945 0.096879586 0.10031878)
5(0.086968558 0.090147389 0.093591122 0.096769952 0.10021369)
5(0.086850281 0.09003173 0.093478299 0.096659747 0.10010632)
5(0.086733442 0.089916623 0.093365068 0.096548249 0.099996695)
5(0.086620114 0.089803579 0.093252333 0.096435798 0.099884552)
5(0.086507465 0.089690387 0.093138551 0.096321472 0.099769637)
5(0.086397368 0.089578494 0.093024714 0.096205839 0.099652059)
5(0.086287509 0.089466005 0.092909375 0.09608787 0.09953124)
5(0.08617858 0.089353557 0.092793115 0.095968091 0.099407649)
5(0.086069615 0.089240177 0.092674954 0.095845516 0.099280292)
5(0.08596042 0.089125937 0.092555247 0.095720765 0.099150075)
5(0.085850692 0.089010353 0.09243332 0.095592982 0.099015949)
5(0.085739901 0.088893201 0.092309277 0.095462577 0.098878652)
5(0.085627798 0.088774104 0.092182603 0.095328909 0.098737407)
5(0.085514325 0.08865311 0.09205346 0.095192245 0.098592595)
5(0.085398483 0.088529346 0.091921116 0.09505198 0.098443749)
5(0.08528095 0.088403375 0.091786003 0.094908428 0.098291055)
5(0.085160699 0.088274294 0.091647354 0.094760948 0.098134009)
5(0.085037895 0.088142353 0.091505516 0.094609974 0.097973137)
5(0.084912028 0.088006861 0.091359597 0.094454431 0.097807167)
5(0.084782904 0.087867844 0.091209863 0.094294803 0.097636822)
5(0.084650595 0.087725276 0.091056181 0.094130862 0.097461767)
5(0.084514268 0.08757827 0.090897604 0.093961605 0.09728094)
5(0.084373578 0.087426668 0.090734181 0.093787271 0.097094785)
5(0.084228854 0.087270661 0.090565951 0.093607758 0.096903048)
5(0.084079161 0.087109403 0.090392166 0.093422408 0.096705171)
5(0.08392434 0.086942634 0.090212454 0.093230748 0.096500567)
5(0.083763312 0.086769413 0.090026022 0.093032123 0.096288732)
5(0.083596947 0.086590273 0.089833044 0.09282637 0.09606914)
5(0.083421757 0.086402439 0.08963151 0.092612192 0.095841263)
5(0.083239585 0.086206989 0.089421678 0.092389083 0.095603771)
5(0.083048381 0.086002148 0.089202062 0.092155828 0.095355742)
5(0.082846162 0.085786046 0.08897092 0.091910804 0.095095679)
5(0.082632767 0.085558207 0.088727434 0.091652873 0.0948221)
5(0.082403712 0.085314658 0.088468182 0.091379128 0.094532652)
5(0.082156969 0.085053157 0.088190694 0.091086882 0.09422442)
5(0.081889194 0.084770096 0.087891074 0.090771976 0.093892953)
5(0.081589152 0.084455373 0.087560445 0.090426665 0.093531737)
5(0.081251763 0.084103 0.08719184 0.090043077 0.093131917)
5(0.080850645 0.083688969 0.08676382 0.089602144 0.092676995)
5(0.080341029 0.083171411 0.086237659 0.089068041 0.092134288)
5(0.07960466 0.082439477 0.085510528 0.088345345 0.091416396)
)
;