/*--------------------------------*- C++ -*----------------------------------*\
| =========                 |                                                 |
| \\      /  F ield         | OpenFOAM: The Open Source CFD Toolbox           |
|  \\    /   O peration     | Version:  2.3.1                                 |
|   \\  /    A nd           | Web:      www.OpenFOAM.org                      |
|    \\/     M anipulation  |                                                 |
\*---------------------------------------------------------------------------*/
FoamFile
{
    version     2.0;
    format      ascii;
    class       dictionary;
    location    "system";
    object      mapFieldsDict;
}
// * * * * * * * * * * * * * * * * * * * * * * * * * * * * * * * * * * * * * //

patchMap        
(
inlet1 inlet1
inlet2 inlet2
inlet3 inlet3
edge edge
outlet outlet
wall wall
frontAndBack frontAndBack
);

cuttingPatches  
(
inlet1
inlet2
inlet3
edge
outlet
wall
frontAndBack
);


// ************************************************************************* //
