/*--------------------------------*- C++ -*----------------------------------*\
| =========                 |                                                 |
| \\      /  F ield         | OpenFOAM: The Open Source CFD Toolbox           |
|  \\    /   O peration     | Version:  2.3.1                                 |
|   \\  /    A nd           | Web:      www.OpenFOAM.org                      |
|    \\/     M anipulation  |                                                 |
\*---------------------------------------------------------------------------*/
FoamFile
{
    version     2.0;
    format      ascii;
    class       dictionary;
    location    "constant";
    object      C2H4;
}
// * * * * * * * * * * * * * * * * * * * * * * * * * * * * * * * * * * * * * //

C2H4_table
101
(

101
(
6.240402132e-21
8.49347053e-14
1.437055477e-11
2.556009271e-10
1.83904269e-09
8.000037183e-09
2.581763671e-08
7.393151657e-08
1.894628332e-07
4.451903513e-07
9.626380538e-07
1.931889466e-06
3.586727474e-06
6.29342144e-06
1.038810211e-05
1.62205425e-05
2.415247305e-05
3.454279302e-05
4.728095389e-05
6.285088474e-05
8.082699012e-05
0.0001010533609
0.0001235276906
0.0001477964014
0.0001734841375
0.0002002531672
0.0002277606294
0.0002556812071
0.0002837185076
0.0003115939179
0.0003390623511
0.000365928953
0.0003921307104
0.0004171886513
0.0004412029059
0.00046403191
0.0004855886664
0.0005059092728
0.0005249419334
0.0005424438542
0.0005584437928
0.0005731780642
0.0005864108128
0.0005982147852
0.0006087272449
0.0006178030292
0.0006255837342
0.0006319710477
0.0006370843939
0.0006408684014
0.0006434454469
0.0006448081081
0.0006449970541
0.0006440609238
0.0006420527711
0.0006390086562
0.0006348335375
0.0006297817714
0.0006237105322
0.0006167663655
0.0006089167137
0.0006002394742
0.0005907695781
0.0005805213622
0.0005695414655
0.000557851521
0.0005455000531
0.0005325170546
0.000518907547
0.0005047353598
0.000490013134
0.0004747718143
0.0004590162236
0.0004428190716
0.0004262121489
0.0004092285103
0.0003918358166
0.0003740873097
0.000356024619
0.0003376732118
0.0003190556157
0.0003001654582
0.0002810577281
0.0002617389311
0.0002422329772
0.0002225626443
0.0002027470398
0.0001828034796
0.0001627477573
0.0001425966628
0.0001223630664
0.0001020647035
8.171325057e-05
6.131885548e-05
4.089456666e-05
2.044604996e-05
-3.590933691e-13
2.309626569e-36
9.005772365e-24
-1.007930256e-22
0
)


101
(
6.17389313e-21
-1.150719698e-13
1.023375475e-11
2.222223347e-10
1.664145578e-09
7.308224749e-09
2.358464072e-08
6.74371851e-08
1.726770584e-07
4.056747011e-07
8.777718613e-07
1.763560425e-06
3.280671187e-06
5.764285115e-06
9.538272864e-06
1.493531844e-05
2.229954301e-05
3.197473007e-05
4.394035586e-05
5.854627857e-05
7.557081887e-05
9.48211e-05
0.0001162415665
0.0001395178325
0.0001642854559
0.0001902085977
0.0002169615137
0.0002442320953
0.00027172343
0.0002991709382
0.0003263273154
0.0003529946594
0.0003790807617
0.0004041899341
0.0004283323656
0.0004513853408
0.0004732594648
0.0004939458668
0.0005134016795
0.0005314737225
0.0005481172879
0.0005634620252
0.0005774229496
0.0005899960634
0.0006012625434
0.0006111813123
0.000619799666
0.0006270976591
0.0006331183732
0.0006378639061
0.0006413875804
0.0006437208112
0.0006448918836
0.000644938619
0.0006439055451
0.0006418332577
0.0006387023009
0.0006345966556
0.0006295334369
0.00062355304
0.0006166849461
0.0006089648591
0.0006004346534
0.000591122902
0.0005810608543
0.0005702781917
0.000558808678
0.0005466866982
0.0005339344241
0.0005205831063
0.0005066648877
0.000492207253
0.0004772322068
0.0004617730266
0.0004458674782
0.0004295443677
0.0004128145511
0.0003956959304
0.0003782229701
0.0003604274037
0.0003423328736
0.0003239541416
0.0003053146071
0.0002864380558
0.0002673405375
0.0002480426468
0.0002285655504
0.0002089307774
0.0001891541752
0.0001692550753
0.0001492410904
0.0001291324261
0.0001089449271
8.86909485e-05
6.838288984e-05
4.811728146e-05
2.79663893e-05
2.915224458e-05
3.034804613e-05
3.162671863e-05
3.290539089e-05
)


101
(
6.107384129e-21
-2.806427447e-13
6.558758207e-12
1.919358242e-10
1.504208671e-09
6.674997439e-09
2.154416194e-08
6.150291263e-08
1.573162321e-07
3.694352142e-07
7.997239639e-07
1.608304967e-06
2.997309084e-06
5.273318874e-06
8.746110054e-06
1.373215783e-05
2.055845977e-05
2.955358895e-05
4.076597145e-05
5.445532784e-05
7.05347364e-05
8.881892435e-05
0.000109210371
0.0001314845375
0.0001553127411
0.0001803671899
0.0002063354417
0.0002329186411
0.0002598236369
0.0002867954764
0.0003135890675
0.0003400045087
0.0003659304286
0.000391014909
0.0004152349493
0.0004384587716
0.0004605952322
0.0004816094223
0.0005014500157
0.0005200123148
0.0005372386614
0.0005531872757
0.0005678155163
0.0005811157635
0.0005931272301
0.0006038390127
0.0006132777663
0.0006214398723
0.0006283496958
0.0006340179052
0.000638478071
0.0006417616981
0.0006438979931
0.0006449179638
0.0006448579977
0.0006437561453
0.0006416252201
0.0006385011638
0.0006344220239
0.000629418581
0.0006235244103
0.0006167700909
0.0006091914016
0.0006008212167
0.0005916887615
0.0005818232834
0.0005712539768
0.0005600125587
0.0005481273236
0.0005356224967
0.0005225286968
0.000508874138
0.0004946871075
0.000479993641
0.0004648252146
0.0004492066855
0.0004331589251
0.0004166984959
0.0003998510312
0.000382647744
0.0003651129692
0.0003472678405
0.0003291323486
0.0003107295943
0.0002920755917
0.0002731893451
0.0002540867264
0.0002347920608
0.0002153243165
0.0001957064916
0.0001759421944
0.0001560567913
0.0001360588608
0.0001159697365
9.58061677e-05
7.575182027e-05
5.593248401e-05
5.830418776e-05
6.069576217e-05
6.325312365e-05
6.58104819e-05
)


101
(
6.040875127e-21
-4.149417529e-13
3.309249177e-12
1.644989965e-10
1.358022834e-09
6.095537127e-09
1.968041723e-08
5.608429489e-08
1.432726647e-07
3.362371621e-07
7.28035626e-07
1.465299433e-06
2.735341474e-06
4.818415344e-06
8.008922859e-06
1.26076898e-05
1.892512146e-05
2.727459575e-05
3.775642873e-05
5.057154644e-05
6.572118554e-05
8.304979954e-05
0.00010243369
0.0001237049897
0.0001465786945
0.0001707434195
0.000195899431
0.0002217605919
0.0002480403364
0.0002744915015
0.0003008732048
0.0003269851783
0.0003527035688
0.000377698664
0.0004019380683
0.0004252789362
0.0004476233429
0.0004689207266
0.0004891064148
0.0005080972031
0.0005258422534
0.0005423618583
0.0005576134812
0.0005715949673
0.0005843249777
0.0005957940555
0.0006060244065
0.0006150149706
0.0006227851392
0.0006293443241
0.0006347183052
0.0006389324984
0.0006420149641
0.0006439934947
0.0006448983532
0.0006447626097
0.0006436105529
0.000641467878
0.0006383684938
0.0006343420517
0.000629420988
0.0006236343947
0.0006170140708
0.0006095922298
0.0006013979064
0.0005924594441
0.0005828036685
0.0005724594129
0.0005614556443
0.0005498154704
0.0005375670777
0.0005247372153
0.000511355786
0.0004974483068
0.0004830430152
0.0004681616114
0.0004528256711
0.000437052769
0.0004208645939
0.0004042889484
0.0003873494158
0.0003700695496
0.0003524706565
0.0003345750441
0.0003163980532
0.0002979592004
0.0002792713667
0.000260354083
0.0002412280454
0.0002219236021
0.0002024406497
0.0001828105413
0.0001630375483
0.0001431424897
0.0001231543938
0.0001033467162
8.38985003e-05
8.745598116e-05
9.104325688e-05
9.48793025e-05
9.871532809e-05
)


101
(
5.974366126e-21
-5.209300572e-13
4.513972516e-13
1.396874883e-10
1.224471075e-09
5.565382542e-09
1.797872447e-08
5.113978206e-08
1.304449572e-07
3.058581871e-07
6.62269114e-07
1.333752191e-06
2.493505638e-06
4.397529261e-06
7.324030067e-06
1.155853776e-05
1.739539398e-05
2.513289581e-05
3.490949381e-05
4.688925448e-05
6.113054269e-05
7.751628144e-05
9.591187917e-05
0.0001161853867
0.0001380946151
0.0001613512622
0.0001856699495
0.0002107770898
0.0002363945279
0.0002622823922
0.0002882050226
0.0003139632923
0.0003394255518
0.0003642729458
0.0003884720811
0.0004118723526
0.0004343707544
0.0004559026838
0.0004763904105
0.0004957573234
0.0005139609835
0.0005310053806
0.0005468371943
0.000561454811
0.0005748674551
0.0005870594169
0.0005980494781
0.0006078352653
0.0006164343878
0.0006238536992
0.0006301146391
0.0006352366042
0.0006392444149
0.0006421633317
0.0006440195331
0.000644841252
0.00064465447
0.0006434842876
0.0006413593374
0.000638307295
0.0006343582803
0.0006295399886
0.0006238815925
0.0006174133693
0.0006101638679
0.0006021607631
0.000593429396
0.0005839960718
0.0005738884775
0.000563129091
0.0005517447747
0.0005397603703
0.0005272053435
0.0005141052488
0.0005004867804
0.000486369535
0.0004717739262
0.0004567181095
0.0004412215946
0.0004253092651
0.0004090012394
0.0003923212954
0.0003752931022
0.0003579390591
0.0003402741996
0.0003223180162
0.0003040821864
0.0002855844361
0.0002668384894
0.0002478823193
0.0002287155958
0.000209375635
0.0001898648609
0.0001701988043
0.0001504196157
0.0001308991658
0.0001118644055
0.0001166076331
0.0001213905524
0.0001265048416
0.0001316191014
)


101
(
5.907857112e-21
-6.013792306e-13
-2.046316538e-12
1.172937281e-10
1.102522661e-09
5.080409123e-09
1.642545068e-08
4.663056494e-08
1.187378091e-07
2.78088012e-07
6.020075102e-07
1.212904044e-06
2.270577003e-06
4.00867697e-06
6.688769919e-06
1.058132095e-05
1.596511356e-05
2.31235542e-05
3.222220032e-05
4.340321434e-05
5.676167405e-05
7.222015945e-05
8.964569901e-05
0.0001089303915
0.0001298702191
0.0001522038692
0.000175662864
0.0001999866922
0.0002249069136
0.000250191108
0.0002756094609
0.0003009653404
0.0003261226077
0.0003507677851
0.0003748684723
0.0003982704736
0.0004208660653
0.0004425807455
0.0004633243883
0.0004830183119
0.0005016252029
0.0005191432573
0.0005355089396
0.0005507171861
0.0005647716938
0.0005776496252
0.0005893652548
0.0005999127911
0.0006093082952
0.0006175562021
0.0006246751249
0.0006306794365
0.0006355898891
0.0006394287695
0.0006422191148
0.0006439851227
0.0006447508946
0.000644541973
0.0006433831801
0.00064130031
0.0006383206846
0.000634470043
0.0006297753231
0.0006242644832
0.0006179649331
0.0006109037831
0.0006031056161
0.0005945948703
0.000585397218
0.0005755337399
0.0005650303957
0.0005539105484
0.0005422026355
0.0005299319046
0.0005171239845
0.0005037966014
0.000489968281
0.0004756579141
0.0004608839627
0.0004456692352
0.0004300299736
0.0004139866045
0.0003975649372
0.0003807881273
0.0003636716187
0.0003462351909
0.0003284891687
0.0003104506634
0.0002921287482
0.0002735600837
0.0002547472539
0.0002357352458
0.0002165244625
0.0001971287784
0.0001775963336
0.0001584057529
0.0001398297429
0.0001457585631
0.000151736819
0.0001581277171
0.0001645184796
)


101
(
5.841348123e-21
-6.588822842e-13
-4.213258397e-12
9.71257733e-11
9.912276288e-10
4.636810064e-09
1.500796175e-08
4.252046878e-08
1.080618484e-07
2.527282487e-07
5.468547445e-07
1.102028672e-06
2.065372385e-06
3.649939721e-06
6.10051592e-06
9.672672106e-06
1.46301041e-05
2.124158206e-05
2.96909801e-05
4.010841881e-05
5.261235626e-05
6.71623007e-05
8.363603861e-05
0.0001019436506
0.0001219137441
0.0001433133629
0.0001658933517
0.0001894073713
0.0002135978514
0.0002382402986
0.0002631113071
0.000288017754
0.0003128215598
0.0003372124025
0.0003611584363
0.0003845045603
0.0004071398123
0.0004289827545
0.0004499328445
0.00046990515
0.0004888630559
0.0005068027921
0.0005236535092
0.0005394054273
0.0005540579689
0.0005675818757
0.0005799863894
0.0005912608706
0.0006014190753
0.0006104629547
0.0006184091349
0.0006252680554
0.000631056363
0.0006357929545
0.0006394977865
0.0006421916518
0.000643895411
0.0006446348195
0.000644431572
0.0006433099863
0.000641294599
0.0006384091273
0.0006346781339
0.0006301270484
0.0006247814735
0.0006186675139
0.0006118095247
0.0006042308325
0.0005959552115
0.0005870020522
0.0005773955926
0.0005671580066
0.0005563166614
0.0005448966166
0.0005329225584
0.000520410482
0.0005073763133
0.0004938392764
0.0004798173858
0.0004653325818
0.0004503981526
0.0004350298268
0.0004192526642
0.0004030906157
0.0003865599432
0.0003696813207
0.0003524643516
0.0003349258295
0.000317071856
0.0002989345051
0.000280517094
0.0002618738179
0.0002430037538
0.0002239221907
0.0002046779698
0.0001858623559
0.0001677936684
0.000174906189
0.0001820777675
0.0001897428311
0.0001974077893
)


101
(
5.77483911e-21
-6.958643094e-13
-6.076800958e-12
7.900614736e-11
8.897110897e-10
4.231075804e-09
1.371456337e-08
3.877581687e-08
9.833338781e-08
2.295920341e-07
4.964352692e-07
1.000432612e-06
1.876750877e-06
3.319463742e-06
5.556682676e-06
8.829242523e-06
1.338618277e-05
1.94819426e-05
2.731174003e-05
3.699988395e-05
4.867951818e-05
6.234257467e-05
7.78835748e-05
9.522798483e-05
0.00011423203
0.000134690642
0.0001563757255
0.0001790564318
0.0002024872255
0.0002264522369
0.0002507350441
0.0002751468852
0.0002995496493
0.0003236357512
0.0003473729777
0.0003706065753
0.0003932238418
0.0004151388257
0.0004362429635
0.0004564437865
0.0004757018761
0.0004940117581
0.0005112973904
0.0005275445676
0.0005427489824
0.0005568759568
0.0005699299381
0.000581894731
0.00059278068
0.0006025866673
0.0006113276549
0.0006190112202
0.0006256504051
0.0006312604799
0.0006358582594
0.0006394612565
0.0006420865567
0.0006437593938
0.0006444988235
0.0006443281425
0.000643269418
0.000641344402
0.0006385752904
0.0006349847245
0.0006305959929
0.0006254334551
0.0006195211289
0.0006128818893
0.0006055383566
0.0005975082571
0.000588813606
0.0005794751415
0.0005695189072
0.000558969781
0.0005478518705
0.0005361798464
0.0005239666269
0.0005112307711
0.0004979899442
0.0004842662126
0.0004700708788
0.0004554155579
0.0004403224268
0.0004248148481
0.0004089096117
0.0003926285986
0.000375980522
0.0003589837582
0.0003416411835
0.0003239827732
0.000306004657
0.0002877743509
0.0002692889869
0.0002505676331
0.0002316569797
0.0002132638013
0.0001957541417
0.0002040473721
0.0002124089621
0.0002213423858
0.0002302755747
)


101
(
5.708330121e-21
-7.14592822e-13
-7.662459794e-12
6.277082997e-11
7.971684136e-10
3.859977229e-09
1.253445533e-08
3.536532522e-08
8.947424223e-08
2.085037927e-07
4.503939005e-07
9.074556407e-07
1.703615535e-06
3.015462278e-06
5.054736199e-06
8.047713244e-06
1.222917473e-05
1.783956714e-05
2.507997561e-05
3.407253337e-05
4.49594111e-05
5.77599171e-05
7.238858169e-05
8.878555563e-05
0.0001068307218
0.0001263453577
0.0001471232902
0.0001689504044
0.000191594376
0.0002148487929
0.0002385048637
0.0002623789381
0.0002863343472
0.0003100667595
0.0003335428998
0.0003566088165
0.0003791510784
0.0004010810609
0.0004222845722
0.0004426621214
0.0004621694452
0.0004807982502
0.0004984682666
0.0005151613391
0.0005308698133
0.0005455544866
0.0005592157092
0.0005718317516
0.0005834088287
0.0005939419555
0.0006034439637
0.0006119199959
0.0006193805544
0.0006258377508
0.0006313048546
0.0006357961071
0.0006393247503
0.0006419147439
0.0006435822457
0.0006443497734
0.0006442374356
0.0006432654977
0.0006414540388
0.0006388228845
0.0006353925211
0.0006311847468
0.0006262224663
0.00062052846
0.0006141249615
0.0006070289515
0.0005992599352
0.0005908365473
0.0005817829484
0.0005721238238
0.0005618831116
0.0005510745895
0.0005397085086
0.0005278017787
0.0005153711931
0.0005024392982
0.0004890164328
0.000475110721
0.0004607410406
0.000445928485
0.0004306898309
0.0004150482945
0.0003990105356
0.0003825988374
0.000365811983
0.0003486806626
0.0003311896889
0.0003134186684
0.000295365608
0.0002770518366
0.0002585240986
0.0002406045437
0.0002237062958
0.0002331756466
0.0002427221216
0.0002529152136
0.0002631070332
)


101
(
5.641821082e-21
-7.171868648e-13
-8.994032135e-12
4.826817043e-11
7.128599189e-10
3.520547165e-09
1.14576821e-08
3.225999048e-08
8.141149665e-08
1.892988505e-07
4.083953579e-07
8.224703648e-07
1.544914182e-06
2.736216765e-06
4.592202561e-06
7.324805183e-06
1.115492354e-05
1.630936933e-05
2.299082799e-05
3.132113819e-05
4.144771088e-05
5.341231227e-05
6.715073084e-05
8.261785159e-05
9.971433669e-05
0.0001182858376
0.0001381481605
0.000159104849
0.0001809379067
0.0002034512961
0.0002264445816
0.000249739938
0.0002732032828
0.0002965344875
0.0003196989698
0.0003425437131
0.0003649550718
0.0003868430029
0.0004080898013
0.0004285903154
0.000448294879
0.0004671912586
0.0004851948343
0.0005022838046
0.0005184474281
0.000533642617
0.0005478664014
0.0005610920436
0.0005733215014
0.0005845453136
0.0005947734211
0.0006040082464
0.0006122582645
0.0006195333468
0.0006258437373
0.000631200252
0.0006356120469
0.0006391014427
0.0006416810619
0.0006433724544
0.0006441941741
0.0006441652876
0.0006433043142
0.0006416288446
0.0006391565444
0.0006359060206
0.0006318977646
0.0006271539511
0.0006216966969
0.00061554321
0.0006087115379
0.0006012178803
0.0005930840647
0.000584333534
0.0005749899778
0.0005650669723
0.0005545730792
0.0005435231634
0.0005319319127
0.000519822173
0.0005072046214
0.0004940844279
0.000480477139
0.0004664001245
0.0004518700371
0.0004369113985
0.0004215275755
0.0004057447606
0.0003895600631
0.0003730039447
0.00035605095
0.000338787807
0.0003212169482
0.000303360906
0.0002852686053
0.0002678757702
0.0002516431883
0.0002622818248
0.0002730058286
0.0002844482121
0.0002958858492
)


101
(
5.575312093e-21
-7.056253945e-13
-1.009371744e-11
3.53579915e-11
6.361063383e-10
3.210064083e-09
1.047508956e-08
2.943299951e-08
7.407731463e-08
1.718231076e-07
3.701240335e-07
7.44882566e-07
1.39964099e-06
2.480077796e-06
4.166674983e-06
6.657291792e-06
1.015930666e-05
1.488626639e-05
2.103916557e-05
2.874026085e-05
3.81396014e-05
4.929692356e-05
6.216901494e-05
7.672568874e-05
9.28863974e-05
0.0001105191718
0.0001294612413
0.000149534302
0.0001705356179
0.0001922804663
0.0002145775649
0.0002372556271
0.0002601841165
0.0002830681606
0.0003058719921
0.0003284437119
0.0003506697162
0.0003724592577
0.0003936927307
0.0004142609603
0.0004341093367
0.0004532211396
0.0004715069972
0.0004889413551
0.0005055103922
0.000521167521
0.0005359071579
0.0005496984621
0.0005625393201
0.0005744154166
0.0005853332391
0.0005952920546
0.0006042981549
0.0006123595139
0.0006194844589
0.0006256805731
0.0006309529715
0.0006353219747
0.0006387962572
0.0006413958532
0.0006431376194
0.000644039798
0.000644119542
0.0006433930819
0.0006418758581
0.000639583356
0.0006365323416
0.000632743152
0.0006282373563
0.0006230331604
0.0006171483352
0.0006105973285
0.0006033989712
0.0005955748785
0.0005871478554
0.0005781315858
0.0005685333323
0.0005583667049
0.0005476441875
0.0005363870426
0.0005246065534
0.0005123070771
0.0004995007446
0.0004862001854
0.0004724202502
0.0004581887227
0.000443504744
0.0004283955108
0.0004128602926
0.000396928608
0.0003805668838
0.0003638622547
0.0003468249817
0.0003294796692
0.0003118774637
0.0002950662944
0.0002795567911
0.0002913542714
0.0003032454302
0.0003159269055
0.0003286077057
)


101
(
5.508810362e-21
-6.817552049e-13
-1.098223512e-11
2.391066463e-11
5.662841065e-10
2.926034286e-09
9.578271401e-09
2.685959667e-08
6.740868562e-08
1.55932587e-07
3.352833146e-07
6.741302248e-07
1.266836627e-06
2.245465108e-06
3.775817968e-06
6.042005944e-06
9.238243631e-06
1.356518513e-05
1.921964636e-05
2.632423901e-05
3.50298019e-05
4.541009772e-05
5.744164437e-05
7.1109156e-05
8.634947637e-05
0.0001030512136
0.0001210721228
0.0001402520968
0.0001604043171
0.0001813562377
0.0002029265709
0.0002249513135
0.0002473042932
0.0002696969956
0.0002920927833
0.0003143412296
0.0003363289961
0.0003579650019
0.0003791287914
0.0003997086558
0.0004196460388
0.0004389198833
0.0004574360015
0.0004751646285
0.0004920887597
0.0005081584396
0.0005233657118
0.0005376764604
0.0005510853485
0.0005635732333
0.0005751427654
0.0005857894331
0.0005955169687
0.0006043315094
0.000612239754
0.0006192469096
0.0006253547356
0.000630581334
0.0006349311257
0.0006384218183
0.0006410682768
0.0006428878111
0.0006438965317
0.0006441097167
0.0006435413224
0.0006422045509
0.0006401126348
0.0006372820965
0.0006337328752
0.0006294837513
0.000624553158
0.0006189552666
0.0006127065033
0.0006058258936
0.0005983344208
0.0005902453677
0.0005815649839
0.0005723063912
0.0005624810448
0.0005521073567
0.0005411954124
0.0005297506976
0.0005177833776
0.0005053005008
0.0004923130731
0.000478851929
0.0004649149754
0.0004505259565
0.0004356869097
0.0004204309607
0.0004047136938
0.0003886211677
0.0003721708452
0.000355391895
0.0003383363009
0.0003221628914
0.0003074341582
0.0003203807473
0.000333428466
0.0003473355307
0.0003612393339
)


101
(
5.442326889e-21
-6.472981503e-13
-1.167893136e-11
1.380630513e-11
5.028213095e-10
2.666176965e-09
8.759527198e-09
2.451698563e-08
6.134721801e-08
1.414931095e-07
3.035952028e-07
6.096834183e-07
1.145588802e-06
2.030869682e-06
3.417374256e-06
5.475850593e-06
8.387709032e-06
1.234108979e-05
1.752675843e-05
2.40672053e-05
3.211263275e-05
4.174743511e-05
5.296601507e-05
6.576754987e-05
8.010523277e-05
9.588668322e-05
0.00011298912
0.0001312703284
0.0001505597373
0.0001706976756
0.0001915136679
0.0002128517859
0.0002345909858
0.0002564501497
0.0002783922269
0.0003002687492
0.0003219669697
0.0003433957319
0.0003644343347
0.0003849696036
0.000404940257
0.0004243215733
0.0004430149091
0.0004609859692
0.0004782142303
0.0004946463728
0.0005102721077
0.0005250545018
0.0005389856427
0.0005520423859
0.0005642235424
0.0005755204327
0.0005859335358
0.0005954667621
0.0006041253374
0.0006119127916
0.0006188280372
0.0006248875351
0.0006300913371
0.0006344544515
0.0006379888714
0.0006407107645
0.0006426350741
0.0006437763642
0.0006441478761
0.0006437612155
0.0006426271337
0.0006407579711
0.0006381701765
0.0006348817968
0.0006309118536
0.0006262754334
0.000620988139
0.0006150665186
0.0006085289163
0.0006013870689
0.0005936463676
0.0005853195502
0.0005764177088
0.000566957575
0.0005569463587
0.0005463894337
0.0005352978297
0.0005236741102
0.0005115226061
0.0004988744685
0.0004857312971
0.0004721117207
0.0004580168033
0.000443487369
0.0004284695333
0.0004130440866
0.0003972355675
0.0003810801849
0.0003646297401
0.000349152141
0.0003352622265
0.0003493454102
0.000363537749
0.0003786609265
0.000393783269
)


101
(
5.375843415e-21
-6.038577425e-13
-1.220187619e-11
4.933991157e-12
4.451935404e-10
2.428408309e-09
8.011817129e-09
2.238422399e-08
5.583889065e-08
1.28379817e-07
2.747997209e-07
5.510436833e-07
1.035032268e-06
1.834853927e-06
3.089170083e-06
4.955807098e-06
7.603745052e-06
1.120898969e-05
1.595488826e-05
2.196308683e-05
2.938203708e-05
3.83038844e-05
4.873870738e-05
6.069933181e-05
7.415438672e-05
8.902916763e-05
0.0001052192356
0.0001225997318
0.000141016363
0.0001603227989
0.0001803601002
0.0002009811889
0.0002220709037
0.0002433565809
0.0002648012212
0.0002862588758
0.0003076178287
0.0003287871439
0.0003496462692
0.0003700812661
0.0003900291151
0.0004094623419
0.000428278681
0.0004464394384
0.0004639201922
0.0004806640973
0.0004966583628
0.0005118634028
0.0005262693675
0.0005398498016
0.0005526001298
0.0005645075322
0.0005755688343
0.0005857850896
0.0005951596873
0.0006036949213
0.0006113872123
0.0006182520387
0.0006242856768
0.0006295002985
0.0006339043183
0.00063751235
0.0006403377945
0.0006423941907
0.0006436941975
0.0006442491933
0.0006440683736
0.0006431605503
0.0006415379703
0.0006392157714
0.0006362126877
0.0006325448552
0.000628228544
0.000623279166
0.000617712541
0.0006115379179
0.0006047584853
0.0005973863857
0.000589433377
0.0005809154551
0.000571836955
0.0005622009448
0.0005520203427
0.0005412959663
0.0005300247713
0.0005182335332
0.0005059293756
0.0004931290007
0.000479829093
0.0004660758054
0.0004518126831
0.0004371116261
0.0004220018953
0.0004065280825
0.0003907429463
0.000376020574
0.000363027636
0.0003782362927
0.000393562814
0.0004098958121
0.0004262277054
)


101
(
5.309359891e-21
-5.529250805e-13
-1.256795253e-11
-2.808967582e-12
3.929200685e-10
2.21082638e-09
7.328714196e-09
2.044210828e-08
5.083385927e-08
1.164767931e-07
2.486542088e-07
4.977430975e-07
9.343486772e-07
1.656051329e-06
2.789116675e-06
4.478942603e-06
6.882471717e-06
1.01639541e-05
1.449835476e-05
2.000565426e-05
2.683162793e-05
3.507375508e-05
4.475547302e-05
5.59020725e-05
6.849667826e-05
8.248109322e-05
9.77681385e-05
0.0001142496398
0.000131787343
0.000150248456
0.0001694861365
0.0001893629171
0.0002097702721
0.0002304449608
0.0002513505928
0.0002723443112
0.0002933159297
0.000314175125
0.0003348018812
0.0003550819555
0.0003749512138
0.0003943803222
0.0004132644622
0.0004315611254
0.0004492418685
0.0004662460605
0.0004825582943
0.0004981363131
0.0005129683091
0.0005270254525
0.0005403004195
0.0005527763975
0.0005644465016
0.0005753086734
0.0005853636999
0.0005946125205
0.0006030496488
0.0006106899298
0.0006175266342
0.0006235692793
0.0006288225263
0.0006332987773
0.0006370096961
0.0006399671929
0.0006421831147
0.0006436690575
0.000644433646
0.000644483877
0.0006438276337
0.0006424763099
0.0006404462727
0.0006377539493
0.0006344165816
0.000630450158
0.0006258693756
0.0006206809996
0.0006148845894
0.000608490489
0.0006015107095
0.0005939621438
0.0005858477857
0.0005771667115
0.0005679317349
0.0005581449124
0.0005477982938
0.0005369098122
0.0005254893321
0.0005135571958
0.0005011046964
0.000488178524
0.0004747254911
0.0004608069884
0.0004464547625
0.0004317219448
0.0004166636356
0.0004027568677
0.0003907205817
0.0004070471942
0.0004235013112
0.0004410413097
0.0004585753482
)


101
(
5.242876368e-21
-4.958846011e-13
-1.279293832e-11
-9.517688943e-12
3.455603671e-10
2.01169783e-09
6.70436288e-09
1.867307326e-08
4.628624876e-08
1.056766781e-07
2.24932576e-07
4.493437972e-07
8.427662223e-07
1.493166564e-06
2.515214213e-06
4.042418517e-06
6.22009785e-06
9.201135135e-06
1.315145072e-05
1.818855455e-05
2.445474302e-05
3.205082757e-05
4.101130177e-05
5.137246818e-05
6.31308769e-05
7.6243771e-05
9.064020549e-05
0.0001062279534
0.0001228843813
0.0001404901796
0.0001589109343
0.0001780194256
0.0001977145435
0.0002177434593
0.0002380709026
0.0002585577223
0.0002790957621
0.0002995957826
0.0003199387719
0.0003400105792
0.0003597463095
0.000379115362
0.0003980115006
0.0004163892427
0.0004342165208
0.0004514288015
0.0004680076523
0.0004839082052
0.0004991167587
0.0005136022381
0.0005273552015
0.0005403557501
0.0005525933058
0.0005640624021
0.0005747609868
0.0005846878539
0.0005938359344
0.000602219761
0.0006098302842
0.0006166749912
0.0006227550018
0.0006280796547
0.000632658682
0.0006365020878
0.00063962056
0.0006420254775
0.0006437255694
0.0006447271344
0.0006450351943
0.0006446573935
0.000643606049
0.0006418962209
0.0006395455389
0.0006365710303
0.0006329882051
0.0006288030157
0.0006240111804
0.0006186189153
0.0006126367501
0.0006060837553
0.0005989633849
0.0005912713679
0.0005830178131
0.0005742055403
0.0005648256775
0.0005548873043
0.0005443967621
0.0005333808236
0.000521829016
0.0005097830671
0.0004971955642
0.0004841192475
0.0004705831478
0.0004566523882
0.0004423836091
0.0004293540493
0.0004183342482
0.0004357740386
0.0004533529699
0.0004721026251
0.0004908607057
)


101
(
5.176392944e-21
-4.340191504e-13
-1.289158335e-11
-1.528034327e-11
3.027106001e-10
1.829443675e-09
6.133435994e-09
1.706108462e-08
4.215393324e-08
9.588024894e-08
2.034246164e-07
4.054368219e-07
7.595590496e-07
1.344974953e-06
2.265554152e-06
3.643495735e-06
5.612931844e-06
8.315774212e-06
1.19084892e-05
1.650534806e-05
2.224448316e-05
2.922838888e-05
3.750043257e-05
4.710631645e-05
5.805476155e-05
7.031737676e-05
8.383850102e-05
9.854109439e-05
0.0001143176407
0.0001310620394
0.0001486523838
0.000166972159
0.0001859283592
0.0002052795931
0.0002249922909
0.0002449315918
0.0002649918544
0.0002850854035
0.000305094804
0.0003249064545
0.000344454941
0.0003637087001
0.0003825609713
0.0004009642832
0.0004188836489
0.0004362509062
0.0004530443192
0.0004692162544
0.0004847510828
0.0004996156331
0.0005137985962
0.0005272776176
0.0005400391996
0.0005520743662
0.0005633779637
0.000573946328
0.0005837700322
0.000592863667
0.0006012166199
0.0006088349826
0.00061571666
0.0006218679124
0.0006272959023
0.0006320086423
0.0006360154014
0.0006393264366
0.0006419507753
0.0006438948829
0.0006451623463
0.0006457577983
0.000645689135
0.0006449686848
0.0006436127395
0.000641638879
0.0006390641757
0.000635896155
0.0006321286604
0.0006277620389
0.0006228033527
0.0006172717877
0.0006111734523
0.0006045036883
0.0005972683574
0.0005894681437
0.00058109611
0.0005721548203
0.0005626425692
0.0005525907282
0.0005419927674
0.0005308822806
0.0005192153285
0.0005070426463
0.0004943820407
0.0004813152833
0.0004679003085
0.0004558101
0.0004458652226
0.0004644188206
0.0004831250339
0.0005030885099
0.000523064771
)


101
(
5.10990942e-21
-3.685134582e-13
-1.287779755e-11
-2.017874678e-11
2.640003243e-10
1.662625719e-09
5.611091771e-09
1.559152745e-08
3.839833729e-08
8.699603347e-08
1.839352035e-07
3.656407406e-07
6.840458386e-07
1.210321275e-06
2.03832045e-06
3.27953708e-06
5.057387501e-06
7.503212462e-06
1.076381027e-05
1.494953919e-05
2.019375952e-05
2.65992835e-05
3.421640548e-05
4.30984998e-05
5.326508165e-05
6.470095072e-05
7.736478932e-05
9.119400798e-05
0.0001060956634
0.0001219764732
0.0001387268732
0.0001562412689
0.0001744353079
0.0001930800179
0.0002121442222
0.0002314979425
0.0002510385158
0.0002706803033
0.000290308019
0.0003098091808
0.00032911813
0.0003482024779
0.0003669555464
0.0003853286927
0.0004032849466
0.0004207532175
0.0004377083779
0.0004540998213
0.0004699099477
0.0004851034807
0.0004996673932
0.0005135774063
0.0005268176292
0.0005393760466
0.0005512443814
0.0005624160247
0.0005728790355
0.0005826475274
0.0005917095736
0.0006000707628
0.0006077265962
0.0006146804648
0.0006209363881
0.0006265003491
0.0006313796843
0.0006355833453
0.0006391201026
0.0006419965372
0.0006442161445
0.0006457816771
0.0006466973444
0.0006469721089
0.0006466193442
0.0006456557136
0.000644099111
0.0006419598804
0.0006392330197
0.0006359149438
0.0006320062821
0.0006275233795
0.0006224747116
0.0006168586746
0.0006106780849
0.0006039286987
0.0005966047563
0.0005887068427
0.0005802231597
0.0005711843029
0.0005615927262
0.0005514742301
0.0005407834086
0.0005295762879
0.0005178530784
0.0005057124511
0.0004932168443
0.0004821281981
0.0004733176832
0.0004929888625
0.0005128282951
0.000534009439
0.0005552129958
)


101
(
5.043425897e-21
-3.004597212e-13
-1.276435353e-11
-2.428885243e-11
2.290898639e-10
1.509936094e-09
5.132940203e-09
1.425111686e-08