/*--------------------------------*- C++ -*----------------------------------*\
| =========                 |                                                 |
| \\      /  F ield         | OpenFOAM: The Open Source CFD Toolbox           |
|  \\    /   O peration     | Version:  2.3.1                                 |
|   \\  /    A nd           | Web:      www.OpenFOAM.org                      |
|    \\/     M anipulation  |                                                 |
\*---------------------------------------------------------------------------*/
FoamFile
{
    version     2.0;
    format      ascii;
    class       dictionary;
    location    "constant";
    object      C2H6;
}
// * * * * * * * * * * * * * * * * * * * * * * * * * * * * * * * * * * * * * //

C2H6_table
101
(

101
(
4.727860338e-20
1.528229525e-12
3.386479806e-10
6.913371481e-09
5.218398776e-08
2.202670209e-07
6.484054089e-07
1.578278661e-06
3.276658474e-06
6.055746889e-06
1.021632087e-05
1.604773923e-05
2.37263527e-05
3.350983627e-05
4.541586725e-05
5.943020442e-05
7.55228432e-05
9.363241236e-05
0.0001134127566
0.0001349659657
0.0001578814075
0.0001819855085
0.0002072157975
0.0002333160566
0.0002600960308
0.000287398229
0.0003150691899
0.0003429637213
0.0003709474399
0.0003988867361
0.000426656314
0.0004541459284
0.000481309132
0.0005078681614
0.0005338355094
0.0005590980968
0.0005835834594
0.000607271719
0.0006300255412
0.0006516694619
0.0006721637634
0.0006916441811
0.0007098726485
0.0007268524237
0.0007426586108
0.0007571076885
0.0007702852972
0.0007820407492
0.0007924465757
0.000801391228
0.0008089623903
0.0008151050082
0.0008198219639
0.0008231289298
0.0008250527833
0.000825602152
0.0008246065585
0.000822380529
0.0008186874183
0.0008137056875
0.0008073562113
0.0007997266424
0.0007908446537
0.0007807071046
0.0007693647554
0.0007568294642
0.0007431613849
0.00072839231
0.0007125112783
0.0006956145946
0.0006777094571
0.0006588382285
0.0006389960142
0.0006183083033
0.0005968291528
0.0005746114709
0.0005515811708
0.000527837518
0.00050345789
0.0004784888672
0.0004529721788
0.0004268907562
0.0004003552792
0.0003733765769
0.0003460031481
0.0003182809925
0.0002902491866
0.0002619439765
0.0002333979296
0.0002046453811
0.0001757147738
0.0001466424361
0.0001174526251
8.816734622e-05
5.881429642e-05
2.940783187e-05
-3.398758343e-13
3.995292255e-36
1.569785284e-23
-1.483277858e-22
0
)


101
(
4.675152327e-20
-3.835132285e-12
2.189966212e-10
5.974724221e-09
4.764048948e-08
2.045319627e-07
6.063296513e-07
1.481140427e-06
3.083472964e-06
5.710089342e-06
9.650013578e-06
1.518132483e-05
2.248315367e-05
3.179248265e-05
4.315492318e-05
5.656111616e-05
7.198242362e-05
8.936249364e-05
0.0001084300841
0.000129179072
0.0001513406057
0.0001746979773
0.0001991435946
0.0002244993297
0.0002505720393
0.0002771982645
0.00030423103
0.0003315326166
0.0003589666029
0.000386413188
0.0004137484622
0.000440868187
0.0004677211829
0.0004940439221
0.0005198547039
0.0005450357458
0.0005695122699
0.0005932495417
0.0006161401206
0.0006380371094
0.0006588727686
0.0006787095089
0.0006974188589
0.0007149533776
0.0007313398215
0.0007464858246
0.0007603941728
0.000772991141
0.000784275638
0.0007941972111
0.0008027695697
0.0008099800637
0.0008158172682
0.0008202836602
0.0008233939901
0.0008251611372
0.0008255157534
0.0008245418581
0.000822220531
0.0008185800102
0.0008136285974
0.0008073909712
0.0007999025603
0.0007911805911
0.0007812503476
0.0007701356579
0.0007578705367
0.0007444917636
0.0007300162759
0.0007144823761
0.0006979289954
0.0006803906485
0.0006618921515
0.0006424852737
0.0006222308772
0.0006011750851
0.0005793251833
0.0005567094304
0.0005333898589
0.0005094233422
0.000484852573
0.0004597013744
0.0004340169847
0.0004078439686
0.0003812151176
0.0003541706374
0.0003267536752
0.0002990077499
0.0002709665961
0.0002426685446
0.0002141336185
0.0001853999614
0.0001565017446
0.0001274651493
9.83133013e-05
6.914048774e-05
4.004657997e-05
4.214308061e-05
4.425952605e-05
4.654212135e-05
4.882471622e-05
)


101
(
4.622444315e-20
-8.185171223e-12
1.124249565e-10
5.112467742e-09
4.339514489e-08
1.896962541e-07
5.664629592e-07
1.388831731e-06
2.899354026e-06
5.379958365e-06
9.107996993e-06
1.435054132e-05
2.128812938e-05
3.014005441e-05
4.097343036e-05
5.378631808e-05
6.855216712e-05
8.521901031e-05
0.0001035759099
0.0001235448975
0.0001449480701
0.0001675605519
0.0001912360849
0.0002158430244
0.0002412012424
0.0002671447423
0.0002935298623
0.0003202252445
0.0003470952494
0.0003740288653
0.000400906631
0.000427629097
0.0004541437614
0.0004801959686
0.0005058101896
0.0005308688565
0.0005552950568
0.0005790445154
0.0006020220556
0.0006241042451
0.0006452187963
0.0006653834295
0.00068450364
0.0007025327903
0.0007194651159
0.00073523637
0.0007498315095
0.0007631952255
0.0007753093761
0.0007861348452
0.0007956647969
0.0008038873628
0.0008107920767
0.0008163732637
0.00082063486
0.0008235854632
0.0008251983858
0.0008254920211
0.0008244762255
0.0008221636808
0.0008185677127
0.0008137039316
0.0008075970724
0.0008002694885
0.0007917416845
0.0007820356332
0.0007711764439
0.000759194864
0.0007461167595
0.0007319664459
0.0007167784246
0.0007005866179
0.0006834256363
0.0006653320637
0.0006463528258
0.0006265255382
0.0006058764508
0.0005844291907
0.0005622272339
0.000539324358
0.0005157631335
0.0004915787912
0.0004668105107
0.0004415008631
0.0004156821618
0.0003893903941
0.0003626582877
0.0003355334719
0.0003080560644
0.000280270181
0.0002521907596
0.0002238628544
0.0001953075247
0.0001665687231
0.0001376760351
0.0001087961901
8.009263829e-05
8.428562869e-05
8.851846484e-05
9.308369346e-05
9.764891606e-05
)


101
(
4.569736304e-20
-1.161091877e-11
1.809704888e-11
4.322564958e-09
3.943424417e-08
1.757227434e-07
5.287215462e-07
1.301180996e-06
2.724010832e-06
5.064888589e-06
8.589612755e-06
1.355450328e-05
2.014031147e-05
2.85511411e-05
3.887038223e-05
5.110489285e-05
6.523110457e-05
8.120105195e-05
9.885219239e-05
0.0001180611583
0.000138707481
0.0001605761708
0.0001834929713
0.0002073514594
0.0002319895838
0.0002572437956
0.00028297274
0.0003090500992
0.0003353425502
0.0003617451735
0.0003881437759
0.00041444349
0.0004405924122
0.0004663423788
0.0004917228469
0.0005166192641
0.000540954158
0.0005646771984
0.0005876971471
0.0006099063014
0.0006312377132
0.0006516861625
0.0006711616084
0.0006896248197
0.0007070558229
0.0007233946329
0.000738623442
0.000752691743
0.0007655779829
0.0007772440621
0.0007876760358
0.0007968565588
0.0008047744066
0.0008114202665
0.0008167903915
0.0008208866306
0.0008236971777
0.0008252257923
0.0008254767916
0.0008244601146
0.0008221865714
0.0008186683549
0.000813922916
0.0008079702675
0.0008008290954
0.0007925187219
0.0007830592171
0.0007724751881
0.0007607925086
0.0007480319419
0.0007342219987
0.0007193924137
0.0007035790192
0.0006868155127
0.0006691409257
0.000650585457
0.000631176197
0.0006109372152
0.0005899033936
0.0005681201635
0.0005456270484
0.0005224625402
0.0004986668024
0.0004742799477
0.000449332228
0.0004238595294
0.0003978889407
0.0003714573561
0.0003446081484
0.0003173978654
0.0002898361999
0.0002619776385
0.0002338359368
0.0002054534775
0.0001768828063
0.0001483690964
0.0001201385707
0.0001264279645
0.0001327771154
0.0001396251283
0.0001464731329
)


101
(
4.517028293e-20
-1.419739179e-11
-6.479390824e-11
3.601098381e-09
3.574443464e-08
1.625751231e-07
4.93023202e-07
1.218019398e-06
2.557155417e-06
4.764418682e-06
8.094203767e-06
1.279232367e-05
1.903870889e-05
2.702434539e-05
3.684466764e-05
4.851586171e-05
6.201822929e-05
7.730764685e-05
9.426030788e-05
0.0001127264013
0.000132621276
0.0001537478603
0.0001759148166
0.000199027845
0.0002229424384
0.0002475015067
0.0002725665348
0.0002980153075
0.000323717526
0.0003495729026
0.0003754724025
0.0004013256864
0.0004270826061
0.0004525006083
0.0004776127368
0.0005023087346
0.0005265121329
0.0005501693307
0.0005731895553
0.0005954743617
0.0006169645216
0.0006376455968
0.0006574237497
0.0006762635909
0.0006941403504
0.0007109921152
0.0007268001057
0.0007415149006
0.0007551148334
0.000767561246
0.0007788370501
0.0007889197841
0.0007977956475
0.0008054530225
0.0008118833454
0.0008170822401
0.0008210404968
0.0008237601557
0.0008252384243
0.0008254817551
0.0008244971365
0.0008222938025
0.0008188841746
0.0008142842103
0.0008085104295
0.0008015797886
0.0007935088696
0.0007843170914
0.0007740270469
0.0007626572225
0.0007502321459
0.0007367769244
0.0007223249743
0.0007069082588
0.0006905611743
0.0006733084355
0.0006551740513
0.0006361817347
0.0006163613234
0.0005957512858
0.0005743833068
0.000552294792
0.0005295286307
0.0005061239764
0.0004821094811
0.0004575195891
0.0004323791728
0.0004067205101
0.0003805732765
0.0003540066854
0.0003270315734
0.0002997105816
0.0002720565843
0.0002441000044
0.0002159187205
0.0001878540928
0.0001601844748
0.0001685705214
0.0001770362291
0.0001861668502
0.0001952974419
)


101
(
4.464320272e-20
-1.602567663e-11
-1.370258736e-10
2.944269435e-09
3.231271864e-08
1.502179256e-07
4.592873225e-07
1.13918092e-06
2.398502859e-06
4.47809133e-06
7.621114481e-06
1.206311486e-05
1.798230867e-05
2.555827644e-05
3.489508258e-05
4.601816885e-05
5.891248425e-05
7.353775504e-05
8.980113435e-05
0.000107539702
0.0001266910594
0.0001470784596
0.0001685028139
0.0001908747785
0.0002140645167
0.000237923728
0.0002623179435
0.0002871286895
0.0003122289875
0.0003375223648
0.0003629045098
0.0003882894807
0.0004136295582
0.0004386876212
0.0004634991681
0.0004879585463
0.0005119915574
0.0005355434545
0.0005585230085
0.0005808366649
0.0006024320591
0.0006232928571
0.0006433212624
0.0006624825278
0.0006807504551
0.0006980606594
0.0007143931201
0.0007296979637
0.0007439538947
0.0007571217115
0.0007691828683
0.0007801110358
0.0007898892585
0.0007985036065
0.0008059423861
0.000812196354
0.00081725429
0.0008211184305
0.0008237810111
0.000825245284
0.0008255139104
0.0008245928883
0.0008224903774
0.0008192180343
0.0008147894702
0.0008092195034
0.0008025222266
0.0007947130328
0.0007858102252
0.0007758292358
0.0007647914596
0.000752718181
0.0007396395319
0.0007255853156
0.000710586408
0.0006946626384
0.0006778335549
0.0006601223156
0.0006415557798
0.0006221674066
0.000601980612
0.0005810253747
0.0005593465338
0.0005369835117
0.0005139644908
0.0004903229443
0.0004660808063
0.0004412680243
0.0004159053406
0.0003900573447
0.0003637419366
0.0003370329226
0.0003099400748
0.0002824917595
0.0002547747167
0.0002272461517
0.0002002302544
0.0002107133283
0.0002212959457
0.0002327089657
0.0002441220162
)


101
(
4.41161227e-20
-1.71729657e-11
-1.993481041e-10
2.348398334e-09
2.912645653e-08
1.386165408e-07
4.274349746e-07
1.064502499e-06
2.247771639e-06
4.205453684e-06
7.169691887e-06
1.136598932e-05
1.697008096e-05
2.415154985e-05
3.302034983e-05
4.361068757e-05
5.591276457e-05
6.9890284e-05
8.54751404e-05
0.0001025004804
0.0001209179031
0.0001405704977
0.0001612586048
0.0001828945901
0.0002053599521
0.0002285159771
0.0002522334644
0.0002763978023
0.000300885522
0.0003256034903
0.0003504516413
0.0003753481609
0.0004002481011
0.0004249199344
0.0004494008055
0.0004735895091
0.0004974148515
0.0005208225647
0.0005437212705
0.0005660198618
0.0005876709882
0.0006086596663
0.0006288861006
0.0006483148957
0.00066691938
0.0006846333559
0.0007014354752
0.0007172746151
0.0007321295526
0.0007459606428
0.0007587488634
0.0007704652059
0.0007810896928
0.0007906059363
0.0007989997646
0.0008062582852
0.0008123667096
0.0008173274193
0.0008211287641
0.0008237717628
0.0008252550569
0.0008255813258
0.0008247547806
0.0008227825786
0.0008196748271
0.0008154438261
0.0008101019363
0.0008036617023
0.0007961374196
0.0007875409106
0.0007778899558
0.0007672025367
0.0007555055006
0.0007428266808
0.0007291939387
0.000714622753
0.0006991271366
0.0006827287364
0.0006654523369
0.0006473284822
0.00062837434
0.0006086103516
0.00058807808
0.0005668171689
0.0005448560774
0.0005222281294
0.0004989535126
0.0004750599594
0.0004505625592
0.0004255150044
0.000399938218
0.0003739201516
0.0003474679486
0.0003206132744
0.0002934420917
0.000266540435
0.0002402762174
0.0002528558197
0.0002655548787
0.0002792507008
0.0002929465391
)


101
(
4.358904249e-20
-1.771260872e-11
-2.524816141e-10
1.809922159e-09
2.617335792e-08
1.27737187e-07
3.973888199e-07
9.938238908e-07
2.104683485e-06
3.946057016e-06
6.739285325e-06
1.070005902e-05
1.600097869e-05
2.280278149e-05
3.12191216e-05
4.129220976e-05
5.301790284e-05
6.636407804e-05
8.128242382e-05
9.760831558e-05
0.0001153025054
0.0001342261231
0.0001541840466
0.0001750894702
0.0001968323672
0.0002192833337
0.0002423193149
0.0002658299298
0.0002896954424
0.0003138258282
0.0003381248472
0.0003625144828
0.0003869526322
0.0004112135822
0.0004353356603
0.0004592217891
0.0004828040605
0.0005060298119
0.0005288083077
0.0005510498288
0.0005727103411
0.0005937771759
0.0006141503853
0.0006337939489
0.0006526809741
0.0006707441926
0.0006879612214
0.0007042793954
0.0007196770428
0.000734113915
0.000747571
0.0007600178311
0.0007714320764
0.0007817947766
0.0007910894809
0.0007993004629
0.00080640912
0.000812417085
0.000817309733
0.0008210865747
0.0008237429506
0.0008252786267
0.0008256942056
0.0008249923749
0.0008231790782
0.0008202633656
0.0008162558685
0.0008111673877
0.0008050092783
0.0007977898504
0.0007895226516
0.0007802222931
0.0007699122384
0.0007586183948
0.0007463664072
0.0007331682767
0.0007190321004
0.0007039764698
0.0006880240594
0.000671203885
0.0006535286261
0.0006350105661
0.0006156846557
0.0005955879477
0.0005747489026
0.0005532010914
0.0005309623778
0.0005080617902
0.0004845079551
0.0004603483445
0.000435591925
0.000410348702
0.0003846224854
0.0003584499438
0.0003319135875
0.0003057327317
0.0002803232375
0.0002949990983
0.0003098144038
0.0003257928282
0.0003417711326
)


101
(
4.306196247e-20
-1.771417948e-11
-2.971192762e-10
1.3253957e-09
2.344149077e-08
1.175469488e-07
3.690732304e-07
9.269879237e-07
1.968963982e-06
3.699457798e-06
6.329248164e-06
1.006443845e-05
1.507394212e-05
2.151058905e-05
2.948999316e-05
3.906145025e-05
5.02266714e-05
6.295792324e-05
7.72227914e-05
9.286284163e-05
0.0001098453052
0.0001280471459
0.000147281091
0.0001674615941
0.00018848504
0.0002102304763
0.0002325814058
0.0002554320997
0.0002786668334
0.0003021986316
0.0003259347749
0.0003498006997
0.0003737570604
0.0003975841419
0.0004213211641
0.0004448749072
0.0004681807376
0.0004911882538
0.000513808209
0.0005359521062
0.0005575780793
0.0005786756852
0.0005991460142
0.0006189529101
0.0006380694419
0.0006564278353
0.0006740051784
0.0006907474289
0.0007066321893
0.000721618283
0.0007356865361
0.0007488058088
0.0007609525434
0.0007721057069
0.0007822465068
0.0007913567897
0.0007994143748
0.0008064196622
0.0008123549959
0.0008172188231
0.0008210040029
0.0008237081963
0.0008253289563
0.000825864995
0.0008253177335
0.0008236920926
0.0008209961454
0.0008172393258
0.0008124313504
0.0008065782392
0.0007996891868
0.000791774686
0.0007828543941
0.00077295219
0.0007620920617
0.000750283686
0.0007375300014
0.0007238452107
0.0007092490589
0.0006937694697
0.0006774163719
0.0006601947713
0.0006421327775
0.0006232618191
0.0006036095828
0.0005832100246
0.0005620768615
0.0005402440748
0.000517712299
0.0004945277641
0.0004706791086
0.0004462967745
0.0004213876225
0.000395988382
0.0003701825845
0.000344821573
0.000320369887
0.0003371424097
0.0003540743428
0.0003723357366
0.0003905972904
)


101
(
4.253488207e-20
-1.724352999e-11
-3.339262682e-10
8.914881069e-10
2.091927034e-08
1.080137529e-07
3.424142394e-07
8.638403869e-07
1.840342309e-06
3.465217083e-06
5.938936928e-06
9.458242802e-06
1.418789799e-05
2.027358813e-05
2.783150861e-05
3.691704342e-05
4.753777036e-05
5.967053856e-05
7.329577665e-05
8.826367139e-05
0.0001045465266
0.0001220350013
0.0001405516351
0.0001600131056
0.0001803209518
0.0002013616514
0.000223025256
0.000245211
0.0002678074729
0.0002907308161
0.0003138916522
0.00033721857
0.0003606747781
0.0003840466575
0.0004073741439
0.0004305676778
0.0004535657729
0.0004763205764
0.0004987450141
0.0005207520766
0.0005423014971
0.0005633846605
0.0005839042678
0.0006038245971
0.0006231189281
0.0006417193516
0.0006596028831
0.0006767145544
0.0006930312508
0.0007085107457
0.0007231334422
0.0007368675637
0.0007496889607
0.0007615756203
0.0007725069338
0.0007824624119
0.0007914167124
0.0007993686824
0.0008062974039
0.0008122002205
0.0008170680812
0.0008208971776
0.0008236829232
0.000825421031
0.0008261087716
0.0008257463262
0.0008243378755
0.000821890934
0.0008184140651
0.0008139125584
0.000808392522
0.0008018601633
0.0007943305256
0.0007858245319
0.000776364556
0.0007659590181
0.0007546073963
0.0007423193345
0.0007291099198
0.0007150055348
0.0007000153075
0.0006841382872
0.0006673951275
0.0006498099391
0.0006314086518
0.0006122264937
0.0005922707511
0.0005715799633
0.0005501512817
0.0005280277133
0.0005051789163
0.000481746623
0.0004577479057
0.0004332185962
0.0004082430062
0.0003838041777
0.0003604167116
0.0003792862515
0.0003983351798
0.000418879306
0.0004394242851
)


101
(
4.200780205e-20
-1.63628492e-11
-3.63540287e-10
5.049834123e-10
1.859546465e-08
9.910640591e-08
3.173396928e-07
8.042304326e-07
1.718552009e-06
3.242901749e-06
5.567713766e-06
8.880592015e-06
1.334176529e-05
1.909039374e-05
2.624217117e-05
3.485755376e-05
4.494983362e-05
5.650058532e-05
6.950069551e-05
8.381033974e-05
9.940622689e-05
0.0001161908386
0.0001339974767
0.0001527461316
0.0001723429027
0.0001926807706
0.0002136560342
0.0002351730183
0.0002571248782
0.0002794310248
0.0003020053659
0.0003247794115
0.0003477187002
0.0003706156981
0.0003935109052
0.000416318297
0.0004389793956
0.0004614489646
0.0004836425331
0.0005054749835
0.0005269075131
0.0005479329856
0.0005684559243
0.0005884414561
0.0006078633414
0.0006266538262
0.0006447901976
0.0006622171586
0.0006789110952
0.0006948287271
0.000709949872
0.0007242420651
0.0007376807195
0.0007502433297
0.000761908508
0.0007726540274
0.0007824516821
0.0007912987863
0.0007991709119
0.0008060640269
0.0008119672329
0.0008168757469
0.0008207835137
0.0008236843939
0.0008255725849
0.0008264439438
0.0008262975575
0.0008251375748
0.0008229710134
0.0008198033685
0.000815639403
0.0008104821395
0.0008043414839
0.0007972344469
0.0007891810081
0.0007801888022
0.0007702549737
0.0007593861203
0.0007475925502
0.0007348965831
0.0007213068842
0.0007068199831
0.000691448778
0.000675208499
0.0006581203724
0.0006402242391
0.0006215200169
0.0006020457514
0.0005818013604
0.0005608261052
0.0005390731599
0.0005166826714
0.0004936893362
0.0004701312635
0.0004460891265
0.0004226783974
0.0004004643505
0.0004214308304
0.0004425966197
0.0004654202903
0.0004882481111
)


101
(
4.148079472e-20
-1.513072089e-11
-3.865719134e-10
1.627786972e-10
1.645918619e-08
9.079455864e-08
2.93779135e-07
7.480103054e-07
1.603330586e-06
3.032083641e-06
5.214945062e-06
8.330607997e-06
1.253445393e-05
1.795961458e-05
2.47204414e-05
3.288146991e-05
4.246141425e-05
5.344664493e-05
6.58366658e-05
7.950225505e-05
9.442427724e-05
0.0001105154889
0.0001276202179
0.0001456627261
0.000164553531
0.000184191416
0.000204478508
0.0002253241536
0.0002466262231
0.0002683075641
0.0002902854176
0.0003124940829
0.0003349011954
0.000357305266
0.0003797471556
0.0004021442909
0.0004244410922
0.0004465949074
0.000468524088
0.0004901457572
0.000511422664
0.0005323489658
0.0005528311395
0.0005728353529
0.0005923361559
0.0006112662193
0.000629603189
0.0006472919027
0.000664308862
0.000680609915
0.0006961742348
0.000710968457
0.0007249675817
0.0007381488717
0.0007504906362
0.0007619698656
0.0007725561768
0.0007822457112
0.0007910103918
0.0007988443932
0.0008057348817
0.000811676058
0.0008166608898
0.0008206822126
0.0008237324719
0.0008258044228
0.0008268923432
0.0008269953179
0.0008261173884
0.000824263932
0.0008214396254
0.000817646358
0.0008128898933
0.0008071825071
0.0008005405662
0.0007929702781
0.0007844670012
0.0007750357538
0.0007646840464
0.0007534287634
0.0007412753935
0.0007282208397
0.000714272957
0.0006994362422
0.0006837237549
0.0006671794438
0.0006498016252
0.0006316209014
0.0006126400682
0.00059290251
0.0005723410005
0.0005510895731
0.000529199147
0.0005067171175
0.000483715764
0.0004614424597
0.0004405129859
0.0004635746287
0.0004868550209
0.0005119459905
0.0005370448321
)


101
(
4.095397021e-20
-1.360218955e-11
-4.036049624e-10
-1.381160679e-10
1.449989772e-08
8.304873864e-08
2.716639241e-07
6.950356199e-07
1.494420052e-06
2.832340607e-06
4.880003172e-06
7.807417692e-06
1.176486861e-05
1.687985836e-05
2.326474788e-05
3.098721346e-05
4.007098779e-05
5.050723359e-05
6.23026211e-05
7.533869781e-05
8.960039021e-05
0.0001050094981
0.0001214212381
0.0001387648316
0.0001569553548
0.0001758969376
0.0001954971124
0.0002156700523
0.0002363183573
0.0002573684385
0.0002787409724
0.0003003730296
0.0003222341702
0.0003441288408
0.0003660980564
0.0003880625868
0.0004099696672
0.0004317791752
0.0004534123877
0.0004747888789
0.000495873106
0.0005166604914
0.0005370595828
0.0005570376861
0.0005765703455
0.0005955909962
0.0006140777558
0.0006319758042
0.0006492620689
0.0006658921839
0.0006818448674
0.0006970858429
0.00071158943
0.0007253326188
0.0007382937939
0.0007504496978
0.0007617687066
0.0007722464193
0.0007818515262
0.0007905761359
0.0007984050049
0.0008053312681
0.000811346885
0.0008164441008
0.0008206147203
0.0008238498863
0.0008261403818
0.0008274799883
0.0008278679968
0.0008273080383
0.0008258048416
0.0008233607775
0.0008199795985
0.0008156693826
0.0008104419718
0.0008043006937
0.0007972390835
0.000789260804
0.0007803725774
0.0007705874358
0.0007599054837
0.0007483224164
0.0007358456185
0.0007224704128
0.0007081973914
0.000693069099
0.0006770905211
0.00066028338
0.000642646865
0.0006242350073
0.000604963346
0.0005849510686
0.0005642644423
0.0005429651826
0.0005211168069
0.000500093439
0.0004805614991
0.0005057110588
0.0005310973932
0.0005584222317
0.0005857659894
)


101
(
4.04271457e-20
-1.182882361e-11
-4.151967661e-10
-4.005790417e-10
1.270740817e-08
7.584034231e-08
2.509272434e-07
6.451654096e-07
1.391566939e-06
2.643256466e-06
4.562266671e-06
7.310153428e-06
1.103190984e-05
1.584973026e-05
2.187349176e-05
2.917314093e-05
3.777695148e-05
4.768078833e-05
5.889734676e-05
7.131878927e-05
8.493410171e-05
9.96731659e-05
0.0001154016715
0.0001320542376
0.0001495507566
0.0001678004738
0.0001867159652
0.0002062159824
0.0002262077602
0.0002466213151
0.0002673808653
0.0002884262999
0.0003097290166
0.0003310993429
0.0003525781843
0.0003740895
0.0003955832531
0.0004170218086
0.0004383294262
0.0004594282309
0.0004802844994
0.0005008949438
0.000521170351
0.0005410792832
0.000560598388
0.000579662171
0.0005982493557
0.0006163055774
0.0006338084672
0.0006507138607
0.0006670003975
0.0006826331766
0.0006975858606
0.0007118348976
0.0007253586495
0.000738134109
0.0007501290331
0.0007613391613
0.0007717309422
0.0007812944554
0.0007900117537
0.0007978746854
0.0008048739782
0.0008110011569
0.0008162477493
0.00082060495
0.000824061773
0.0008266077315
0.0008282366165
0.0008289482986
0.0008287462982
0.0008276338463
0.0008256147248
0.0008226947842
0.000818881834
0.0008141752241
0.0008085649327
0.0008020528255
0.0007946461252
0.0007863566397
0.0007771792375
0.0007671052151
0.0007561431158
0.0007442839487
0.0007315146489
0.0007178680103
0.0007033582365
0.0006880045333
0.0006717973236
0.0006547968251
0.0006369137311
0.0006182450597
0.0005988673812
0.0005788602411
0.0005582812313
0.0005386230532
0.0005206045684
0.0005478205587
0.0005752873325
0.0006047738197
0.0006342800006
)


101
(
3.99003208e-20
-9.858773537e-12
-4.218784635e-10
-6.273777602e-10
1.107187066e-08
6.914162818e-08
2.315040749e-07
5.982621196e-07
1.294522517e-06
2.464421274e-06
4.261120592e-06
6.837952972e-06
1.033447603e-05
1.486783286e-05
2.054504686e-05
2.74375475e-05
3.557762142e-05
4.496566156e-05
5.561948043e-05
6.744150401e-05
8.04247726e-05
9.450651676e-05
0.0001095623696
0.0001255325241
0.0001423419479
0.0001599049407
0.0001781388757
0.0001969668456
0.0002163005368
0.0002360735091
0.0002562135851
0.0002766635777
0.0002973967217
0.000318229173
0.0003392015264
0.000360240727
0.0003812993299
0.0004023421311
0.0004232964204
0.0004440869622
0.0004646818609
0.0004850791427
0.0005051920142
0.0005249904208
0.0005444522006
0.000563513157
0.0005821528731
0.0006003175899
0.0006179855474
0.0006351132454
0.0006516797076
0.0006676496634
0.0006829963096
0.0006976956525
0.0007117256657
0.0007250636687
0.0007376773375
0.0007495631834
0.0007606862527
0.0007710352071
0.0007805894657
0.0007893392852
0.0007972740858
0.0008043842846
0.0008106609855
0.0008160961023
0.0008206785447
0.0008243956736
0.0008272362819
0.0008291954286
0.0008302732181
0.0008304728937
0.0008297989005
0.0008282571682
0.0008258536512
0.0008225841034
0.0008184332491
0.0008133990618
0.0008074888128
0.0008007157479
0.0007930726584
0.00078454417
0.0007751371739
0.0007648431824
0.0007536395601
0.0007415421206
0.0007285689928
0.0007147460006
0.0007000545219
0.0006845523249
0.0006681561313
0.0006509378145
0.0006329771627
0.000614374649
0.0005951857011
0.0005770100514
0.0005606242091
0.0005898574085
0.0006193478528
0.000650867361
0.0006823572798
)


101
(
3.93734959e-20
-7.736847335e-12
-4.241553373e-10
-8.211698549e-10
9.583784595e-09
6.292573835e-08
2.133312583e-07
5.541917698e-07
1.203043202e-06
2.295431981e-06
3.975957466e-06
6.389961968e-06
9.67146606e-06
1.393276904e-05
1.927776766e-05
2.577867712e-05
3.347123626e-05
4.236012929e-05
5.246752516e-05
6.370566799e-05
7.607159977e-05
8.950935265e-05
0.0001039039248
0.0001192010569
0.0001353309717
0.0001522130733
0.0001697694016
0.0001879272055
0.0002066024139
0.0002257319754
0.0002452472912
0.000265094185
0.0002852478241
0.0003055302369
0.0003259814982
0.0003465313482
0.0003671347333
0.0003877587894
0.0004083338711
0.0004287874703
0.000449089499
0.0004692392614
0.000489152533
0.0005088007645
0.0005281631251
0.0005471768949
0.0005658226292
0.0005840475018
0.0006018304256
0.000619128523
0.0006359215383
0.0006521744915
0.0006678602816
0.0006829545666
0.000697435004
0.0007112787777
0.0007244538517
0.0007369579345
0.0007487555535
0.0007598347599
0.0007701728093
0.0007797579782
0.0007885784336
0.0007966233225
0.0008038830502
0.0008103500196
0.0008160139995
0.0008208620472
0.0008248798576
0.0008280581154
0.0008303917984
0.0008318821592
0.0008325337457
0.0008323533301
0.0008313477977
0.000829512008
0.0008268255047
0.0008232792786
0.0008188777091
0.0008136371801
0.0008075522914
0.0008006026302
0.0007927894185
0.000784104265
0.0007745219998
0.00076404116
0.0007526726194
0.0007404536821
0.0007273637582
0.0007134481191
0.0006986353598
0.0006829761239
0.0006665408412
0.0006494576438
0.0006317824509
0.0006152081012
0.0006005748416
0.0006317320828
0.0006631390248
0.000696488589
0.000729894135
)


101
(
3.884667178e-20
-5.504579151e-12
-4.225072049e-10
-9.845042356e-10
8.233988981e-09
5.716667904e-08
1.963474718e-07
5.128239493e-07
1.116890638e-06
2.135892574e-06
3.706177591e-06
5.965333838e-06
9.04178083e-06
1.304314227e-05
1.806999212e-05
2.419472483e-05
3.145596006e-05
3.986237791e-05
4.94398673e-05
6.010995699e-05
7.18736074e-05
8.468123646e-05
9.842663964e-05
0.0001130609412
0.0001285196689
0.000144727407
0.0001616108481
0.0001791012866
0.0001971187213
0.0002156032713
0.0002344897883
0.0002537271337
0.0002732925131
0.0002930139754
0.0003129309664
0.0003329758233
0.0003531056449
0.0003732897376
0.0003934615391
0.0004135513638
0.0004335309331
0.0004534007342
0.0004730791971
0.0004925393716
0.0005117618762
0.0005306856694
0.0005492923973
0.0005675304151
0.000585379466
0.0006027973595
0.0006197645655
0.000636246751
0.0006522171399
0.0006676511967
0.0006825263085
0.0006968195422
0.000710498652
0.0007235628944
0.0007359771749
0.0007477297148
0.0007587962177
0.000769163214
0.0007788173944
0.0007877466836
0.0007959407384
0.0008033916563
0.0008100903863
0.000816025017
0.0008211801427
0.0008255434092
0.0008291045947
0.000831861421
0.0008338165238
0.0008349768921
0.0008353515617
0.0008349382097
0.0008337145053
0.0008316623505
0.0008287799394
0.0008250834607
0.0008205728727
0.0008152286472
0.0008090446465
0.0008020075088
0.0007940949217
0.0007852928673
0.0007755965797
0.0007650502682
0.000753643832
0.0007414029352
0.0007282650924
0.000714274226
0.0006994718918
0.0006840220438
0.000667984894
0.0006531298687
0.0006403652936
0.000673294563
0.0007064453337
0.0007413353585
0.0007762168758
)


101
(
3.831984688e-20
-3.200260032e-12
-4.173926764e-10
-1.119822791e-09
7.013655123e-09
5.183929e-08
1.804931578e-07
4.740316398e-07
1.035831589e-06
1.985413783e-06
3.451188159e-06
5.563228341e-06
8.444321625e-06
1.21975535e-05
1.692003988e-05
2.268382992e-05
2.952987417e-05
3.747049457e-05
4.653474714e-05
5.665288396e-05
6.782963584e-05
8.002147248e-05
9.313050927e-05
0.0001071129592
0.0001219096113
0.0001374502509
0.0001536662666
0.0001704929838
0.0001878543644
0.000205693486
0.000223948431
0.0002425710211
0.0002615405743
0.0002806913567
0.0003000622132
0.0003195879208
0.0003392274811
0.0003589521684
0.0003786984192
0.0003983994305
0.0004180287966
0.0004375880929
0.0004569984382
0.0004762344951
0.0004952784284
0.0005140710875
0.0005325952892
0.0005508007628
0.0005686683467
0.0005861566256
0.0006032467534
0.0006199052631
0.0006361060566
0.0006518248329
0.0006670389336
0.0006817251971
0.0006958512034
0.0007094173944
0.0007223894091
0.0007347565976
0.0007464940858
0.0007575871112
0.0007680206298
0.0007777816184
0.0007868587497
0.0007952435997
0.0008029280278
0.0008099012216
0.0008161485762
0.0008216563086
0.0008264104403
0.0008304047688
0.0008336380548
0.0008361157053
0.000837847975
0.0008388372288
0.0008390640895
0.0008385052828
0.0008371481639
0.0008350036786
0.0008320762981
0.0008283544812
0.0008238272507
0.0008184722708
0.0008122686169
0.0008051984388
0.0007972391335
0.000788428858
0.0007787798155
0.0007682980429
0.0007569197745
0.0007447014876
0.0007316392925
0.0007179315097
0.0007036532514
0.0006906309035
0.0006798441946
0.0007143194351
0.0007489647787
0.0007850332864
0.0008210073454
)


101
(
3.779302198e-20
-8.590559949e-13
-4.092377715e-10
-1.229460746e-09
5.914293282e-09
4.69192892e-08
1.65710671e-07
4.376916067e-07