/*--------------------------------*- C++ -*----------------------------------*\
| =========                 |                                                 |
| \\      /  F ield         | OpenFOAM: The Open Source CFD Toolbox           |
|  \\    /   O peration     | Version:  2.3.1                                 |
|   \\  /    A nd           | Web:      www.OpenFOAM.org                      |
|    \\/     M anipulation  |                                                 |
\*---------------------------------------------------------------------------*/
FoamFile
{
    version     2.0;
    format      ascii;
    class       dictionary;
    location    "constant";
    object      CH2;
}
// * * * * * * * * * * * * * * * * * * * * * * * * * * * * * * * * * * * * * //

CH2_table
101
(

101
(
2.192734246e-21
1.997731998e-14
1.131928305e-12
8.421516346e-12
2.91094641e-11
6.782687781e-11
1.257726771e-10
2.037952687e-10
2.988185808e-10
4.073551778e-10
5.244059751e-10
6.446222372e-10
7.620611739e-10
8.701340827e-10
9.626050304e-10
1.034022399e-09
1.079501383e-09
1.09520025e-09
1.083930546e-09
1.042941521e-09
9.801944647e-10
9.005057162e-10
8.087925162e-10
7.122247561e-10
6.161647615e-10
5.246733042e-10
4.406197468e-10
3.655373431e-10
3.002606624e-10
2.444919897e-10
1.976608807e-10
1.586572887e-10
1.25935897e-10
1.00517532e-10
7.968155594e-11
6.293494604e-11
5.250187355e-11
4.659050387e-11
3.634172277e-11
2.840817873e-11
2.22171568e-11
1.71941252e-11
1.33067042e-11
1.026079432e-11
7.837724117e-12
5.975269422e-12
4.515130108e-12
3.404130967e-12
2.544625464e-12
1.895736922e-12
1.399291633e-12
1.025433107e-12
7.453678424e-13
5.368459154e-13
3.822091845e-13
2.681534711e-13
1.885390149e-13
1.29290695e-13
8.836939721e-14
5.921447747e-14
3.947651433e-14
2.572042351e-14
1.640175373e-14
1.028183187e-14
6.378318166e-15
3.836625771e-15
2.246643468e-15
1.286261395e-15
7.238446378e-16
3.909385599e-16
2.067899945e-16
1.050797707e-16
5.260911756e-17
2.545308963e-17
1.42058821e-17
7.662274637e-18
3.159071825e-18
1.281940787e-18
5.019819748e-19
1.869535398e-19
6.387421588e-20
2.339144983e-20
7.971174351e-21
3.921099166e-21
1.783963836e-21
5.93596045e-22
1.941397447e-22
6.197896137e-23
1.939335414e-23
1.083327109e-23
3.183642972e-24
7.527380008e-25
1.920064961e-25
5.606923367e-26
1.51364973e-26
1.705003142e-27
-2.445821944e-33
-1.549708759e-50
3.311295152e-43
-2.607636062e-43
0
)


101
(
2.167133699e-21
1.13837725e-14
1.048598035e-12
8.028383854e-12
2.795011939e-11
6.534907939e-11
1.214575715e-10
1.970795873e-10
2.894118934e-10
3.951047798e-10
5.094521804e-10
6.27348461e-10
7.43190828e-10
8.507479265e-10
9.440841062e-10
1.017877081e-09
1.067367881e-09
1.088738939e-09
1.083516229e-09
1.049995805e-09
9.937805238e-10
9.198391107e-10
8.330426424e-10
7.396678991e-10
6.451915184e-10
5.538706475e-10
4.68814169e-10
3.919114566e-10
3.242423968e-10
2.658719215e-10
2.164005734e-10
1.749254443e-10
1.400748911e-10
1.12040102e-10
8.922446162e-11
7.076684831e-11
5.7649078e-11
4.921955789e-11
4.033838636e-11
3.200901552e-11
2.51424944e-11
1.959003444e-11
1.521338489e-11
1.178738142e-11
9.085933839e-12
6.978230651e-12
5.330365197e-12
4.052877552e-12
3.06378953e-12
2.304255284e-12
1.722392574e-12
1.279099039e-12
9.433677473e-13
6.896492109e-13
4.993215519e-13
3.57769744e-13
2.547320223e-13
1.795207663e-13
1.25293454e-13
8.646555261e-14
5.90486124e-14
3.980709863e-14
2.640433532e-14
1.722099411e-14
1.104891915e-14
6.977990114e-15
4.317562882e-15
2.616286426e-15
1.549434637e-15
8.921567566e-16
4.996964221e-16
2.723700696e-16
1.448891725e-16
7.358490748e-17
3.634847657e-17
1.767279874e-17
8.057275368e-18
3.493836885e-18
1.4566474e-18
5.738583843e-19
2.108587712e-19
7.029902373e-20
2.338340473e-20
7.563363083e-21
2.703054568e-21
1.301839623e-21
7.012648229e-22
3.298693615e-22
1.104778045e-22
4.219837517e-23
1.700958349e-23
6.3522089e-24
2.185647359e-24
6.868595206e-25
2.346873051e-25
6.540377328e-26
4.566730504e-27
8.328133898e-27
1.666633121e-26
6.673821272e-26
2.777291246e-25
)


101
(
2.141533152e-21
3.341513882e-15
9.688238933e-13
7.648188891e-12
2.68257753e-11
6.294604775e-11
1.17279988e-10
1.906024539e-10
2.803765243e-10
3.834088776e-10
4.952837e-10
6.111448326e-10
7.257176366e-10
8.331202287e-10
9.277093639e-10
1.004301306e-09
1.058240914e-09
1.085722752e-09
1.087207233e-09
1.061572483e-09
1.012705975e-09
9.452477029e-10
8.639886212e-10
7.745100565e-10
6.821907668e-10
5.914407872e-10
5.05592441e-10
4.268647479e-10
3.566367338e-10
2.953122631e-10
2.427430698e-10
1.98251535e-10
1.606450256e-10
1.297316437e-10
1.042584371e-10
8.344154901e-11
6.775983265e-11
5.659324974e-11
4.707973829e-11
3.832203192e-11
3.067310717e-11
2.427687282e-11
1.912348068e-11
1.502925208e-11
1.17779384e-11
9.21115749e-12
7.182458482e-12
5.581179124e-12
4.319541004e-12
3.329552035e-12
2.555326146e-12
1.952610725e-12
1.48579938e-12
1.124661183e-12
8.456019969e-13
6.311951196e-13
4.679883206e-13
3.44779253e-13
2.523208398e-13
1.832108118e-13
1.320948857e-13
9.440921901e-14
6.674159811e-14
4.668818302e-14
3.228417899e-14
2.204824982e-14
1.48383125e-14
9.835102805e-15
6.429443322e-15
4.113677704e-15
2.574466785e-15
1.572462498e-15
9.462220634e-16
5.535603239e-16
3.131642503e-16
1.716817838e-16
9.08462869e-17
4.653452819e-17
2.321572015e-17
1.119596453e-17
5.17641254e-18
2.235047181e-18
9.307049753e-19
3.621672236e-19
1.289286207e-19
4.391261042e-20
1.613588681e-20
7.629852591e-21
3.022773946e-21
1.073714159e-21
4.270537381e-22
1.80995221e-22
7.882634052e-23
3.092315953e-23
1.280924543e-23
4.8142289e-24
7.038309882e-25
2.219029079e-24
6.493544393e-24
3.505041003e-23
-4.855959865e-21
)


101
(
2.115932605e-21
-4.164127115e-15
8.925302136e-13
7.280659999e-12
2.573560041e-11
6.061565294e-11
1.132351223e-10
1.843539701e-10
2.716955253e-10
3.722392455e-10
4.818585006e-10
5.959524385e-10
7.095655287e-10
8.171591878e-10
9.133776298e-10
9.931873565e-10
1.052026435e-09
1.086091264e-09
1.094955054e-09
1.077752698e-09
1.037073066e-09
9.7697012e-10
9.020417536e-10
8.172906098e-10
7.27868656e-10
6.38270509e-10
5.520155524e-10
4.71617049e-10
3.987839632e-10
3.342558446e-10
2.781802284e-10
2.301529548e-10
1.891743197e-10
1.549646411e-10
1.262988665e-10
1.022794628e-10
8.377212083e-11
6.961824691e-11
5.822056021e-11
4.836014459e-11
3.964126223e-11
3.210858603e-11
2.584824616e-11
2.074345289e-11
1.661399781e-11
1.330162279e-11
1.063899439e-11
8.497761424e-12
6.770160298e-12
5.380232579e-12
4.261606183e-12
3.365795913e-12
2.651703938e-12
2.082867312e-12
1.629207852e-12
1.268775779e-12
9.824096053e-13
7.568167374e-13
5.801879969e-13
4.418909689e-13
3.348668063e-13
2.522428319e-13
1.885388896e-13
1.398744763e-13
1.028435312e-13
7.47737939e-14
5.377205911e-14
3.815843184e-14
2.683359917e-14
1.861407423e-14
1.267916586e-14
8.471756715e-15
5.579277721e-15
3.607753792e-15
2.277863137e-15
1.402100219e-15
8.37995324e-16
4.876435568e-16
2.76545148e-16
1.533899219e-16
8.292848998e-17
4.277791342e-17
2.128710895e-17
1.018291817e-17
4.5932234e-18
1.948527961e-18
7.786212886e-19
3.28566944e-19
1.386651299e-19
5.26359183e-20
1.843179761e-20
7.134116167e-21
2.91351636e-21
1.18285317e-21
5.011353669e-22
1.874591686e-22
2.739076192e-23
1.904330504e-22
8.060654433e-22
6.205510924e-21
2.94384173e-20
)


101
(
2.090332058e-21
-1.114777889e-14
8.196416135e-13
6.925523312e-12
2.46787259e-11
5.83555994e-11
1.09317738e-10
1.783231782e-10
2.633496562e-10
3.61563433e-10
4.691273274e-10
5.81700631e-10
6.946411609e-10
8.027475217e-10
9.00950077e-10
9.8438025e-10
1.048565214e-09
1.089701185e-09
1.106624675e-09
1.098496934e-09
1.066877473e-09
1.015112848e-09
9.474838564e-10
8.684496712e-10
7.828612014e-10
6.952049106e-10
6.091366619e-10
5.274298175e-10
4.52125088e-10
3.843001498e-10
3.244108074e-10
2.723876385e-10
2.274415056e-10
1.894293679e-10
1.570904534e-10
1.296745855e-10
1.07380562e-10
8.973595063e-11
7.558973133e-11
6.372640206e-11
5.338733191e-11
4.431768689e-11
3.656796118e-11
3.006039094e-11
2.465748587e-11
2.022779159e-11
1.659453726e-11
1.361479679e-11
1.11558254e-11
9.129283339e-12
7.452587356e-12
6.069735143e-12
4.934537672e-12
4.005281126e-12
3.242287735e-12
2.614785123e-12
2.101584406e-12
1.681797639e-12
1.340904284e-12
1.062496567e-12
8.382673433e-13
6.586272265e-13
5.143951168e-13
3.997194101e-13
3.086610521e-13
2.359581546e-13
1.78719836e-13
1.340571109e-13
9.972286088e-14
7.35791944e-14
5.34345142e-14
3.825115253e-14
2.700731779e-14
1.882866424e-14
1.290747969e-14
8.683953186e-15
5.699068317e-15
3.664067118e-15
2.301571869e-15
1.416896311e-15
8.562559109e-16
5.014436655e-16
2.841252655e-16
1.567065129e-16
8.305612308e-17
4.193069516e-17
1.999831917e-17
9.359736128e-18
4.384351195e-18
1.969910253e-18
7.954240119e-19
3.171334278e-19
1.258317284e-19
4.939258091e-20
2.05915124e-20
7.337948028e-21
1.329518739e-21
1.540461401e-20
6.782132734e-20
5.09546985e-19
1.568354748e-18
)


101
(
2.064731506e-21
-1.762406657e-14
7.500833334e-13
6.582508816e-12
2.365429242e-11
5.616361258e-11
1.055226637e-10
1.724993337e-10
2.553200803e-10
3.513498884e-10
4.570424533e-10
5.683218623e-10
6.808550962e-10
7.897743817e-10
8.902962223e-10
9.777333453e-10
1.047707568e-09
1.096416419e-09
1.12208634e-09
1.123754357e-09
1.102119732e-09
1.059775047e-09
1.000576281e-09
9.284235771e-10
8.478043141e-10
7.631131269e-10
6.780704331e-10
5.956601797e-10
5.182409009e-10
4.472288046e-10
3.83427461e-10
3.270410539e-10
2.775978217e-10
2.352346896e-10
1.986404868e-10
1.671704537e-10
1.406798874e-10
1.189245828e-10
1.01197118e-10
8.646022167e-11
7.377655591e-11
6.261778414e-11
5.290553019e-11
4.453798746e-11
3.739691622e-11
3.139065683e-11
2.635487545e-11
2.214930794e-11
1.861293767e-11
1.563322311e-11
1.310651636e-11
1.096494997e-11
9.157834776e-12
7.641094536e-12
6.366720432e-12
5.289111916e-12
4.381754264e-12
3.617749395e-12
2.980072021e-12
2.441879367e-12
1.991684494e-12
1.620319287e-12
1.311335333e-12
1.057290192e-12
8.4916099e-13
6.770085108e-13
5.355094284e-13
4.201092662e-13
3.26741636e-13
2.531412385e-13
1.938351199e-13
1.467118984e-13
1.096354936e-13
8.105637102e-14
5.916447652e-14
4.259396244e-14
3.017773329e-14
2.099671864e-14
1.428149546e-14
9.548404837e-15
6.277451618e-15
4.065166161e-15
2.551975074e-15
1.56791872e-15
9.361501e-16
5.406232482e-16
2.970419929e-16
1.584856062e-16
8.295379412e-17
4.278474507e-17
2.049328396e-17
9.36056359e-18
4.260020767e-18
1.827079792e-18
8.059477649e-19
3.026932365e-19
6.732940129e-20
7.12035052e-19
3.071925431e-18
2.472656603e-17
7.110990322e-17
)


101
(
2.039130964e-21
-2.360758073e-14
6.837814388e-13
6.251352709e-12
2.266146584e-11
5.403749372e-11
1.018449187e-10
1.668720935e-10
2.475886371e-10
3.41568115e-10
4.455574504e-10
5.557500635e-10
6.6811893e-10
7.781287945e-10
8.812831715e-10
9.730932989e-10
1.049290241e-09
1.106078174e-09
1.1411818e-09
1.153424259e-09
1.142751549e-09
1.110994314e-09
1.061507174e-09
9.975844617e-10
9.232807564e-10
8.428266596e-10
7.599288271e-10
6.777063539e-10
5.988013217e-10
5.249603073e-10
4.573476748e-10
3.964698457e-10
3.421513565e-10
2.949419788e-10
2.53548508e-10
2.174105807e-10
1.86202663e-10
1.597356979e-10
1.376416477e-10
1.191486695e-10
1.032963921e-10
8.934673058e-11
7.708018603e-11
6.630981715e-11
5.689220734e-11
4.876811235e-11
4.179739111e-11
3.587143937e-11
3.080856322e-11
2.646289569e-11
2.270714743e-11
1.944686145e-11
1.662666359e-11
1.420251073e-11
1.212683054e-11
1.03320121e-11
8.781842228e-12
7.444027197e-12
6.297157471e-12
5.306056841e-12
4.455644985e-12
3.73310382e-12
3.115175363e-12
2.589768334e-12
2.147028713e-12
1.771607628e-12
1.452568248e-12
1.183057784e-12
9.562354627e-13
7.690263339e-13
6.143025103e-13
4.866817538e-13
3.817345185e-13
2.964460415e-13
2.277410001e-13
1.730262951e-13
1.301123226e-13
9.641064729e-14
7.016019481e-14
5.023503848e-14
3.540934999e-14
2.470681634e-14
1.686665411e-14
1.127593196e-14
7.400466951e-15
4.728961572e-15
2.91850737e-15
1.739057556e-15
1.018727281e-15
5.887526391e-16
3.238853672e-16
1.685094973e-16
8.777354214e-17
4.359269396e-17
2.160107121e-17
9.07931214e-18
2.465369117e-18
2.673907542e-17
1.046613142e-16
6.572510447e-16
1.605313362e-15
)


101
(
2.013530412e-21
-2.911288128e-14
6.206626307e-13
5.931797281e-12
2.169944342e-11
5.197516135e-11
9.82798621e-11
1.614318776e-10
2.401381862e-10
3.321891427e-10
4.346281905e-10
5.439219493e-10
6.563479291e-10
7.677029043e-10
8.737811131e-10
9.703079447e-10
1.053143724e-09
1.118512698e-09
1.163732164e-09
1.187366825e-09
1.188681272e-09
1.168753418e-09
1.130382963e-09
1.076210739e-09
1.009775062e-09
9.350769016e-10
8.557400117e-10
7.749286717e-10
6.955026533e-10
6.195102816e-10
5.484815525e-10
4.832497483e-10
4.239177447e-10
3.715219809e-10
3.248793049e-10
2.835533363e-10
2.471127028e-10
2.153565398e-10
1.88172383e-10
1.650559567e-10
1.451479864e-10
1.275858315e-10
1.120552289e-10
9.824283861e-11
8.593531989e-11
7.508426246e-11
6.55588109e-11
5.730044296e-11
5.013870606e-11
4.390053457e-11
3.842681533e-11
3.358249533e-11
2.930852432e-11
2.555605038e-11
2.227767829e-11
1.939399641e-11
1.685773675e-11
1.461753347e-11
1.265307148e-11
1.091597057e-11
9.389985701e-12
8.062686613e-12
6.901938117e-12
5.892081932e-12
5.017329348e-12
4.259132221e-12
3.59752905e-12
3.024351709e-12
2.526344894e-12
2.09979506e-12
1.737018496e-12
1.427368388e-12
1.164452907e-12
9.41962071e-13
7.553836275e-13
5.99895766e-13
4.727689768e-13
3.687607183e-13
2.840183943e-13
2.155898747e-13
1.611942354e-13
1.192038069e-13
8.712205381e-14
6.240708687e-14
4.411024169e-14
3.057081972e-14
2.066078875e-14
1.352453288e-14
8.722328285e-15
5.527228057e-15
3.41158182e-15
1.992620523e-15
1.164264121e-15
6.598074208e-16
3.653883539e-16
1.824657975e-16
6.244612118e-17
5.410540288e-16
1.912161011e-15
1.006538231e-14
2.377477191e-14
)


101
(
1.98792987e-21
-3.415452172e-14
5.606543959e-13
5.623591659e-12
2.076745329e-11
4.997463958e-11
9.482317172e-11
1.561698904e-10
2.329526588e-10
3.231856737e-10
4.242128768e-10
5.327779316e-10
6.454619698e-10
7.583944741e-10
8.67665186e-10
9.692292149e-10
1.059098755e-09
1.133538243e-09
1.189542917e-09
1.225409634e-09
1.239777843e-09
1.232987666e-09
1.207243129e-09
1.164508291e-09
1.107708341e-09
1.040540392e-09
9.664906803e-10
8.886789504e-10
8.100877443e-10
7.33007007e-10
6.593207539e-10
5.902131001e-10
5.260550838e-10
4.683932481e-10
4.162273626e-10
3.693148303e-10
3.271873947e-10
2.896227916e-10
2.567125749e-10
2.281705357e-10
2.033229536e-10
1.812926037e-10
1.616922147e-10
1.440915676e-10
1.281906714e-10
1.139309944e-10
1.011644804e-10
8.988119292e-11
7.99496573e-11
7.117760904e-11
6.336484804e-11
5.635987724e-11
5.008172529e-11
4.445016427e-11
3.944973313e-11
3.499320458e-11
3.100204482e-11
2.741148185e-11
2.420742346e-11
2.132085058e-11
1.873170168e-11
1.643054761e-11
1.436982553e-11
1.254374281e-11
1.092856455e-11
9.504134482e-12
8.239123075e-12
7.113511533e-12
6.110337958e-12
5.219343978e-12
4.442270931e-12
3.760895261e-12
3.171616717e-12
2.657759296e-12
2.209301695e-12
1.821818628e-12
1.492107024e-12
1.212735242e-12
9.768094695e-13
7.772287462e-13
6.113662703e-13
4.753347552e-13
3.669543786e-13
2.786475278e-13
2.092479636e-13
1.543299129e-13
1.124001159e-13
7.951199766e-14
5.550898868e-14
3.81434559e-14
2.56395013e-14
1.656902622e-14
1.068298833e-14
6.756170668e-15
4.14715288e-15
2.401825718e-15
1.012685572e-15
6.756921283e-15
2.144188107e-14
9.446975496e-14
2.333776274e-13
)


101
(
1.962329308e-21
-3.874704949e-14
5.03684747e-13
5.326491157e-12
1.986475151e-11
4.803402827e-11
9.147069839e-11
1.510777751e-10
2.260167873e-10
3.145316042e-10
4.142712368e-10
5.222603051e-10
6.353829641e-10
7.501030696e-10
8.628116047e-10
9.697087744e-10
1.066982812e-09
1.150964158e-09
1.218404745e-09
1.267351328e-09
1.295872016e-09
1.303589782e-09
1.292069117e-09
1.262617359e-09
1.217450476e-09
1.159870659e-09
1.093159158e-09
1.020307366e-09
9.443177106e-10
8.676335594e-10
7.924507262e-10
7.203229081e-10
6.519068606e-10
5.892554747e-10
5.315480327e-10
4.788588749e-10
4.307798754e-10
3.870643259e-10
3.47963748e-10
3.133417921e-10
2.827248924e-10
2.553213089e-10
2.307962788e-10
2.086063471e-10
1.883572368e-10
1.69963335e-10
1.532244538e-10
1.381791762e-10
1.247129073e-10
1.126522341e-10
1.017872032e-10
9.195419511e-11
8.301944178e-11
7.487403179e-11
6.751196143e-11
6.084249564e-11
5.48090464e-11
4.927632708e-11
4.427729501e-11
3.97117447e-11
3.553410301e-11
3.175760788e-11
2.831008547e-11
2.519532146e-11
2.238640779e-11
1.98613304e-11
1.758978091e-11
1.552750537e-11
1.365429119e-11
1.195418406e-11
1.043085728e-11
9.064743173e-12
7.846712116e-12
6.763157303e-12
5.795851942e-12
4.935419018e-12
4.174286547e-12
3.509473585e-12
2.933885203e-12
2.428105188e-12
1.988297658e-12
1.615100833e-12
1.30226419e-12
1.040154526e-12
8.199785161e-13
6.373164718e-13
4.922224232e-13
3.715213831e-13
2.767579989e-13
2.03509923e-13
1.467756928e-13
1.033125886e-13
7.210452331e-14
4.980014077e-14
3.337207744e-14
2.131471045e-14
1.099781074e-14
5.723747051e-14
1.623444263e-13
5.890061709e-13
1.501811718e-12
)


101
(
1.936728766e-21
-4.290497983e-14
4.49682344e-13
5.040258341e-12
1.899063103e-11
4.615153042e-11
8.821848073e-11
1.461475e-10
2.193163824e-10
3.06202981e-10
4.047655339e-10
5.123137444e-10
6.260346955e-10
7.427292038e-10
8.590959684e-10
9.715955021e-10
1.076616046e-09
1.170585361e-09
1.250085252e-09
1.312949683e-09
1.356737086e-09
1.38039108e-09
1.384803884e-09
1.370625537e-09
1.339320322e-09
1.293683453e-09
1.236700232e-09
1.171152903e-09
1.09996504e-09
1.025636245e-09
9.50589559e-10
8.767206425e-10
8.050089946e-10
7.380769865e-10
6.752093674e-10
6.168775478e-10
5.628586553e-10
5.129058851e-10
4.673542857e-10
4.26195718e-10
3.891557901e-10
3.555697912e-10
3.253054596e-10
2.977370881e-10
2.723889383e-10
2.491475852e-10
2.277002897e-10
2.081100982e-10
1.902801584e-10
1.741116583e-10
1.593974393e-10
1.459764522e-10
1.336590571e-10
1.222859836e-10
1.117905211e-10
1.021772784e-10
9.339581234e-11
8.523366139e-11
7.775637131e-11
7.08508276e-11
6.442844568e-11
5.851412843e-11
5.305002666e-11
4.801755658e-11
4.339009579e-11
3.914723328e-11
3.530138238e-11
3.176073106e-11
2.85048354e-11
2.548592831e-11
2.271479077e-11
2.017322656e-11
1.786610467e-11
1.57720417e-11
1.386536867e-11
1.212074009e-11
1.053599658e-11
9.116539097e-12
7.850908278e-12
6.712920593e-12
5.689146345e-12
4.79058668e-12
4.006095767e-12
3.330409636e-12
2.738547283e-12
2.221285009e-12
1.79412129e-12
1.427234755e-12
1.12090933e-12
8.735355233e-13
6.674265587e-13
5.023581905e-13
3.749393657e-13
2.777526048e-13
2.013828649e-13
1.394648238e-13
8.23608077e-14
3.515669485e-13
8.996653896e-13
2.688472733e-12
5.453277713e-12
)


101
(
1.911131918e-21
-4.664284949e-14
3.985761792e-13
4.764660196e-12
1.814440757e-11
4.432542032e-11
8.506272528e-11
1.413714012e-10
2.128379829e-10
2.981773335e-10
3.956598915e-10
5.028852958e-10
6.173433462e-10
7.36175539e-10
8.563956396e-10
9.747393495e-10
1.087816685e-09
1.192188718e-09
1.284339397e-09
1.361940987e-09
1.422108993e-09
1.463166588e-09
1.485325757e-09
1.488539296e-09
1.473545376e-09
1.442500277e-09
1.397966075e-09
1.3424516e-09
1.27872355e-09
1.209229349e-09
1.136506598e-09
1.062717346e-09
9.891662881e-10
9.19166547e-10
8.520245338e-10
7.886257427e-10
7.290288867e-10
6.730536178e-10
6.210991212e-10
5.732587536e-10
5.294401329e-10
4.891037849e-10
4.524226965e-10
4.187976694e-10
3.87684732e-10
3.589443668e-10
3.32101876e-10
3.072178153e-10
2.842242976e-10
2.631222622e-10
2.437145109e-10
2.258695055e-10
2.093771086e-10
1.939877768e-10
1.795665281e-10
1.662638818e-10
1.539076355e-10
1.423208511e-10
1.315407965e-10
1.215253439e-10
1.121013005e-10
1.032760198e-10
9.500756724e-11
8.726583827e-11
8.005584205e-11
7.332991775e-11
6.711429305e-11
6.136673523e-11
5.602201172e-11
5.099874316e-11
4.630367055e-11
4.190772956e-11
3.783583897e-11
3.407279602e-11
3.059014215e-11
2.734163508e-11
2.4330075e-11
2.157268899e-11
1.903448088e-11
1.671470603e-11
1.458326048e-11
1.264611211e-11
1.090697093e-11
9.365446281e-12
7.971844859e-12
6.703150533e-12
5.611868196e-12
4.660026404e-12
3.827930707e-12
3.116071894e-12
2.499496027e-12
1.986413526e-12
1.564112202e-12
1.224941529e-12
9.467379699e-13
7.050337693e-13
4.707716824e-13
1.622496444e-12
3.765456828e-12
9.728901636e-12
1.872906033e-11
)


101
(
1.885544366e-21
-4.997518992e-14
3.502956246e-13
4.499468892e-12
1.732542146e-11
4.255404292e-11
8.199978252e-11
1.367421458e-10
2.065689729e-10
2.904335166e-10
3.869200429e-10
4.939243314e-10
6.092379158e-10
7.303475258e-10
8.545903334e-10
9.789917782e-10
1.100405056e-09
1.215559808e-09
1.320917069e-09
1.41404767e-09
1.49168396e-09
1.551612468e-09
1.59337753e-09
1.616183898e-09
1.620069742e-09
1.606482977e-09
1.577462806e-09
1.535147317e-09
1.482060307e-09
1.420473678e-09
1.352912285e-09
1.281709585e-09
1.208451012e-09
1.13720243e-09
1.067263196e-09
9.999273862e-10
9.355827896e-10
8.741881345e-10
8.16256722e-10
7.620418172e-10
7.115139495e-10
6.642300516e-10
6.20720718e-10
5.805387011e-10
5.431206518e-10
5.083475654e-10
4.755912439e-10
4.448556701e-10
4.160400577e-10
3.892795064e-10
3.643827585e-10
3.41298361e-10
3.198355991e-10
2.996586164e-10
2.805738061e-10
2.627327348e-10
2.459925703e-10
2.300989744e-10
2.151626408e-10
2.011599076e-10
1.878943781e-10
1.753039822e-10
1.633681287e-10
1.52024901e-10
1.412889444e-10
1.31196032e-10
1.216891971e-10
1.127921863e-10
1.044666745e-10
9.654757922e-11
8.906267131e-11
8.194811497e-11
7.520480638e-11
6.886871795e-11
6.292346422e-11
5.732042967e-11
5.202484571e-11
4.70597986e-11
4.241819979e-11
3.807511115e-11
3.400135602e-11
3.0215559e-11
2.673111027e-11
2.354950058e-11
2.063378548e-11
1.789747805e-11
1.542422812e-11
1.323387995e-11
1.126659147e-11
9.508020279e-12
7.933137994e-12
6.58261282e-12
5.41850222e-12
4.431263071e-12
3.599561274e-12
2.841759421e-12
2.086139772e-12
6.061791352e-12
1.285645494e-11
2.905634921e-11
5.080306797e-11
)


101
(
1.859956813e-21
-5.291652735e-14
3.04770329e-13
4.244460974e-12
1.65330362e-11
4.083581393e-11
7.902611765e-11
1.322526195e-10
2.004977558e-10
2.829523458e-10
3.785131287e-10
4.853822675e-10
6.016496921e-10
7.251512061e-10
8.535585142e-10
9.842019099e-10
1.114203277e-09
1.240493615e-09
1.359577526e-09
1.468992382e-09
1.565127826e-09
1.645340778e-09
1.70855658e-09
1.753226976e-09
1.77869674e-09
1.785642984e-09
1.775512085e-09
1.749980637e-09
1.711244966e-09
1.66126006e-09
1.602392943e-09
1.537042832e-09
1.467004847e-09
1.397082618e-09
1.326519392e-09
1.257026243e-09
1.18935425e-09
1.123688126e-09
1.060744795e-09
1.001003395e-09
9.444005752e-10
8.905023733e-10
8.402084822e-10
7.933070541e-10
7.492992494e-10
7.08176142e-10
6.692094955e-10
6.323253407e-10
5.973243378e-10
5.644671554e-10
5.334552539e-10
5.044155034e-10
4.773215946e-10
4.516892615e-10
4.272474441e-10
4.040830453e-10
3.822698739e-10
3.612774242e-10
3.413931471e-10
3.225310863e-10
3.046025935e-10
2.873626624e-10
2.708315022e-10
2.549610922e-10
2.397914852e-10
2.253047075e-10
2.114547335e-10
1.983534727e-10
1.859155164e-10
1.740761491e-10
1.627614492e-10
1.519070917e-10
1.414090366e-10
1.313646966e-10
1.217934663e-10
1.126664414e-10
1.039613718e-10
9.56885316e-11
8.775871361e-11
8.023341212e-11
7.303344473e-11
6.623191142e-11
5.981024807e-11
5.380426214e-11
4.823620211e-11
4.292045078e-11
3.790249622e-11
3.335889062e-11
2.920358791e-11
2.539700234e-11
2.185994646e-11
1.875241293e-11
1.597161605e-11
1.354584331e-11
1.142201055e-11
9.443330653e-12
7.443482439e-12
1.870568459e-11
3.661635092e-11
7.396066522e-11
1.231593364e-10
)


101
(
1.834369241e-21
-5.548141052e-14
2.619301326e-13
3.999416853e-12
1.576663554e-11
3.916921976e-11
7.613836729e-11
1.278960082e-10
1.946132655e-10
2.757159862e-10
3.70408133e-10
4.772129475e-10
5.945133511e-10
7.204965026e-10
8.531823807e-10
9.90221107e-10
1.129033288e-09
1.266784189e-09
1.400076246e-09
1.526499061e-09
1.642105065e-09
1.743946475e-09
1.830407279e-09
1.899237196e-09
1.949108311e-09
1.979863888e-09
1.992279489e-09
1.987471069e-09
1.967239969e-09
1.933136855e-09
1.887235299e-09
1.831821677e-09
1.768759243e-09
1.703579781e-09
1.63540358e-09
1.566357675e-09
1.497572575e-09
1.429528837e-09
1.363255611e-09
1.299491322e-09
1.238137979e-09
1.178684986e-09
1.122348586e-09
1.0691256e-09
1.018685469e-09
9.712808846e-10
9.261470537e-10
8.831492804e-10
8.419817572e-10
8.029222426e-10
7.655462833e-10
7.301911436e-10
6.97077375e-10
6.655583612e-10
6.353475672e-10
6.064463783e-10
5.790283787e-10
5.524276784e-10
5.268722056e-10
5.024280406e-10
4.79118573e-10
4.565072232e-10
4.345063963e-10
4.132608399e-10
3.928021547e-10
3.729148878e-10
3.537462512e-10
3.352428887e-10
3.176140454e-10
3.006772591e-10
2.843363788e-10
2.68566472e-10
2.531293896e-10
2.381178954e-10
2.23553171e-10
2.094439589e-10
1.959338709e-10
1.828932069e-10
1.702343361e-10
1.580364894e-10
1.461073931e-10
1.34661091e-10
1.237017905e-10
1.132177321e-10
1.032768051e-10
9.375003675e-11
8.455539709e-11
7.590941544e-11
6.792104485e-11
6.050441315e-11
5.335757178e-11
4.700571078e-11
4.104830322e-11
3.580413227e-11
3.108785231e-11
2.662936046e-11
2.201397559e-11
4.890082453e-11
8.916118578e-11
1.646855655e-10
2.693536306e-10
)


101
(
1.808781669e-21
-5.768439225e-14
2.217050884e-13
3.764121053e-12
1.502562378e-11
3.755280888e-11
7.333334039e-11
1.236657931e-10
1.889049666e-10
2.687078514e-10
3.625771823e-10
4.693718285e-10
5.877664824e-10
7.162985806e-10
8.533514106e-10
9.96908752e-10
1.144716454e-09
1.29421119e-09
1.442136722e-09
1.58620243e-09
1.722184525e-09
1.846941002e-09
1.958424058e-09
2.053709969e-09
2.130867185e-09
2.188885695e-09
2.227760633e-09
2.247933974e-09
2.250757792e-09
2.237346302e-09
2.20941291e-09
2.168912824e-09
2.117490366e-09
2.061414632e-09
1.999584237e-09
1.934549435e-09
1.86781035e-09
1.800185305e-09
1.733129343e-09
1.667672726e-09
1.603769672e-09
1.540665003e-09
1.479863984e-09
1.421560609e-09
1.365626354e-09
1.312641377e-09
1.261895374e-09
1.21337221e-09
1.16654782e-09
1.12168968e-09
1.078349053e-09
1.036904643e-09
9.977841296e-10
9.604143152e-10
9.244648608e-10
8.898158463e-10
8.567092061e-10
8.243856804e-10
7.929099735e-10
7.6248798e-10
7.332027377e-10
7.047762661e-10
6.768022696e-10
6.496705408e-10
6.232615759e-10
5.972220159e-10
5.718047705e-10
5.46989719e-10
5.23138398e-10
4.999271129e-10
4.773505883e-10
4.554523896e-10
4.337948418e-10
4.125584055e-10
3.91600582e-10
3.708320152e-10
3.507179575e-10
3.311169501e-10
3.120700894e-10
2.933177908e-10
2.747150623e-10
2.565832212e-10
2.388718211e-10
2.217473067e-10
2.052322864e-10
1.891328245e-10
1.734205995e-10
1.58257883e-10
1.439305451e-10
1.305677263e-10
1.173342998e-10
1.054285511e-10
9.396529921e-11
8.366097833e-11
7.430636062e-11
6.528312665e-11
5.580323913e-11
1.121225409e-10
1.922884426e-10
3.301431563e-10
4.957100002e-10
)


101
(
1.783194135e-21
-5.954002857e-14
1.840253615e-13
3.538361524e-12
1.430942589e-11
3.598520144e-11
7.06080202e-11
1.195557416e-10
1.833627768e-10
2.619124771e-10
3.549950028e-10
4.618164214e-10
5.813492234e-10
7.124774929e-10
8.539613303e-10
1.004132022e-09
1.161078052e-09
1.322544747e-09
1.485461697e-09
1.647692654e-09
1.804886763e-09
1.953777722e-09
2.092034459e-09
2.216047008e-09
2.323391934e-09
2.412254812e-09
2.481711457e-09
2.531418921e-09
2.562246113e-09
2.574844005e-09
2.570493239e-09
2.550673229e-09
2.516542886e-09
2.474969773e-09
2.424541188e-09
2.368228908e-09
2.307853988e-09
2.244537285e-09
2.180264828e-09
2.116478646e-09
2.053127063e-09
1.989276413e-09
1.926722212e-09
1.865646106e-09
1.806089243e-09
1.749117207e-09
1.694222325e-09
1.641605663e-09
1.590347478e-09
1.540879134e-09
1.492780982e-09
1.446331686e-09
1.401969193e-09
1.3595234e-09
1.31847083e-09
1.278541499e-09
1.240379493e-09
1.20292714e-09
1.165947321e-09
1.12970941e-09
1.09459285e-09
1.060376846e-09
1.026568329e-09
9.935782591e-10
9.608452845e-10
9.286247973e-10
8.965643364e-10
8.647602537e-10
8.338128996e-10
8.033513934e-10
7.736207918e-10
7.444313433e-10
7.154262679e-10
6.8673097e-10
6.58049505e-10
6.290710758e-10
6.001936282e-10
5.721122522e-10
5.44450049e-10
5.170153012e-10
4.895815236e-10
4.622239104e-10
4.348748414e-10
4.082829683e-10
3.821823882e-10
3.564874371e-10
3.310233703e-10
3.060773456e-10
2.818368597e-10
2.591079748e-10
2.363712151e-10
2.153846432e-10
1.950956865e-10
1.763260505e-10
1.59223906e-10
1.42604065e-10
1.251115927e-10
2.310725028e-10
3.759083237e-10
6.103687707e-10
8.938076741e-10
)


101
(
1.757606563e-21
-6.106288119e-14
1.488190328e-13
3.321928147e-12
1.361748168e-11
3.446507913e-11
6.795955214e-11
1.155598993e-10
1.779766043e-10
2.553147832e-10
3.476386193e-10
4.545072283e-10
5.752046486e-10
7.089565035e-10
8.549106029e-10
1.011760995e-09
1.177947976e-09
1.351563589e-09
1.529772209e-09
1.710575012e-09
1.889739073e-09
2.063901409e-09
2.230602646e-09
2.385545977e-09
2.525906165e-09
2.649202732e-09
2.753523183e-09
2.837614437e-09
2.901810499e-09
2.946250759e-09
2.971661736e-09
2.978973575e-09
2.968740586e-09
2.948170028e-09
2.915392084e-09
2.873799471e-09
2.825449157e-09
2.771638637e-09
2.714873464e-09
2.65716532e-09
2.598622978e-09
2.538167658e-09
2.477748625e-09
2.417491945e-09
2.357518073e-09
2.299410359e-09
2.242953707e-09
2.188679949e-09
2.135409759e-09
2.083668738e-09
2.033026581e-09
1.983740473e-09
1.936121547e-09
1.890368927e-09
1.845974171e-09
1.802334811e-09
1.760636701e-09
1.719445069e-09
1.678504054e-09
1.637738192e-09
1.597812194e-09
1.558640763e-09
1.520022992e-09
1.481988998e-09
1.443699929e-09
1.405885039e-09
1.367400533e-09
1.328756756e-09
1.290503855e-09
1.252710184e-09
1.215295358e-09
1.177966879e-09
1.140715712e-09
1.103481258e-09
1.065785159e-09
1.027273545e-09
9.88214619e-10
9.490958318e-10
9.102826081e-10
8.717008742e-10
8.329267881e-10
7.931776352e-10
7.52960788e-10
7.131509049e-10
6.735918232e-10
6.341650061e-10
5.944635288e-10
5.553077805e-10
5.162727413e-10
4.793171058e-10
4.424449136e-10
4.072246083e-10
3.732475473e-10
3.412478032e-10
3.11665951e-10
2.830846481e-10
2.530390385e-10
4.370436993e-10
6.808065887e-10
1.061014407e-09
1.521169096e-09
)


101
(
1.732018991e-21
-6.226750775e-14
1.160182508e-13
3.114614597e-12
1.294925211e-11
3.299119572e-11
6.538526621e-11
1.116726747e-10