/*--------------------------------*- C++ -*----------------------------------*\
| =========                 |                                                 |
| \\      /  F ield         | OpenFOAM: The Open Source CFD Toolbox           |
|  \\    /   O peration     | Version:  2.3.1                                 |
|   \\  /    A nd           | Web:      www.OpenFOAM.org                      |
|    \\/     M anipulation  |                                                 |
\*---------------------------------------------------------------------------*/
FoamFile
{
    version     2.0;
    format      ascii;
    class       dictionary;
    location    "constant";
    object      CH3;
}
// * * * * * * * * * * * * * * * * * * * * * * * * * * * * * * * * * * * * * //

CH3_table
101
(

101
(
5.553700173e-17
1.077713189e-11
2.818289899e-10
1.543150944e-09
4.639230747e-09
1.020143273e-08
1.863128073e-08
3.058918621e-08
4.635547817e-08
6.636636798e-08
9.090276107e-08
1.203632184e-07
1.54896008e-07
1.950325328e-07
2.406936829e-07
2.917493972e-07
3.478923188e-07
4.084502416e-07
4.7192004e-07
5.369770335e-07
6.015375368e-07
6.634851111e-07
7.201296364e-07
7.696508359e-07
8.105219917e-07
8.415330558e-07
8.621734373e-07
8.72565044e-07
8.728502323e-07
8.640065759e-07
8.470458457e-07
8.232767063e-07
7.94218964e-07
7.595731286e-07
7.21789885e-07
6.816296741e-07
6.811955015e-07
7.097516543e-07
6.601952709e-07
6.10655643e-07
5.620098581e-07
5.144171859e-07
4.68489832e-07
4.244199788e-07
3.823213001e-07
3.426037469e-07
3.051171907e-07
2.702785325e-07
2.37817853e-07
2.080410024e-07
1.807281491e-07
1.559244279e-07
1.335216486e-07
1.134581223e-07
9.565028229e-08
7.987118088e-08
6.631168353e-08
5.437834478e-08
4.425776444e-08
3.558332169e-08
2.838610397e-08
2.230834869e-08
1.72626271e-08
1.316321045e-08
9.979934236e-09
7.395430815e-09
5.382401518e-09
3.859026026e-09
2.723418235e-09
1.872517582e-09
1.268298936e-09
8.34530843e-10
5.377378593e-10
3.40986529e-10
2.563997156e-10
1.826501429e-10
1.050337168e-10
5.973123043e-11
3.345522083e-11
1.845050238e-11
9.924636834e-12
5.511223121e-12
3.017076636e-12
2.180376598e-12
1.482747821e-12
8.114975105e-13
4.434680877e-13
2.406526975e-13
1.291629225e-13
1.064716971e-13
5.628674856e-14
2.58199064e-14
1.222898072e-14
6.960080872e-15
3.65718841e-15
9.256467202e-16
-1.089540413e-21
-5.92093772e-39
8.72507142e-32
-7.998019298e-32
0
)


101
(
5.502624146e-17
9.009670806e-12
2.669956942e-10
1.480965661e-09
4.468049321e-09
9.838989191e-09
1.798005807e-08
2.950951091e-08
4.470465188e-08
6.396420077e-08
8.755647632e-08
1.158417923e-07
1.489771492e-07
1.874183148e-07
2.311652857e-07
2.800995904e-07
3.339508564e-07
3.921477465e-07
4.534444843e-07
5.164976384e-07
5.795912643e-07
6.406859345e-07
6.973402447e-07
7.477255684e-07
7.902803109e-07
8.237340289e-07
8.474118444e-07
8.612419809e-07
8.653411082e-07
8.604057966e-07
8.473565514e-07
8.272552096e-07
8.011843471e-07
7.695219395e-07
7.333221625e-07
6.93717041e-07
6.743299043e-07
6.803960512e-07
6.561395881e-07
6.136640161e-07
5.674345728e-07
5.212516962e-07
4.766422431e-07
4.338712235e-07
3.929779575e-07
3.542817092e-07
3.17710842e-07
2.834532216e-07
2.514906162e-07
2.219244652e-07
1.947141385e-07
1.698330493e-07
1.471966573e-07
1.266073191e-07
1.080981015e-07
9.163212411e-08
7.721050831e-08
6.455605581e-08
5.357539693e-08
4.408912281e-08
3.598849163e-08
2.910085502e-08
2.326661241e-08
1.837282425e-08
1.435125063e-08
1.109548109e-08
8.459277859e-09
6.360202132e-09
4.706932757e-09
3.425050039e-09
2.451138711e-09
1.723515671e-09
1.191253484e-09
8.010356503e-10
5.338058352e-10
3.528454664e-10
2.234084331e-10
1.371289278e-10
8.254985986e-11
4.867140024e-11
2.810639726e-11
1.578757203e-11
8.819880636e-12
4.943962583e-12
2.851792551e-12
1.727653365e-12
1.090102137e-12
6.729316106e-13
3.966787918e-13
2.424495807e-13
1.478147935e-13
8.875950258e-14
5.155536233e-14
2.878034384e-14
1.656985219e-14
8.611931205e-15
2.254949939e-15
4.104721294e-15
7.758736005e-15
2.226584733e-14
5.402608933e-14
)


101
(
5.45154812e-17
7.32974717e-12
2.526863563e-10
1.420710155e-09
4.302291272e-09
9.489124435e-09
1.735462108e-08
2.848002567e-08
4.314254421e-08
6.171235314e-08
8.445181656e-08
1.116954858e-07
1.436161929e-07
1.806199847e-07
2.227812142e-07
2.700196469e-07
3.221196489e-07
3.786199805e-07
4.38512585e-07
5.005218923e-07
5.632121777e-07
6.246944248e-07
6.827534332e-07
7.355820686e-07
7.815907488e-07
8.194423069e-07
8.482934674e-07
8.678568449e-07
8.781424264e-07
8.795919345e-07
8.729795125e-07
8.591894301e-07
8.389398793e-07
8.129914915e-07
7.812792965e-07
7.451659363e-07
7.19829893e-07
7.119451059e-07
6.958416295e-07
6.641171869e-07
6.237128274e-07
5.802035734e-07
5.372047456e-07
4.955754737e-07
4.553399948e-07
4.169094176e-07
3.802648307e-07
3.454328553e-07
3.125086809e-07
2.815436179e-07
2.525746198e-07
2.256138653e-07
2.006871153e-07
1.776492357e-07
1.563921056e-07
1.369187789e-07
1.192388807e-07
1.033138801e-07
8.905276173e-08
7.631068111e-08
6.502847715e-08
5.505732051e-08
4.625560916e-08
3.856753487e-08
3.191071306e-08
2.61923482e-08
2.128126316e-08
1.71126978e-08
1.362282779e-08
1.069428979e-08
8.28277557e-09
6.311040523e-09
4.759228045e-09
3.523661677e-09
2.555014166e-09
1.815321175e-09
1.259986179e-09
8.559326117e-10
5.708008288e-10
3.719554659e-10
2.369258234e-10
1.459107034e-10
8.793802496e-11
5.097586539e-11
2.850411301e-11
1.566372915e-11
8.896533183e-12
5.425937872e-12
3.181073732e-12
1.845539403e-12
1.11829235e-12
6.870171052e-13
4.425298295e-13
2.736417841e-13
1.749552154e-13
1.072116644e-13
4.169494366e-14
9.748290423e-14
2.189895623e-13
7.197440354e-13
1.55863187e-12
)


101
(
5.400472093e-17
5.735461875e-12
2.388890502e-10
1.362329733e-09
4.141756022e-09
9.151242379e-09
1.675345598e-08
2.749723287e-08
4.166210318e-08
5.959730978e-08
8.156483143e-08
1.078836568e-07
1.387478238e-07
1.7453435e-07
2.153877546e-07
2.612845357e-07
3.120783029e-07
3.674235375e-07
4.26531708e-07
4.882557385e-07
5.51389591e-07
6.142338496e-07
6.74792482e-07
7.313114795e-07
7.82184589e-07
8.260243935e-07
8.618244585e-07
8.890657585e-07
9.076049613e-07
9.176299992e-07
9.197148912e-07
9.146255428e-07
9.027836812e-07
8.852284159e-07
8.610569199e-07
8.297653989e-07
8.063279723e-07
7.925237916e-07
7.787005921e-07
7.562388733e-07
7.240479694e-07
6.858611734e-07
6.460561979e-07
6.063509589e-07
5.672761513e-07
5.294669431e-07
4.928565744e-07
4.575282346e-07
4.233984754e-07
3.906500955e-07
3.592239185e-07
3.29283666e-07
3.009418446e-07
2.741316796e-07
2.487601675e-07
2.249026463e-07
2.023762433e-07
1.813483823e-07
1.618604943e-07
1.437670376e-07
1.271589219e-07
1.119375394e-07
9.798632462e-08
8.528963898e-08
7.377418381e-08
6.335145011e-08
5.398690604e-08
4.558675627e-08
3.823634691e-08
3.176609231e-08
2.609296392e-08
2.115586677e-08
1.698529094e-08
1.346703762e-08
1.051282059e-08
8.069812417e-09
6.076881879e-09
4.49171918e-09
3.264178979e-09
2.332973962e-09
1.637797683e-09
1.116974419e-09
7.452502956e-10
4.835417191e-10
3.027613608e-10
1.827299443e-10
1.063938458e-10
6.335103863e-11
3.761280022e-11
2.121836578e-11
1.162560817e-11
6.689128791e-12
4.03523624e-12
2.46383897e-12
1.562999602e-12
9.483661243e-13
3.621582586e-13
1.346916296e-12
3.884695686e-12
1.724916889e-11
4.358266354e-11
)


101
(
5.349396066e-17
4.224942993e-12
2.255922114e-10
1.305772121e-09
3.986253696e-09
8.82478278e-09
1.617515146e-08
2.655789777e-08
4.025686026e-08
5.760678747e-08
7.887396811e-08
1.043700366e-07
1.343144746e-07
1.690713329e-07
2.08851857e-07
2.537019221e-07
3.035547634e-07
3.5818505e-07
4.170099589e-07
4.790473464e-07
5.432954351e-07
6.082676317e-07
6.721927636e-07
7.333945934e-07
7.902824045e-07
8.414285431e-07
8.8568285e-07
9.223113166e-07
9.509859036e-07
9.716396442e-07
9.845580482e-07
9.904411104e-07
9.89422622e-07
9.828597902e-07
9.69569163e-07
9.491398639e-07
9.296898404e-07
9.162418103e-07
9.053693379e-07
8.904472508e-07
8.67655063e-07
8.375200645e-07
8.036273413e-07
7.680588299e-07
7.318443086e-07
6.960302662e-07
6.606221972e-07
6.257932812e-07
5.913390899e-07
5.575520382e-07
5.242315031e-07
4.91582947e-07
4.598319528e-07
4.290930874e-07
3.992227192e-07
3.702005963e-07
3.422004424e-07
3.151231735e-07
2.89227073e-07
2.642258214e-07
2.404993042e-07
2.181026886e-07
1.969106969e-07
1.770389199e-07
1.584059384e-07
1.407807245e-07
1.243197271e-07
1.090428827e-07
9.507796313e-08
8.237713287e-08
7.065380397e-08
6.001775459e-08
5.052298996e-08
4.216488789e-08
3.480283442e-08
2.836776793e-08
2.274858275e-08
1.800130277e-08
1.403507001e-08
1.078982811e-08
8.183728706e-09
6.073372121e-09
4.419778595e-09
3.157464532e-09
2.198065142e-09
1.482518076e-09
9.635426312e-10
6.173157917e-10
3.941158102e-10
2.450600547e-10
1.423231677e-10
8.215069694e-11
4.706258399e-11
2.697252415e-11
1.628273211e-11
9.199248154e-12
3.759019011e-12
2.241507667e-11
6.582581575e-11
2.811933311e-10
5.691277268e-10
)


101
(
5.29832003e-17
2.796334225e-12
2.127846104e-10
1.250987322e-09
3.835604441e-09
8.509219107e-09
1.561839165e-08
2.565903823e-08
3.892091116e-08
5.572970614e-08
7.636000431e-08
1.011228006e-07
1.302661183e-07
1.641539761e-07
2.030612162e-07
2.471112491e-07
2.96325292e-07
3.506005171e-07
4.095484196e-07
4.723749239e-07
5.382706516e-07
6.059751533e-07
6.739533717e-07
7.40631723e-07
8.044697476e-07
8.640289605e-07
9.180385875e-07
9.655726947e-07
1.006114352e-06
1.039355529e-06
1.065329499e-06
1.084391316e-06
1.096592108e-06
1.103508014e-06
1.103751733e-06
1.096929031e-06
1.087252873e-06
1.0795955e-06
1.074363635e-06
1.067809196e-06
1.055669777e-06
1.03623264e-06
1.011563582e-06
9.834316486e-07
9.529951718e-07
9.216734031e-07
8.897579641e-07
8.577305867e-07
8.25289206e-07
7.925986513e-07
7.593133942e-07
7.255858251e-07
6.917446194e-07
6.581629434e-07
6.247942467e-07
5.913581228e-07
5.58165934e-07
5.251509965e-07
4.92842094e-07
4.60597407e-07
4.288209309e-07
3.981442372e-07
3.681811196e-07
3.393628678e-07
3.117359393e-07
2.848597184e-07
2.58863758e-07
2.338869861e-07
2.100967532e-07
1.880734745e-07
1.67050755e-07
1.472274868e-07
1.286894734e-07
1.116970649e-07
9.615296607e-08
8.202626417e-08
6.923157406e-08
5.776380289e-08
4.751988359e-08
3.866252476e-08
3.11063716e-08
2.475172244e-08
1.931602504e-08
1.487283031e-08
1.124217928e-08
8.3229821e-09
5.962894661e-09
4.19255454e-09
2.903861722e-09
1.993372571e-09
1.300867183e-09
8.239715502e-10
5.190642375e-10
3.132323274e-10
1.929514746e-10
1.092786375e-10
4.826971986e-11
2.728846268e-10
7.787389756e-10
3.25890629e-09
6.432378503e-09
)


101
(
5.247244013e-17
1.447800072e-12
2.004553503e-10
1.197927538e-09
3.689637962e-09
8.204056652e-09
1.508194944e-08
2.479789029e-08
3.76488234e-08
5.395594102e-08
7.4005492e-08
9.811330222e-08
1.265580623e-07
1.597141626e-07
1.979171236e-07
2.41372548e-07
2.901963728e-07
3.44408866e-07
4.03806255e-07
4.677965316e-07
5.357584443e-07
6.066647958e-07
6.792327762e-07
7.520154163e-07
8.235543599e-07
8.924452887e-07
9.57335012e-07
1.017125332e-06
1.071117373e-06
1.118784064e-06
1.159914735e-06
1.194530714e-06
1.22246608e-06
1.245454883e-06
1.262045373e-06
1.271797883e-06
1.276657683e-06
1.280291829e-06
1.284885945e-06
1.289240048e-06
1.289913878e-06
1.28402985e-06
1.272292829e-06
1.255688114e-06
1.235083847e-06
1.212043122e-06
1.187119094e-06
1.161329274e-06
1.134419943e-06
1.106333519e-06
1.076656781e-06
1.045179661e-06
1.01226291e-06
9.78515028e-07
9.442818236e-07
9.088934891e-07
8.725555285e-07
8.353352194e-07
7.978272783e-07
7.594598085e-07
7.206711548e-07
6.821382033e-07
6.435099352e-07
6.051226628e-07
5.675161794e-07
5.302658221e-07
4.932055912e-07
4.565435434e-07
4.204354459e-07
3.857280845e-07
3.521916292e-07
3.197680923e-07
2.884222261e-07
2.58493956e-07
2.3009833e-07
2.033845258e-07
1.785374837e-07
1.552792505e-07
1.335469654e-07
1.137151703e-07
9.589210815e-08
8.030321924e-08
6.631017251e-08
5.407486279e-08
4.35912546e-08
3.457770798e-08
2.683374534e-08
2.037377749e-08
1.529262779e-08
1.1386697e-08
8.204985842e-09
5.700105827e-09
3.964779089e-09
2.667183476e-09
1.788024588e-09
1.090694319e-09
5.370778278e-10
2.911912817e-09
7.270559666e-09
2.408399732e-08
4.363373619e-08
)


101
(
5.196167977e-17
1.775235873e-13
1.885938132e-10
1.146546947e-09
3.548193446e-09
7.908835735e-09
1.456470213e-08
2.397194646e-08
3.643564159e-08
5.227629283e-08
7.179472102e-08
9.531590251e-08
1.231507272e-07
1.5569196e-07
1.933335296e-07
2.363648211e-07
2.850010903e-07
3.393859588e-07
3.994920307e-07
4.649367639e-07
5.352868427e-07
6.097504702e-07
6.873102219e-07
7.666738317e-07
8.464902238e-07
9.254415978e-07
1.002152352e-06
1.075385364e-06
1.144269977e-06
1.208082543e-06
1.266396182e-06
1.318931194e-06
1.365221863e-06
1.407038396e-06
1.44294918e-06
1.472508163e-06
1.496277834e-06
1.516566129e-06
1.536072946e-06
1.555269643e-06
1.57196775e-06
1.583035414e-06
1.588401408e-06
1.588086082e-06
1.582390003e-06
1.572786861e-06
1.559791308e-06
1.544857247e-06
1.528095024e-06
1.50940214e-06
1.488246899e-06
1.463942242e-06
1.436883446e-06
1.407687036e-06
1.376881851e-06
1.343904753e-06
1.30888293e-06
1.271391498e-06
1.232265922e-06
1.190820584e-06
1.14761415e-06
1.103521593e-06
1.05822828e-06
1.012100411e-06
9.656215513e-07
9.187050414e-07
8.708298081e-07
8.224811897e-07
7.734314632e-07
7.246877791e-07
6.766165285e-07
6.289063226e-07
5.816866035e-07
5.351175576e-07
4.895913669e-07
4.452396423e-07
4.028744643e-07
3.621878847e-07
3.230587937e-07
2.8563806e-07
2.502400802e-07
2.177638857e-07
1.88056326e-07
1.604803767e-07
1.358505784e-07
1.136784193e-07
9.367906635e-08
7.57330969e-08
6.06757933e-08
4.80968099e-08
3.751995438e-08
2.823606346e-08
2.128637795e-08
1.573018901e-08
1.144000111e-08
7.883015323e-09
4.475948145e-09
1.910140121e-08
4.292411569e-08
1.211141352e-07
2.0919371e-07
)


101
(
5.145091959e-17
-1.016300139e-12
1.771896783e-10
1.096801712e-09
3.411118743e-09
7.623127108e-09
1.406562036e-08
2.317894019e-08
3.527685528e-08
5.068242553e-08
6.971353885e-08
9.270779218e-08
1.200091688e-07
1.520349844e-07
1.892355161e-07
2.319835897e-07
2.805961358e-07
3.353397371e-07
3.963561834e-07
4.634754662e-07
5.364546397e-07
6.147352714e-07
6.975717386e-07
7.838635671e-07
8.723860375e-07
9.619544498e-07
1.051247959e-06
1.138945557e-06
1.224021807e-06
1.305574162e-06
1.382994793e-06
1.4557645e-06
1.523095997e-06
1.586640958e-06
1.645003774e-06
1.697738669e-06
1.744563872e-06
1.786635915e-06
1.826531812e-06
1.865509568e-06
1.902586941e-06
1.935014124e-06
1.96223209e-06
1.983473923e-06
1.998443205e-06
2.008409749e-06
2.013651659e-06
2.01578115e-06
2.015371687e-06
2.012310888e-06
2.005799433e-06
1.995229369e-06
1.980764005e-06
1.962463494e-06
1.941508461e-06
1.917553817e-06
1.890170397e-06
1.858736119e-06
1.824269291e-06
1.785825347e-06
1.743930584e-06
1.699528766e-06
1.652009753e-06
1.602402711e-06
1.551070846e-06
1.498335559e-06
1.443434597e-06
1.386225188e-06
1.326455371e-06
1.26447943e-06
1.202019996e-06
1.138547336e-06
1.075204e-06
1.011142908e-06
9.461771722e-07
8.809610056e-07
8.167021503e-07
7.535071011e-07
6.912966612e-07
6.296476304e-07
5.694692468e-07
5.114934956e-07
4.573732655e-07
4.050018304e-07
3.563225107e-07
3.102293532e-07
2.680603324e-07
2.27701447e-07
1.919846245e-07
1.603847431e-07
1.322342454e-07
1.063770155e-07
8.558412699e-08
6.804627734e-08
5.304969958e-08
4.039287801e-08
2.609601163e-08
8.781233206e-08
1.797778086e-07
4.412913869e-07
7.470721824e-07
)


101
(
5.094015904e-17
-2.135464777e-12
1.662328656e-10
1.048649854e-09
3.278269583e-09
7.34652548e-09
1.358373843e-08
2.24167722e-08
3.416831905e-08
4.91667061e-08
6.774904671e-08
9.026832984e-08
1.171019903e-07
1.48696572e-07
1.855568033e-07
2.281372275e-07
2.768569043e-07
3.321042916e-07
3.941838401e-07
4.631382695e-07
5.389192116e-07
6.211981749e-07
7.09495962e-07
8.029529466e-07
9.004900726e-07
1.001092428e-06
1.103562792e-06
1.206565528e-06
1.3089548e-06
1.409665853e-06
1.507935365e-06
1.603080106e-06
1.694055203e-06
1.7822711e-06
1.866247896e-06
1.945625216e-06
2.01966612e-06
2.088618266e-06
2.154639441e-06
2.219076642e-06
2.281733796e-06
2.340469478e-06
2.394890931e-06
2.443637536e-06
2.485825905e-06
2.522419507e-06
2.55333532e-06
2.580215215e-06
2.603638413e-06
2.623740843e-06
2.639834296e-06
2.651437932e-06
2.658174479e-06
2.659755669e-06
2.657328334e-06
2.650602501e-06
2.639824277e-06
2.623024483e-06
2.602149251e-06
2.575835116e-06
2.543993776e-06
2.50805249e-06
2.466844524e-06
2.421676173e-06
2.372929351e-06
2.32110135e-06
2.265927071e-06
2.206300371e-06
2.141984948e-06
2.073036136e-06
2.00117015e-06
1.926222242e-06
1.848905795e-06
1.769368087e-06
1.686956048e-06
1.601863023e-06
1.514691247e-06
1.426904257e-06
1.339281581e-06
1.24958733e-06
1.158553947e-06
1.068793541e-06
9.817440585e-07
8.965950457e-07
8.128052454e-07
7.308667622e-07
6.546465295e-07
5.786782722e-07
5.077905955e-07
4.42402326e-07
3.81056731e-07
3.234964834e-07
2.734348254e-07
2.297647436e-07
1.893464694e-07
1.530347868e-07
1.11532598e-07
3.077865339e-07
5.788901029e-07
1.243935276e-06
2.060270104e-06
)


101
(
5.042939887e-17
-3.181747447e-12
1.557135616e-10
1.002051385e-09
3.149510821e-09
7.078652922e-09
1.311815298e-08
2.168348088e-08
3.310627234e-08
4.77223094e-08
6.588965678e-08
8.79788998e-08
1.144008871e-07
1.456348516e-07
1.82238171e-07
2.247444343e-07
2.736734528e-07
3.295339366e-07
3.927864627e-07
4.636841355e-07
5.423789089e-07
6.287725381e-07
7.226453801e-07
8.234088709e-07
9.301684013e-07
1.042102774e-06
1.158190703e-06
1.277156519e-06
1.39778962e-06
1.51889799e-06
1.639571505e-06
1.758997053e-06
1.875972573e-06
1.991714119e-06
2.104510382e-06
2.214075202e-06
2.319500533e-06
2.420354033e-06
2.518140487e-06
2.614003433e-06
2.708167809e-06
2.799013903e-06
2.886696227e-06
2.969571131e-06
3.04629929e-06
3.117497625e-06
3.182507202e-06
3.242786205e-06
3.298745805e-06
3.350998777e-06
3.399049162e-06
3.442666292e-06
3.481066259e-06
3.513465901e-06
3.540001478e-06
3.561556663e-06
3.57873768e-06
3.588528827e-06
3.593090697e-06
3.591049577e-06
3.581531634e-06
3.565858697e-06
3.543441991e-06
3.514703194e-06
3.479867011e-06
3.439523515e-06
3.395270243e-06
3.344620871e-06
3.287527636e-06
3.222551598e-06
3.151286659e-06
3.073819741e-06
2.991716076e-06
2.904934785e-06
2.812642926e-06
2.713570533e-06
2.608602471e-06
2.500225243e-06
2.389174913e-06
2.273237886e-06
2.151530162e-06
2.028104619e-06
1.904099994e-06
1.781169759e-06
1.655777881e-06
1.527410295e-06
1.405283938e-06
1.281815076e-06
1.16078799e-06
1.046819865e-06
9.334582367e-07
8.249967959e-07
7.259114525e-07
6.36157176e-07
5.500852864e-07
4.660888619e-07
3.662303207e-07
8.745232514e-07
1.529718604e-06
2.904714412e-06
4.406523896e-06
)


101
(
4.991866099e-17
-4.156922637e-12
1.456221464e-10
9.56967755e-10
3.024713775e-09
6.819152658e-09
1.266801705e-08
2.097724163e-08
3.208725531e-08
4.634304126e-08
6.412485471e-08
8.582269734e-08
1.118803862e-07
1.428123658e-07
1.792269793e-07
2.217335615e-07
2.709494682e-07
3.275015006e-07
3.920006081e-07
4.649057488e-07
5.465737598e-07
6.371407468e-07
7.366436603e-07
8.447705999e-07
9.608702691e-07
1.084326248e-06
1.214319242e-06
1.349715783e-06
1.489323021e-06
1.631872748e-06
1.776322847e-06
1.921740691e-06
2.066840749e-06
2.212780603e-06
2.357550938e-06
2.500851846e-06
2.641730232e-06
2.779298245e-06
2.914408497e-06
3.04783804e-06
3.17993762e-06
3.309419603e-06
3.43706369e-06
3.561344429e-06
3.680634355e-06
3.795154171e-06
3.903485375e-06
4.006776328e-06
4.105354169e-06
4.20017081e-06
4.290849587e-06
4.377453401e-06
4.459266257e-06
4.534871578e-06
4.603531177e-06
4.667419521e-06
4.725856259e-06
4.776534735e-06
4.820677102e-06
4.858091909e-06
4.886811814e-06
4.90739216e-06
4.919550354e-06
4.923236784e-06
4.919099429e-06
4.906785501e-06
4.888110909e-06
4.862613616e-06
4.829034463e-06
4.78501356e-06
4.731378989e-06
4.667628728e-06
4.595850608e-06
4.516350909e-06
4.428414947e-06
4.329483185e-06
4.220216523e-06
4.103621084e-06
3.978531979e-06
3.845668495e-06
3.702572545e-06
3.551418016e-06
3.395317272e-06
3.237170339e-06
3.070901057e-06
2.893251959e-06
2.718688852e-06
2.542594111e-06
2.363519891e-06
2.186170717e-06
2.005610394e-06
1.829708081e-06
1.661015722e-06
1.503227769e-06
1.349729663e-06
1.19231557e-06
1.002799263e-06
2.077229775e-06
3.408994288e-06
5.919569202e-06
8.674129209e-06
)


101
(
4.940797919e-17
-5.062756453e-12
1.359492105e-10
9.133619519e-10
2.903756294e-09
6.567687975e-09
1.223253309e-08
2.029635282e-08
3.11081071e-08
4.502326396e-08
6.244506204e-08
8.378454216e-08
1.095176079e-07
1.401956559e-07
1.764764281e-07
2.190413367e-07
2.686011023e-07
3.258970413e-07
3.916858664e-07
4.666260144e-07
5.512779982e-07
6.460192494e-07
7.51141036e-07
8.666008678e-07
9.920328817e-07
1.127057264e-06
1.271096736e-06
1.423225382e-06
1.582354483e-06
1.747201369e-06
1.916625846e-06
2.089598593e-06
2.264793396e-06
2.44338633e-06
2.623124917e-06
2.803630491e-06
2.983917086e-06
3.162792134e-06
3.340573766e-06
3.517765554e-06
3.694517435e-06
3.869672858e-06
4.044500991e-06
4.217810601e-06
4.387910975e-06
4.55483185e-06
4.716538927e-06
4.873641719e-06
5.026090725e-06
5.175183144e-06
5.320523776e-06
5.46255492e-06
5.600831202e-06
5.73365295e-06
5.859813038e-06
5.981028907e-06
6.096916246e-06
6.204698706e-06
6.305808962e-06
6.400176349e-06
6.485858349e-06
6.562226155e-06
6.629113093e-06
6.685742539e-06
6.73253655e-06
6.77038743e-06
6.798944531e-06
6.819274753e-06
6.83108009e-06
6.830205234e-06
6.8176222e-06
6.791520431e-06
6.752485483e-06
6.7022851e-06
6.640890578e-06
6.565775403e-06
6.474937495e-06
6.370722165e-06
6.253787077e-06
6.123216443e-06
5.976556941e-06
5.815340562e-06
5.642680184e-06
5.461375949e-06
5.2683694e-06
5.05324819e-06
4.829332226e-06
4.602823699e-06
4.36790457e-06
4.124696441e-06
3.870292322e-06
3.619586027e-06
3.370740787e-06
3.127201819e-06
2.889127523e-06
2.637212339e-06
2.334508764e-06
4.341808221e-06
6.734332987e-06
1.07954741e-05
1.510271204e-05
)


101
(
4.88972974e-17
-5.901007741e-12
1.266855262e-10
8.711983283e-10
2.786522359e-09
6.323941536e-09
1.181094596e-08
1.963921105e-08
3.016597391e-08
4.375795575e-08
6.084152058e-08
8.185067174e-08
1.072918924e-07
1.377543847e-07
1.73944121e-07
2.166109053e-07
2.665549749e-07
3.246273477e-07
3.91724447e-07
4.686965966e-07
5.562974569e-07
6.551529368e-07
7.658108972e-07
8.88500607e-07
1.023165063e-06
1.169684869e-06
1.327769172e-06
1.496763974e-06
1.675774351e-06
1.863569927e-06
2.058959434e-06
2.26086357e-06
2.467962603e-06
2.681453149e-06
2.898904265e-06
3.119859858e-06
3.343307046e-06
3.567874897e-06
3.793503164e-06
4.020549484e-06
4.24876587e-06
4.476880525e-06
4.7064915e-06
4.936808927e-06
5.166216004e-06
5.394799108e-06
5.620219481e-06
5.842508852e-06
6.061143778e-06
6.277560259e-06
6.490735895e-06
6.701706349e-06
6.910947263e-06
7.11630777e-06
7.316194615e-06
7.511479427e-06
7.703300178e-06
7.887110347e-06
8.065322726e-06
8.236959722e-06
8.401326229e-06
8.555883378e-06
8.700643917e-06
8.834817939e-06
8.958805551e-06
9.072373998e-06
9.174724771e-06
9.267932361e-06
9.350919129e-06
9.422037176e-06
9.479955998e-06
9.522671808e-06
9.547604362e-06
9.557121265e-06
9.552137285e-06
9.530873179e-06
9.490948753e-06
9.433082267e-06
9.354465117e-06
9.257637408e-06
9.137693903e-06
8.997077366e-06
8.835451354e-06
8.656566426e-06
8.462592734e-06
8.237113346e-06
7.984250288e-06
7.723018791e-06
7.44748955e-06
7.154740333e-06
6.834300703e-06
6.514605397e-06
6.18611064e-06
5.859138769e-06
5.529963796e-06
5.17918838e-06
4.762716629e-06
8.10730923e-06
1.197095498e-05
1.795078537e-05
2.425884672e-05
)


101
(
4.838661522e-17
-6.673435767e-12
1.178220248e-10
8.304424916e-10
2.672901441e-09
6.087614705e-09
1.140254995e-08
1.900431836e-08
2.925821359e-08
4.254257205e-08
5.930629233e-08
8.000866937e-08
1.051847591e-07
1.354615574e-07
1.715924478e-07
2.143918862e-07
2.647463501e-07
3.236112982e-07
3.920147494e-07
4.709937135e-07
5.614729262e-07
6.643324778e-07
7.803796785e-07
9.101285866e-07
1.053849162e-06
1.211696201e-06
1.383693986e-06
1.569506531e-06
1.768521943e-06
1.979668449e-06
2.201781871e-06
2.433755551e-06
2.674290884e-06
2.924639935e-06
3.182259456e-06
3.446652916e-06
3.71680486e-06
3.991270985e-06
4.269763287e-06
4.552466624e-06
4.838802342e-06
5.127296945e-06
5.419627269e-06
5.715231155e-06
6.01265795e-06
6.312305203e-06
6.611857361e-06
6.910862962e-06
7.208344791e-06
7.505534628e-06
7.800845879e-06
8.095684625e-06
8.391476519e-06
8.685800104e-06
8.977137904e-06
9.265687052e-06
9.55302964e-06
9.834306263e-06
1.011099279e-05
1.038277812e-05
1.064984759e-05
1.090828816e-05
1.115693768e-05
1.139657536e-05
1.162735614e-05
1.184660054e-05
1.205509311e-05
1.225215212e-05
1.244033065e-05
1.261677637e-05
1.277970969e-05
1.292768518e-05
1.305567726e-05
1.316464355e-05
1.325506935e-05
1.332594786e-05
1.337811941e-05
1.340753638e-05
1.34108168e-05
1.339057316e-05
1.333830642e-05
1.325905436e-05
1.315178601e-05
1.301611991e-05
1.285584216e-05
1.265990208e-05
1.242120353e-05
1.215572397e-05
1.187123568e-05
1.156314225e-05
1.120174549e-05
1.084213868e-05
1.044509674e-05
1.005359703e-05
9.649302294e-06
9.217691559e-06
8.694034084e-06
1.374626879e-05
1.943649144e-05
2.76037757e-05
3.635118777e-05
)


101
(
4.787593304e-17
-7.381796742e-12
1.093497988e-10
7.910613205e-10
2.562788363e-09
5.858425423e-09
1.100668654e-08
1.839027553e-08
2.8382382e-08
4.137299709e-08
5.783239439e-08
7.824721111e-08
1.031796061e-07
1.33293376e-07
1.693886286e-07
2.123405877e-07
2.631178224e-07
3.227753311e-07
3.924626162e-07
4.73392839e-07
5.66650314e-07
6.733679279e-07
7.946183165e-07
9.311995518e-07
1.083731155e-06
1.252660242e-06
1.438331271e-06
1.64075101e-06
1.859667784e-06
2.094296277e-06
2.343632841e-06
2.606578541e-06
2.881800353e-06
3.170661598e-06
3.470576853e-06
3.781072156e-06
4.101170188e-06
4.429438797e-06
4.765499731e-06
5.109357233e-06
5.460273173e-06
5.816340823e-06
6.179235484e-06
6.548599211e-06
6.923181505e-06
7.3035655e-06
7.687575185e-06
8.074904055e-06
8.463943155e-06
8.855560181e-06
9.248164604e-06
9.642916584e-06
1.004157745e-05
1.044235554e-05
1.084390221e-05
1.124576274e-05
1.164969767e-05
1.205107261e-05
1.245014212e-05
1.284689097e-05
1.324164638e-05
1.363175692e-05
1.401392855e-05
1.439038239e-05
1.476018608e-05
1.511925348e-05
1.546873434e-05
1.580756214e-05
1.613910758e-05
1.645935814e-05
1.676736465e-05
1.706235767e-05
1.733720009e-05
1.759295059e-05
1.782703551e-05
1.803629487e-05
1.822597422e-05
1.839110315e-05
1.853001149e-05
1.86373769e-05
1.870612929e-05
1.874149975e-05
1.873914271e-05
1.870123325e-05
1.862895958e-05
1.851092917e-05
1.833892575e-05
1.812059967e-05
1.786921092e-05
1.759167063e-05
1.723155582e-05
1.687348778e-05
1.644921707e-05
1.602405213e-05
1.558375247e-05
1.510133187e-05
1.450004205e-05
2.158012871e-05
2.936830039e-05
3.98293205e-05
5.051323198e-05
)


101
(
4.736525162e-17
-8.02784531e-12
1.012600814e-10
7.530228227e-10
2.456083255e-09
5.636109259e-09
1.062274272e-08
1.779577544e-08
2.753620907e-08
4.024549619e-08
5.641364468e-08
7.655603443e-08
1.012614668e-07
1.312288332e-07
1.673039866e-07
2.104191605e-07
2.616192009e-07
3.220533668e-07
3.929828901e-07
4.757792528e-07
5.716920581e-07
6.820938902e-07
8.083329662e-07
9.514726244e-07
1.112506649e-06
1.292203061e-06
1.491210345e-06
1.709889165e-06
1.948413495e-06
2.206397337e-06
2.483124492e-06
2.777600835e-06
3.088462724e-06
3.417164389e-06
3.761163036e-06
4.120095274e-06
4.493062611e-06
4.878689055e-06
5.276629207e-06
5.686794539e-06
6.108180955e-06
6.538639437e-06
6.979850938e-06
7.43136238e-06
7.89207094e-06
8.362900583e-06
8.842003754e-06
9.32935621e-06
9.822503167e-06
1.032238335e-05
1.082766584e-05
1.133896556e-05
1.185765835e-05
1.238331095e-05
1.291421496e-05
1.344951949e-05
1.399217696e-05
1.453732412e-05
1.508390666e-05
1.563175508e-05
1.618221799e-05
1.673316197e-05
1.728111198e-05
1.782790719e-05
1.837024551e-05
1.890788047e-05
1.94375367e-05
1.995822407e-05
2.047400866e-05
2.098077748e-05
2.147963657e-05
2.196725601e-05
2.243794007e-05
2.289138202e-05
2.33230792e-05
2.372659452e-05
2.41041638e-05
2.44617866e-05
2.479057308e-05
2.508573777e-05
2.533925339e-05
2.55497803e-05
2.571062978e-05
2.583210837e-05
2.590729808e-05
2.592952854e-05
2.588436953e-05
2.577618533e-05
2.561137381e-05
2.541720144e-05
2.511907067e-05
2.48080816e-05
2.441647722e-05
2.400103542e-05
2.35736897e-05
2.309632943e-05
2.24893151e-05
3.177521223e-05
4.178750165e-05
5.456742966e-05
6.759675409e-05
)


101
(
4.685456945e-17
-8.613340782e-12
9.354414937e-11
7.162958604e-10
2.3526905e-09
5.420417394e-09
1.02501474e-08
1.721959705e-08
2.671751948e-08
3.91565813e-08
5.504455749e-08
7.492598622e-08
9.941691006e-08
1.292491564e-07
1.653129141e-07
2.085940646e-07
2.602067085e-07
3.213892217e-07
3.935060716e-07
4.780592688e-07
5.764868132e-07
6.903769903e-07
8.213596214e-07
9.707413343e-07
1.139897338e-06
1.329958697e-06
1.541878116e-06
1.776367256e-06
2.034065836e-06
2.315066838e-06
2.619030176e-06
2.945199766e-06
3.292296955e-06
3.661820852e-06
4.051328675e-06
4.460672961e-06
4.889076716e-06
5.335203457e-06
5.798767596e-06
6.279729995e-06
6.776984797e-06
7.28824334e-06
7.814948159e-06
8.356616364e-06
8.912294697e-06
9.483246536e-06
1.006793974e-05
1.066665224e-05
1.127664162e-05
1.189869914e-05
1.253167888e-05
1.317613576e-05
1.383278688e-05
1.450206414e-05
1.518251627e-05
1.587242885e-05
1.657620093e-05
1.728872535e-05
1.800911539e-05
1.873585829e-05
1.947105148e-05
2.021308077e-05
2.096012458e-05
2.171192185e-05
2.246423325e-05
2.321907308e-05
2.396924749e-05
2.471523466e-05
2.545969335e-05
2.62014073e-05
2.69392141e-05
2.766840347e-05
2.838616365e-05
2.909010451e-05
2.977429535e-05
3.043198806e-05
3.106206398e-05
3.166691642e-05
3.22441432e-05
3.279005016e-05
3.329430706e-05
3.374304341e-05
3.413611684e-05
3.448038897e-05
3.476787369e-05
3.49927141e-05
3.513578088e-05
3.520394008e-05
3.518681976e-05
3.513269876e-05
3.496456659e-05
3.47506445e-05
3.444978157e-05
3.410283194e-05
3.37346808e-05
3.332400929e-05
3.277807562e-05
4.433902647e-05
5.659020992e-05
7.166497514e-05
8.69388163e-05
)


101
(
4.634388727e-17
-9.140041933e-12
8.619350807e-11
6.808504574e-10
2.252519608e-09
5.211117561e-09
9.888372765e-09
1.666061319e-08
2.592420024e-08