/*--------------------------------*- C++ -*----------------------------------*\
| =========                 |                                                 |
| \\      /  F ield         | OpenFOAM: The Open Source CFD Toolbox           |
|  \\    /   O peration     | Version:  2.3.1                                 |
|   \\  /    A nd           | Web:      www.OpenFOAM.org                      |
|    \\/     M anipulation  |                                                 |
\*---------------------------------------------------------------------------*/
FoamFile
{
    version     2.0;
    format      ascii;
    class       dictionary;
    location    "constant";
    object      CH3O2;
}
// * * * * * * * * * * * * * * * * * * * * * * * * * * * * * * * * * * * * * //

CH3O2_table
101
(

101
(
2.767658798e-13
2.222795259e-09
3.191851611e-08
1.38220138e-07
3.753107497e-07
7.954535189e-07
1.452387099e-06
2.44270523e-06
3.861455845e-06
5.845932753e-06
8.571824088e-06
1.228450231e-05
1.726440062e-05
2.40246064e-05
3.309660024e-05
4.520678385e-05
6.136913626e-05
8.307278702e-05
0.0001110411474
0.0001483833127
0.0001957605613
0.0002548420308
0.0003289578049
0.0004187075953
0.0005245324798
0.0006465405218
0.0007839871414
0.0009352988767
0.001098771998
0.001271802407
0.001451904929
0.001636498315
0.001823489966
0.002010849458
0.002196468027
0.002379188379
0.00255923315
0.002734484124
0.002897024077
0.003050738418
0.00319525994
0.003331703706
0.003458254985
0.003575064803
0.003682855021
0.003780392979
0.003868501539
0.003946271327
0.004014408124
0.004072301293
0.004120751473
0.004159558161
0.004188888705
0.004209026624
0.004220301867
0.004222918042
0.004215968961
0.004201527859
0.0041783219
0.004147524726
0.004108779169
0.004062874349
0.004009994331
0.003950297063
0.003884215943
0.003811993605
0.003734011148
0.003650553405
0.003561801168
0.003468370214
0.003370439345
0.003268424815
0.003162576635
0.003054021107
0.002947690601
0.002834072718
0.0027110468
0.002585419478
0.002457598646
0.002327834355
0.002196696031
0.002064472674
0.001932340607
0.001803933661
0.001666607153
0.001526156457
0.001385595491
0.001245233558
0.001106121494
0.0009732023581
0.0008307006687
0.0006892889899
0.0005525072009
0.000414002991
0.00027892096
0.000138915658
7.018266609e-12
5.557679435e-32
1.20306453e-22
-7.476520842e-22
0
)


101
(
2.749065699e-13
2.042030389e-09
3.059327871e-08
1.332610227e-07
3.623650899e-07
7.680740466e-07
1.401494216e-06
2.353252931e-06
3.713487476e-06
5.609757869e-06
8.205289378e-06
1.172576431e-05
1.64308627e-05
2.277912256e-05
3.126684183e-05
4.255026018e-05
5.75400597e-05
7.756610784e-05
0.0001034366081
0.0001376631588
0.0001813395217
0.0002358834152
0.0003040573729
0.0003870800317
0.0004855131359
0.0005995748441
0.0007288228462
0.0008720529813
0.001027702888
0.001193612603
0.001367407211
0.001546681555
0.001729375353
0.001912993876
0.002096184683
0.002277295087
0.002456024276
0.00263112843
0.002797226943
0.0029538847
0.003101561651
0.003241070914
0.003371596412
0.003492890649
0.003605281606
0.003708214743
0.003801847077
0.003885816102
0.00396028355
0.004025070737
0.004080445947
0.004126497983
0.004163304517
0.00419103128
0.004209941608
0.0042202814
0.004221771858
0.004215059135
0.004200181894
0.004177431145
0.004146967403
0.004109115028
0.004064200793
0.004012442865
0.003954127338
0.003889578655
0.003819068714
0.003742888077
0.003661270711
0.003574598638
0.003483192483
0.003387351187
0.003287369472
0.003183816514
0.003079102568
0.00297163905
0.002858247068
0.002739352421
0.002616441393
0.00249076121
0.002363164497
0.002233978025
0.002103734609
0.001974492228
0.001843813561
0.00170880499
0.0015706506
0.001431661543
0.001292788665
0.001155991805
0.001019785708
0.0008801853419
0.0007406743572
0.0006038697115
0.0004667556956
0.0003270409503
0.000180733261
0.0001985166148
0.000216349633
0.0002346043714
0.0002528378182
)


101
(
2.730472601e-13
1.868240349e-09
2.930588034e-08
1.284288233e-07
3.497448822e-07
7.414011157e-07
1.351988349e-06
2.266479362e-06
3.570271436e-06
5.381860086e-06
7.852768941e-06
1.119048494e-05
1.563518574e-05
2.159672054e-05
2.953608119e-05
4.00469825e-05
5.394613998e-05
7.241900075e-05
9.631499746e-05
0.0001276890019
0.0001678615728
0.0002181267151
0.0002807833639
0.0003573759712
0.0004486646951
0.0005549900362
0.0006761531744
0.0008112813406
0.0009590163629
0.00111754852
0.001284704246
0.001458245706
0.001636187393
0.001815777938
0.001995974275
0.0021750107
0.00235216473
0.002526558869
0.002694530766
0.002854023386
0.003004826421
0.003147525041
0.003281725525
0.003407267521
0.003524247393
0.003632317637
0.003731474329
0.0038214559
0.003902283747
0.003973847257
0.004036262449
0.004089613026
0.004133988124
0.004169498545
0.004196318868
0.004214658172
0.004224500244
0.004226095414
0.004219645166
0.004205349892
0.004183407405
0.004154042969
0.004117529699
0.004074132579
0.004024104194
0.003967716547
0.003905210973
0.003836861188
0.003762929199
0.003683678851
0.003599447259
0.003510491339
0.003417133928
0.003319663164
0.00321929311
0.003116487511
0.003010068475
0.002898849277
0.002782601071
0.002662220286
0.002539036243
0.002413816506
0.002286872301
0.002159106315
0.002031005861
0.001901220935
0.001767738279
0.001631363221
0.001494323063
0.001357764531
0.001221815233
0.001086123052
0.0009478309296
0.000810614972
0.0006757195837
0.0005332059848
0.0003799527261
0.0004173489243
0.0004549702385
0.0004944788222
0.0005339868739
)


101
(
2.711879502e-13
1.701315509e-09
2.805575713e-08
1.23721605e-07
3.374447582e-07
7.154217414e-07
1.303840819e-06
2.182320036e-06
3.431687395e-06
5.161998266e-06
7.513804174e-06
1.067778818e-05
1.487584746e-05
2.047438154e-05
2.789960774e-05
3.768923531e-05
5.057491804e-05
6.761149511e-05
8.965712654e-05
0.00011841481
0.0001552960826
0.0002015337418
0.0002590619974
0.0003295587036
0.0004139788084
0.0005128007579
0.0006260313635
0.0007530888497
0.0008928487251
0.001043802055
0.001204014368
0.001371430406
0.001544170441
0.00171936872
0.001896080263
0.002072552072
0.002247767889
0.002420970406
0.002589586531
0.002751186297
0.002904828188
0.00305065165
0.00318831608
0.00331780292
0.003439160901
0.003552096585
0.003656576056
0.003752344571
0.003839370536
0.00391753447
0.003986889844
0.004047473277
0.004099361623
0.004142640236
0.004177430264
0.004203890158
0.004222078302
0.004232154412
0.004234283733
0.004228644711
0.004215422697
0.004194806981
0.00416701932
0.004132302956
0.004090895835
0.004043039078
0.003988956056
0.003928875475
0.003863073573
0.003791770664
0.003715262201
0.003633801342
0.003547702338
0.00345717767
0.003362819139
0.003265307525
0.003164730557
0.00306042643
0.002951490533
0.002837692791
0.002719929792
0.002599389016
0.00247672934
0.002352349764
0.002226814232
0.00210037891
0.001971880595
0.001839626589
0.00170505182
0.001570165556
0.001435328394
0.001301100334
0.001166135988
0.001029945528
0.000896222247
0.0007523203215
0.000592472984
0.0006499428982
0.0007077542505
0.0007684409894
0.0008291900339
)


101
(
2.693286404e-13
1.541146583e-09
2.684234743e-08
1.191374481e-07
3.254594102e-07
6.901230731e-07
1.257023149e-06
2.100710868e-06
3.297614976e-06
4.94993257e-06
7.187938864e-06
1.018680632e-05
1.415133318e-05
1.940914937e-05
2.635271091e-05
3.546933058e-05
4.741396405e-05
6.312366766e-05
8.344161172e-05
0.0001097968747
0.0001436048173
0.0001860615228
0.0002388203586
0.0003035726
0.0003814265827
0.0004730020441
0.0005784865382
0.0006975518411
0.0008293144607
0.0009725378932
0.001125539248
0.001286463231
0.001453563342
0.001623959957
0.001796718771
0.001970104898
0.002142969141
0.002314511306
0.002482823319
0.002645621897
0.002801526076
0.002950186317
0.003091066219
0.003224179904
0.003349598685
0.003467061941
0.003576545964
0.003677788404
0.003770730451
0.003855224978
0.003931290262
0.003998916378
0.004058151622
0.004109059532
0.004151725982
0.004186264019
0.004212748029
0.004231309473
0.004242066236
0.004245170696
0.004240782602
0.004229066875
0.004210209242
0.004184417271
0.00415190588
0.004112888999
0.0040675754
0.004016171569
0.003958913253
0.003896003504
0.003827691018
0.003754230578
0.003675921112
0.003592990226
0.003505755015
0.003414664868
0.003320150458
0.003222298395
0.003120524256
0.003014041679
0.002902792263
0.002787742191
0.002670021482
0.002550134165
0.002428374346
0.002305194881
0.002180608756
0.002053275824
0.001922419214
0.00179007566
0.001657310833
0.001524687977
0.001392125201
0.001258122128
0.001125777988
0.0009817428577
0.0008179590398
0.0008948347386
0.0009721044936
0.00105275848
0.001133348368
)


101
(
2.674693302e-13
1.387623675e-09
2.56650913e-08
1.146744467e-07
3.137835822e-07
6.654923916e-07
1.211507109e-06
2.021588254e-06
3.167934011e-06
4.745424763e-06
6.874720383e-06
9.71668161e-06
1.346014228e-05
1.839813535e-05
2.489071442e-05
3.337965956e-05
4.445097304e-05
5.893580528e-05
7.764561965e-05
0.0001017933756
0.0001327446503
0.0001716627871
0.0002199861677
0.0002793497263
0.0003509615931
0.0004355713426
0.0005335275337
0.0006447228833
0.0007685083631
0.0009039000495
0.001049465428
0.001203564425
0.001364605401
0.001529769274
0.001698113174
0.001867916073
0.002037946201
0.002207343417
0.002374574111
0.002537649266
0.002695046652
0.002846032558
0.002989761531
0.003126141362
0.003255240287
0.003376826673
0.00349090771
0.00359722161
0.003695695508
0.003786153293
0.00386858717
0.003942949394
0.004009255086
0.004067540158
0.004117863372
0.004160305564
0.004194925934
0.004221849967
0.004241154134
0.004252972676
0.00425743017
0.004254662708
0.004244829915
0.004228103078
0.004204669239
0.004174725837
0.004138457618
0.004096048733
0.004047701162
0.003993595538
0.003933946455
0.003868975943
0.003798964342
0.003724157884
0.003644798754
0.003561141927
0.003473552231
0.003382394986
0.003287628873
0.003188682447
0.003084856446
0.002976368479
0.002864336972
0.002749675488
0.002632692926
0.002513721927
0.002393035188
0.002270240017
0.002144042338
0.002015128578
0.001885087228
0.001754935496
0.001624697138
0.001493387686
0.001363048175
0.001219663535
0.001053376711
0.001148337247
0.0012440449
0.001345900898
0.001447803587
)


101
(
2.656100207e-13
1.240637002e-09
2.452343214e-08
1.103307123e-07
3.02412082e-07
6.415171445e-07
1.167264815e-06
1.944889418e-06
3.042525455e-06
4.548240412e-06
6.57370491e-06
9.266577781e-06
1.280081288e-05
1.743856234e-05
2.350907601e-05
3.141285046e-05
4.167402699e-05
5.502881766e-05
7.224576412e-05
9.4364612e-05
0.0001226701678
0.0001582872998
0.0002024883827
0.0002568151953
0.0003225238588
0.000400470853
0.0004911459223
0.0005946341665
0.0007105068516
0.0008380150782
0.0009759693121
0.001122950023
0.001277539462
0.001437035799
0.001600498802
0.001766221278
0.001932917281
0.002099663961
0.002265127711
0.002427608165
0.00258563509
0.002738255618
0.002884317589
0.003023523213
0.003155865987
0.003281115136
0.003399314385
0.003510214427
0.003613742108
0.003709699851
0.00379805561
0.003878734944
0.003951720995
0.004017019723
0.004074658562
0.004124698624
0.00416717513
0.004202210707
0.004229849367
0.004250213218
0.004263393819
0.004269496383
0.004268658281
0.004261017519
0.004246725586
0.004225964046
0.004198904765
0.004165708637
0.0041265509
0.004081574195
0.00403097387
0.003974937577
0.003913715171
0.003847546312
0.003776660219
0.003701224719
0.003621469446
0.003537745993
0.00345030329
0.003359015447
0.003263179952
0.003162314858
0.003057016074
0.002948392982
0.00283703885
0.002723249551
0.002607260615
0.002489151837
0.002368079482
0.002243571745
0.002116980843
0.001989892147
0.00186258404
0.00173444342
0.001606744532
0.0014643857
0.001296836682
0.00141060235
0.001525125102
0.001646242733
0.001767127937
)


101
(
2.637507106e-13
1.100076827e-09
2.34168135e-08
1.061043654e-07
2.913397525e-07
6.181848621e-07
1.124268505e-06
1.870551956e-06
2.921271101e-06
4.358148637e-06
6.284457261e-06
8.835680637e-06
1.217192324e-05
1.652776605e-05
2.220340239e-05
2.956179384e-05
3.907165965e-05
5.138435431e-05
6.721852591e-05
8.747275947e-05
0.0001133350817
0.0001458826463
0.000186256803
0.0002358898867
0.0002960425772
0.0003676488528
0.0004513174981
0.0005472994406
0.0006553678105
0.0007749914742
0.0009052123787
0.001044830545
0.00119261358
0.001346019031
0.001504135665
0.001665280307
0.001828132768
0.001991710372
0.002154773147
0.002315851003
0.00247362035
0.002627062707
0.002774793935
0.002916277869
0.003051360004
0.003179756689
0.003301534586
0.003416467062
0.003524490905
0.003625395824
0.003719130238
0.003805601846
0.003884762871
0.003956592149
0.004021089934
0.004078292879
0.004128208503
0.004170964734
0.004206577194
0.004235165813
0.004256795271
0.004271539079
0.004279512585
0.004280819795
0.004275583484
0.004263957802
0.004246113637
0.004222187801
0.004192345034
0.004156691218
0.004115386362
0.004068602887
0.004016552944
0.003959461781
0.003897545274
0.00383094289
0.003759781508
0.003684328645
0.003604877827
0.003521610327
0.003434145214
0.003341760544
0.003244374981
0.003142862489
0.003038081199
0.002930487014
0.002820237605
0.002707584648
0.002592108827
0.002473062262
0.002350961476
0.00222777928
0.002104049059
0.001979713527
0.001855277363
0.001715136619
0.001547960583
0.001679596637
0.001811705513
0.001949138761
0.002085852072
)


101
(
2.618914011e-13
9.658329851e-10
2.234468246e-08
1.019935465e-07
2.805615096e-07
5.954832588e-07
1.082490762e-06
1.798514199e-06
2.804054227e-06
4.174923133e-06
6.006552994e-06
8.423200741e-06
1.157209759e-05
1.566319984e-05
2.096947373e-05
2.781967722e-05
3.663291544e-05
4.798490158e-05
6.254069536e-05
8.108179266e-05
0.0001046932584
0.000134395293
0.0001712221176
0.0002164926031
0.0002714388591
0.0003370411992
0.0004140027146
0.0005027143658
0.0006031302107
0.0007149187866
0.000837339485
0.0009694054069
0.001110074025
0.00125699228
0.001409306859
0.001565380188
0.001723877552
0.001883763085
0.002043825416
0.002202754727
0.002359397349
0.002512778568
0.002661393676
0.002804493657
0.002941730777
0.003072705723
0.003197469517
0.003315815812
0.003427701218
0.003532918073
0.003631405946
0.00372304376
0.003807763464
0.003885534616
0.003956313748
0.004020110837
0.004076922662
0.004126871826
0.004169943792
0.004206263389
0.004235880546
0.004258848765
0.004275275567
0.00428521459
0.004288760626
0.004286028825
0.004277185677
0.004262379332
0.004241762418
0.004215440424
0.004183499353
0.004146101663
0.004103396776
0.004055624236
0.004003007571
0.003945655471
0.003883634054
0.003817130407
0.00374638619
0.003671710012
0.003593008139
0.003509713727
0.003421280484
0.003328094107
0.003230993854
0.003130706374
0.003027358538
0.002921304344
0.002812297009
0.002699797576
0.002583439444
0.002465348174
0.002346288018
0.002226658339
0.002106553519
0.001969728358
0.001804027495
0.001951396491
0.002098099785
0.002244573523
0.002388221576
)


101
(
2.600320902e-13
8.377949536e-10
2.130648603e-08
9.799640087e-08
2.700723046e-07
5.7340019e-07
1.041904555e-06
1.728715456e-06
2.69075972e-06
3.998342469e-06
5.739579279e-06
8.028375784e-06
1.100001146e-05
1.48424419e-05
1.980326416e-05
2.618001336e-05
3.434739306e-05
4.481385193e-05
5.818962012e-05
7.515748396e-05
9.669943064e-05
0.000123771167
0.0001573158233
0.0001985412372
0.0002486276529
0.0003085724913
0.0003791470503
0.0004608564396
0.0005538131411
0.0006578662321
0.0007724768699
0.0008968610203
0.001030163555
0.00117023953
0.001316320861
0.00146684078
0.001620472927
0.001776141317
0.001932626988
0.00208871656
0.002243409151
0.00239583577
0.002544467861
0.002688410999
0.002827123739
0.002960043873
0.003087153998
0.003208242037
0.003323296719
0.003432122222
0.0035346507
0.003630732938
0.003720291194
0.003803283849
0.003879645485
0.003949363714
0.004012387399
0.004068871249
0.004118741853
0.004162131818
0.004199100893
0.004229673479
0.004253964921
0.004271998222
0.004283839364
0.004289566767
0.004289307696
0.004283237641
0.004271500497
0.004254201293
0.004231401227
0.004203227146
0.004169822482
0.004131370108
0.004088097357
0.004040119438
0.003987500793
0.003930333389
0.003868763022
0.003803176369
0.003733656544
0.003659817344
0.003581064911
0.003497230202
0.00340897149
0.003317137862
0.003221852472
0.00312365425
0.00302231327
0.002917550581
0.002808503602
0.002697008863
0.002584053131
0.002470402351
0.002356132156
0.002224202895
0.002062298322
0.002219833825
0.002374177238
0.002516567945
0.002649778071
)


101
(
2.581727807e-13
7.158526189e-10
2.030167501e-08
9.411109505e-08
2.598671607e-07
5.519237291e-07
1.002483441e-06
1.66109654e-06
2.581274496e-06
3.828190094e-06
5.483135569e-06
7.650472817e-06
1.04543959e-05
1.406319675e-05
1.87009521e-05
2.463665963e-05
3.220527869e-05
4.185556544e-05
5.414347217e-05
6.966736778e-05
8.930977685e-05
0.0001139566873
0.0001444705162
0.0001819538213
0.0002275199605
0.0002821583631
0.0003466826768
0.0004216861868
0.000507415969
0.0006038814262
0.0007107286397
0.0008273639145
0.0009531127286
0.001086045478
0.001225499924
0.001370006111
0.001518271922
0.001669201557
0.001821556945
0.001974167492
0.002126144217
0.002276742929
0.002424485262
0.002568411335
0.002707823169
0.002841978759
0.002970746563
0.003093870952
0.003211359994
0.003323029936
0.003428818087
0.003528551985
0.003622140864
0.003709535043
0.003790683698
0.003865515754
0.003933942203
0.00399614115
0.004052002307
0.004101648026
0.00414515344
0.004182539346
0.004213890419
0.004239250443
0.004258671258
0.004272200026
0.004279860723
0.004281867642
0.004278349134
0.004269468841
0.00425527712
0.004235868908
0.004211323339
0.004181815094
0.004147568428
0.004108754559
0.004065402953
0.004017535458
0.003965255212
0.003908912695
0.003848724357
0.003784449341
0.003715656629
0.00364179492
0.003563218266
0.003480837195
0.003394660454
0.003305408075
0.003212948664
0.003117055788
0.00301693352
0.002913676992
0.002808503293
0.002702413475
0.002595758679
0.002470769819
0.002315385396
0.002472644606
0.002622540043
0.002743485016
0.002855985592
)


101
(
2.563134978e-13
5.998949141e-10
1.932969957e-08
9.033579985e-08
2.499411365e-07
5.310420891e-07
9.642013795e-07
1.595599359e-06
2.475487431e-06
3.664254393e-06
5.236833284e-06
7.288786062e-06
9.9340351e-06
1.332328773e-05
1.765891275e-05
2.318380594e-05
3.019733064e-05
3.909534852e-05
5.038138454e-05
6.458068686e-05
8.248212373e-05
0.000104899135
0.00013262011
0.0001666493574
0.0002080246622
0.0002577074408
0.0003165299219
0.0003851479467
0.0004639184586
0.0005529897686
0.0006521749729
0.0007610566292
0.0008791306115
0.001004682642
0.001137167547
0.001275234934
0.001417654367
0.001563335676
0.001711025075
0.001859559803
0.002008116242
0.002156060881
0.002302008976
0.002445004883
0.002584255808
0.002718859636
0.00284854345
0.00297296377
0.003092113366
0.003205817286
0.003314031205
0.003416570413
0.003513321689
0.003604230611
0.003689254766
0.003768262206
0.003841185062
0.003908165121
0.003969095782
0.004024041482
0.004073100912
0.004116314639
0.004153749202
0.00418545926
0.004211467777
0.004231838031
0.00424655668
0.004255728938
0.004259517911
0.004258124371
0.004251624953
0.00424012562
0.004223654484
0.004202347533
0.004176411749
0.004146074539
0.004111359655
0.004072244734
0.004028888637
0.003981463872
0.00393025721
0.003875248401
0.003816116806
0.003752215132
0.003683618551
0.00361117429
0.003534752886
0.003455032982
0.003372189053
0.003286182697
0.0031961766
0.00310257162
0.003006769082
0.002909836746
0.002812534318
0.002696564046
0.002550377589
0.002692766981
0.002821628514
0.002899108935
0.002961312577
)


101
(
2.544542819e-13
4.898106222e-10
1.839001153e-08
8.666870089e-08
2.40289355e-07
5.107436944e-07
9.27032893e-07
1.532167214e-06
2.373289691e-06
3.506329521e-06
5.00029697e-06
6.942638295e-06
9.437766948e-06
1.262065649e-05
1.667371951e-05
2.181597369e-05
2.831486948e-05
3.651946121e-05
4.688351545e-05
5.98684113e-05
7.617624419e-05
9.65472119e-05
0.0001217002857
0.000152548539
0.0001900504779
0.000235124376
0.0002886001302
0.0003511720441
0.0004232819891
0.0005051947673
0.0005968713253
0.0006980551824
0.0008084005294
0.0009264031112
0.001051638388
0.00118289097
0.001319017207
0.001458960821
0.001601468183
0.001745365585
0.001889856204
0.002034384441
0.002177671866
0.002318818159
0.002457001731
0.002591202923
0.002721001254
0.002845933166
0.002965940472
0.00308083671
0.003190601479
0.003295048595
0.003394044727
0.003487520051
0.003575425178
0.003657625552
0.003734022705
0.003804764009
0.003869708683
0.003928899438
0.003982412092
0.00403031941
0.004072674651
0.004109554903
0.004140986593
0.004166971462
0.004187559195
0.004202763377
0.004212682566
0.004217582582
0.004217533784
0.004212693305
0.00420313113
0.00418889066
0.004170125954
0.004147062962
0.00411984452
0.004088461633
0.004052961116
0.004013548037
0.003970477756
0.003923824807
0.003873449556
0.003818819392
0.003759623159
0.003696717139
0.003630055432
0.00355990813
0.003486716402
0.003410840013
0.003331431702
0.003248215223
0.003162627247
0.003076061431
0.002989375229
0.002883999446
0.002748936002
0.002856934665
0.002944575312
0.002960125684
0.002959283736
)


101
(
2.52595066e-13
3.85488396e-10
1.748206373e-08
8.310799593e-08
2.309069946e-07
4.910171587e-07
8.909530701e-07
1.470744859e-06
2.274574527e-06
3.354214662e-06
4.773164171e-06
6.611380403e-06
8.964482373e-06
1.195336004e-05
1.574214419e-05
2.052801084e-05
2.654976622e-05
3.411507203e-05
4.363114068e-05
5.550317472e-05
7.035393362e-05
8.885151593e-05
0.000111648786
0.0001395740843
0.0001735063698
0.0002143104279
0.0002627963583
0.0003196751289
0.0003854493142
0.0004604772098
0.000544847409
0.0006384475371
0.0007410764308
0.0008514325116
0.000969209325
0.001093334008
0.001222768468
0.001356516731
0.001493348665
0.001632078573
0.001771910993
0.001912331963
0.002052156041
0.002190562688
0.002326758721
0.002459663787
0.002588728809
0.002713354935
0.002833394131
0.002948619575
0.003059040338
0.003164471657
0.003264753367
0.003359809204
0.003449578041
0.003533934646
0.003612708589
0.00368609559
0.003753899044
0.003816176646
0.003872935243
0.003924300758
0.003970306858
0.004011023108
0.00404647194
0.004076694611
0.004101745912
0.004121573581
0.004136275096
0.004145993638
0.004150887527
0.004151125551
0.004146898645
0.004138198707
0.004125101895
0.004107790781
0.004086437229
0.004061104771
0.004031967917
0.00399903063
0.003962606531
0.00392274959
0.003879614439
0.003832789543
0.003781651179
0.003726998999
0.003669101387
0.003607735408
0.003543413489
0.003476794567
0.00340749711
0.003334481166
0.003259099558
0.003182855092
0.003107184393
0.003012844616
0.002889194385
0.002943455831
0.002970891207
0.00291283374
0.002834453434
)


101
(
2.507358486e-13
2.868160819e-10
1.660530936e-08
7.96518917e-08
2.217892832e-07
4.718512662e-07
8.559374706e-07
1.411278369e-06
2.179237753e-06
3.207714542e-06
4.555084607e-06
6.294389843e-06
8.513123155e-06
1.131956176e-05
1.486114102e-05
1.931507286e-05
2.48944197e-05
3.187023881e-05
4.060668655e-05
5.145931414e-05
6.497906317e-05
8.176453447e-05
0.0001024053481
0.0001276508431
0.000158302293
0.0001951647506
0.000239015032
0.0002905620784
0.000350346395
0.0004187964614
0.0004961072921
0.0005822933848
0.000677283896
0.0007799686884
0.0008901539714
0.001006910201
0.001129315774
0.0012564558
0.00138714907
0.001520215246
0.001654846522
0.001790537346
0.001926170419
0.002061006833
0.002194317774
0.002325018016
0.002452470065
0.002575948841
0.002695187521
0.002809890493
0.002920067851
0.003025539696
0.003126130633
0.003221762239
0.003312347305
0.003397761351
0.003477798056
0.003552649831
0.003622130504
0.003686262145
0.00374499745
0.003798490675
0.003846799994
0.003889926174
0.003927891553
0.003960825701
0.0039887226
0.00401161908
0.004029444215
0.00404235394
0.004050505737
0.004054050231
0.004053273437
0.004048213006
0.004038917805
0.004025502327
0.004008013975
0.003986739432
0.003961876245
0.00393337417
0.003901629118
0.003866563907
0.003828453906
0.003787246573
0.003742289796
0.003693904807
0.00364262981
0.003588427793
0.003531285765
0.003472076627
0.003411384558
0.003346995454
0.003281095791
0.003214034551
0.003148336005
0.003064058689
0.002951370001
0.002937787764
0.002892688381
0.002759183732
0.002597589604
)


101
(
2.488766313e-13
1.9368125e-10
1.575920368e-08
7.629861107e-08
2.129315177e-07
4.532350244e-07
8.219622099e-07
1.353715286e-06
2.087177983e-06
3.066639774e-06
4.345719363e-06
5.991071639e-06
8.082681548e-06
1.071752705e-05
1.402783983e-05
1.817260813e-05
2.334173258e-05
2.977389712e-05
3.779377225e-05
4.771296982e-05
6.001780749e-05
7.524113122e-05
9.391208939e-05
0.000116706217
0.000144350102
0.0001775860714
0.0002171480608
0.0002637277635
0.0003178832693
0.0003800905511
0.0004506288812
0.0005296212136
0.0006171129997
0.0007121729793
0.0008147108629
0.0009239369473
0.001039049841
0.001159229693
0.001283366968
0.001410310725
0.001539241585
0.001669646509
0.001800446008
0.001930961875
0.002060540085
0.002188141271
0.002313093063
0.00243456393
0.002552168207
0.002665513229
0.002774559469
0.002879133994
0.002979068053
0.003074266131
0.003164618765
0.003249998012
0.003330171186
0.003405306634
0.003475235563
0.003539960029
0.003599407782
0.003653669759
0.003702855763
0.003746901406
0.003785850777
0.003819877849
0.003848964115
0.003873157984
0.003892340731
0.003906674944
0.003916256135
0.003921203585
0.003921881114
0.003918327497
0.003910676112
0.00389906951
0.003883364607
0.003863912311
0.003840877301
0.003814504551
0.003785041869
0.003752337093
0.003716841981
0.003678575822
0.003637086929
0.003592593931
0.003545428448
0.003495844132
0.003443688352
0.003389522204
0.003335107701
0.003277050022
0.003218419377
0.003158694309
0.003100630994
0.003024704952
0.00292130228
0.002832670461
0.002711754664
0.002514017948
0.002300479529
)


101
(
2.470174168e-13
1.059711334e-10
1.494320314e-08
7.304638995e-08
2.043290515e-07
4.351576279e-07
7.890039182e-07
1.298004568e-06
1.998296614e-06
2.930806744e-06
4.144740984e-06
5.700856453e-06
7.672198764e-06
1.014561858e-05
1.323953955e-05
1.70963427e-05
2.18850792e-05
2.781578826e-05
3.517718479e-05
4.424195984e-05
5.543853112e-05
6.923854578e-05
8.611362143e-05
0.0001066703571
0.0001315641722
0.0001614739399
0.0001970847193
0.0002390592565
0.0002879560357
0.0003442774852
0.000408365058
0.000480430617
0.0005606203492
0.0006481691899
0.0007430800036
0.0008446953426
0.0009523324736
0.00106527333
0.001182497544
0.00130290728
0.00142568937
0.001550313898
0.001675715682
0.001801253838
0.001926339679
0.002050001256
0.002171576458
0.00229017401
0.002405313299
0.00251647968
0.002623542325
0.002726315033
0.002824649011
0.002918421039
0.003007523521
0.003091819707
0.003171020912
0.003245282007
0.003314450524
0.003378521964
0.003437376019
0.003491067684
0.003539690245
0.003583175468
0.003621621501
0.003655066516
0.003683633404
0.003707374229
0.003726144865
0.003740081278
0.003749170882
0.003753606017
0.003753690461
0.003749523465
0.003741293668
0.00372921345
0.003713197954
0.003693193697
0.003669694106
0.003642949295
0.003613176879
0.003580353545
0.003544993689
0.003506973434
0.00346627551
0.003422887051
0.003377175475
0.003329430405
0.003279724235
0.003228114996
0.003177064815
0.003122930997
0.003068659589
0.003013953979
0.002960809229
0.002890507205
0.002792983879
0.002633699866
0.002445709158
0.002203466164
0.00195034298
)


101
(
2.451581995e-13
2.35720128e-11
1.415674545e-08
6.989346063e-08
1.959772513e-07
4.17608364e-07
7.570395716e-07
1.244096274e-06
1.912497728e-06
2.800037399e-06
3.951832364e-06
5.423197336e-06
7.280760474e-06
9.60228996e-06
1.249370016e-05
1.608226216e-05
2.05182681e-05
2.59863819e-05
3.274274727e-05
4.102563649e-05
5.121169719e-05
6.371640026e-05
7.895722776e-05
9.747632094e-05
0.0001198618971
0.0001467300949
0.0001787137573
0.0002164384619
0.0002604493703
0.0003112570632
0.0003692440614
0.0004346908612
0.0005078273432
0.0005880410095
0.0006754176776
0.0007694220151
0.0008694844684
0.0009749909491
0.001085021146
0.00119854917
0.001314787362
0.001433194202
0.001552713664
0.001672713893
0.001792647121
0.001911611005
0.002028987108
0.002143875177
0.002255723047
0.002363906898
0.002468183889
0.002568309756
0.002664142064
0.002755545734
0.002842408086
0.002924601103
0.003001779179
0.003074079882
0.003141321989
0.003203524618
0.003260530893
0.003312366037
0.003359051684
0.003400567912
0.003437014594
0.003468348356
0.003494796335
0.003516372401
0.00353298707
0.003544668697
0.003551438559
0.003553515621
0.00355109451
0.003544353389
0.003533527872
0.003518811126
0.003500175268
0.003477635391
0.003451521279
0.003422112902
0.003389708289
0.003354572341
0.00331689984
0.003276801378
0.003234459484
0.003189839205
0.003143250438
0.003094913679
0.003045265684
0.002993967364
0.002943606799
0.002891191015
0.002838827133
0.002786610337
0.002736182581
0.002669079502
0.002574981635
0.002359204077
0.00212257141
0.001860071169
0.001596205389
)


101
(
2.432989821e-13
-5.363000253e-11
1.339930349e-08
6.683807949e-08
1.878715696e-07
4.005767694e-07
7.260467768e-07
1.191942024e-06
1.829689063e-06
2.674161472e-06
3.766688458e-06
5.157570695e-06
6.90749686e-06
9.086086109e-06
1.178794733e-05
1.51266299e-05
1.923555038e-05
2.427688132e-05
3.047735831e-05
3.804478021e-05
4.730977775e-05
5.863680689e-05
7.23930023e-05
8.906031242e-05
0.0001091638839
0.0001332589202
0.000161924586
0.0001957441007
0.0002352392392
0.0002809138429
0.0003331721204
0.0003923426356
0.0004587209585
0.000531832141
0.0006118353366
0.0006983072022
0.000790782793
0.0008887479215
0.0009913864874
0.001097758606
0.001207121854
0.001318938282
0.001432161809
0.0015461535
0.001660381168
0.00177399798
0.001886439815
0.001996835575
0.002104594968
0.002209017526
0.002309749123
0.002406457224
0.002498966958
0.002587131968
0.002670834183
0.002749938795
0.002824097084
0.002893418624
0.002957651503
0.00301683115
0.00307084233
0.003119594106
0.003163100701
0.003201359644
0.003234440795
0.00326229362
0.003285133623
0.003303004693
0.00331585251
0.003323670648
0.003326533946
0.003324536755
0.003317892885
0.003306864039
0.003291675632
0.003272515361
0.00324953953
0.003222689429
0.003192186301
0.003158371425
0.003121677704
0.003082445151
0.003040745622
0.002996788148
0.002951197905
0.002903560796
0.002854416252
0.002803916392