/*--------------------------------*- C++ -*----------------------------------*\
| =========                 |                                                 |
| \\      /  F ield         | OpenFOAM: The Open Source CFD Toolbox           |
|  \\    /   O peration     | Version:  2.3.1                                 |
|   \\  /    A nd           | Web:      www.OpenFOAM.org                      |
|    \\/     M anipulation  |                                                 |
\*---------------------------------------------------------------------------*/
FoamFile
{
    version     2.0;
    format      ascii;
    class       dictionary;
    location    "constant";
    object      CO2max;
}
// * * * * * * * * * * * * * * * * * * * * * * * * * * * * * * * * * * * * * //

CO2max
101
(
0.1504706839
0.1504707981
0.1504711049
0.1504716093
0.1504722038
0.150473133
0.1504669814
0.1504683949
0.1504699797
0.1504715123
0.1504730392
0.1504749832
0.1504771201
0.150479324
0.1504815605
0.1504841596
0.1504868022
0.1504891543
0.1504914411
0.1504936591
0.1504963224
0.1504987423
0.1505010126
0.1505031329
0.1505050479
0.1505067032
0.1505079862
0.1505088129
0.150509071
0.1505086071
0.1505073145
0.1505051123
0.1505019766
0.1504971939
0.1504910127
0.1504831429
0.15047337
0.1504616551
0.1504477631
0.1504314564
0.1504121409
0.1503905318
0.1503659029
0.1503383072
0.1503078844
0.1502741391
0.1502373897
0.1501974379
0.1501542645
0.1501075031
0.1500574463
0.1500040795
0.1499473138
0.1498870832
0.149823419
0.1497563575
0.1496852905
0.1496109695
0.1495325503
0.1494504129
0.1493641238
0.1492736392
0.149178757
0.149078724
0.1489746033
0.1488647949
0.1487495186
0.1486281261
0.1485000603
0.1483645128
0.1482224683
0.1480716181
0.1479106508
0.1477401839
0.1475595502
0.147367911
0.1471606677
0.1469412089
0.146704582
0.1464512033
0.146178339
0.1458835919
0.1455666826
0.1452242109
0.1448531653
0.1444565775
0.1440251053
0.1435621861
0.1430595834
0.1425291515
0.1419476687
0.1413422193
0.1406976133
0.1400164312
0.1393041403
0.1385547416
0.1377842677
0.1369754547
0.1361625213
0.1353153716
0.1344682219
)
;