/*--------------------------------*- C++ -*----------------------------------*\
| =========                 |                                                 |
| \\      /  F ield         | OpenFOAM: The Open Source CFD Toolbox           |
|  \\    /   O peration     | Version:  2.3.1                                 |
|   \\  /    A nd           | Web:      www.OpenFOAM.org                      |
|    \\/     M anipulation  |                                                 |
\*---------------------------------------------------------------------------*/
FoamFile
{
    version     2.0;
    format      ascii;
    class       dictionary;
    location    "constant";
    object      CO2norm_table;
}
// * * * * * * * * * * * * * * * * * * * * * * * * * * * * * * * * * * * * * //

CO2norm_table
101
(
101{0}

101
(
0.009999999803
0.009999999777
0.009999999777
0.009999999776
0.009999999777
0.009999999776
0.009999999777
0.009999999776
0.009999999776
0.009999999776
0.009999999776
0.009999999777
0.009999999777
0.009999999776
0.009999999776
0.009999999776
0.009999999776
0.009999999776
0.009999999776
0.009999999777
0.009999999777
0.009999999777
0.009999999776
0.009999999777
0.009999999776
0.009999999776
0.009999999776
0.009999999777
0.009999999776
0.009999999776
0.009999999777
0.009999999777
0.009999999776
0.009999999776
0.009999999777
0.009999999776
0.009999999776
0.009999999776
0.009999999776
0.009999999776
0.009999999776
0.009999999776
0.009999999776
0.009999999777
0.009999999776
0.009999999776
0.009999999776
0.009999999776
0.009999999776
0.009999999776
0.009999999776
0.009999999776
0.009999999776
0.009999999776
0.009999999776
0.009999999776
0.009999999776
0.009999999776
0.009999999776
0.009999999776
0.009999999776
0.009999999776
0.009999999776
0.009999999776
0.009999999776
0.009999999776
0.009999999776
0.009999999776
0.009999999776
0.009999999776
0.009999999776
0.009999999776
0.009999999776
0.009999999776
0.009999999776
0.009999999776
0.009999999776
0.009999999776
0.009999999776
0.009999999776
0.009999999776
0.009999999776
0.009999999776
0.009999999776
0.009999999776
0.009999999776
0.009999999776
0.009999999776
0.009999999776
0.009999999776
0.009999999776
0.009999999776
0.009999999776
0.009999999776
0.009999999776
0.01000048376
0.01000001811
0.01000001888
0.01000002009
0.01000001614
0.01000001214
)


101
(
0.01999999956
0.01999999955
0.01999999955
0.01999999955
0.01999999955
0.01999999955
0.01999999955
0.01999999955
0.01999999955
0.01999999955
0.01999999955
0.01999999955
0.01999999955
0.01999999955
0.01999999955
0.01999999955
0.01999999955
0.01999999955
0.01999999955
0.01999999955
0.01999999955
0.01999999955
0.01999999955
0.01999999955
0.01999999955
0.01999999955
0.01999999955
0.01999999955
0.01999999955
0.01999999955
0.01999999955
0.01999999955
0.01999999955
0.01999999955
0.01999999955
0.01999999955
0.01999999955
0.01999999955
0.01999999955
0.01999999955
0.01999999955
0.01999999955
0.01999999955
0.01999999955
0.01999999955
0.01999999955
0.01999999955
0.01999999955
0.01999999955
0.01999999955
0.01999999955
0.01999999955
0.01999999955
0.01999999955
0.01999999955
0.01999999955
0.01999999955
0.01999999955
0.01999999955
0.01999999955
0.01999999955
0.01999999955
0.01999999955
0.01999999955
0.01999999955
0.01999999955
0.01999999955
0.01999999955
0.01999999955
0.01999999955
0.01999999955
0.01999999955
0.01999999955
0.01999999955
0.01999999955
0.01999999955
0.01999999955
0.01999999955
0.01999999955
0.01999999955
0.01999999955
0.01999999955
0.01999999955
0.01999999955
0.01999999955
0.01999999955
0.01999999955
0.01999999955
0.01999999955
0.01999999955
0.01999999955
0.01999999955
0.01999999955
0.01999999955
0.01999999955
0.02000075456
0.02000005087
0.02000005267
0.02000005597
0.02000004732
0.02000003856
)


101
(
0.02999999936
0.02999999933
0.02999999933
0.02999999933
0.02999999933
0.02999999933
0.02999999933
0.02999999933
0.02999999933
0.02999999933
0.02999999933
0.02999999933
0.02999999933
0.02999999933
0.02999999933
0.02999999933
0.02999999933
0.02999999933
0.02999999933
0.02999999933
0.02999999933
0.02999999933
0.02999999933
0.02999999933
0.02999999933
0.02999999933
0.02999999933
0.02999999933
0.02999999933
0.02999999933
0.02999999933
0.02999999933
0.02999999933
0.02999999933
0.02999999933
0.02999999933
0.02999999933
0.02999999933
0.02999999933
0.02999999933
0.02999999933
0.02999999933
0.02999999933
0.02999999933
0.02999999933
0.02999999933
0.02999999933
0.02999999933
0.02999999933
0.02999999933
0.02999999933
0.02999999933
0.02999999933
0.02999999933
0.02999999933
0.02999999933
0.02999999933
0.02999999933
0.02999999933
0.02999999933
0.02999999933
0.02999999933
0.02999999933
0.02999999933
0.02999999933
0.02999999933
0.02999999933
0.02999999933
0.02999999933
0.02999999933
0.02999999933
0.02999999933
0.02999999933
0.02999999933
0.02999999933
0.02999999933
0.02999999933
0.02999999933
0.02999999933
0.02999999933
0.02999999933
0.02999999933
0.02999999933
0.02999999933
0.02999999933
0.02999999933
0.02999999933
0.02999999933
0.02999999933
0.02999999933
0.02999999933
0.02999999933
0.02999999933
0.02999999933
0.02999999933
0.03000088774
0.03000008719
0.03000009266
0.03000010036
0.03000008258
0.03000006458
)


101
(
0.03999999912
0.03999999911
0.03999999911
0.03999999911
0.03999999911
0.03999999911
0.03999999911
0.03999999911
0.03999999911
0.03999999911
0.03999999911
0.03999999911
0.03999999911
0.03999999911
0.03999999911
0.03999999911
0.03999999911
0.03999999911
0.03999999911
0.03999999911
0.03999999911
0.03999999911
0.03999999911
0.03999999911
0.03999999911
0.03999999911
0.03999999911
0.03999999911
0.03999999911
0.03999999911
0.03999999911
0.03999999911
0.03999999911
0.03999999911
0.03999999911
0.03999999911
0.03999999911
0.03999999911
0.03999999911
0.03999999911
0.03999999911
0.03999999911
0.03999999911
0.03999999911
0.03999999911
0.03999999911
0.03999999911
0.03999999911
0.03999999911
0.03999999911
0.03999999911
0.03999999911
0.03999999911
0.03999999911
0.03999999911
0.03999999911
0.03999999911
0.03999999911
0.03999999911
0.03999999911
0.03999999911
0.03999999911
0.03999999911
0.03999999911
0.03999999911
0.03999999911
0.03999999911
0.03999999911
0.03999999911
0.03999999911
0.03999999911
0.03999999911
0.03999999911
0.03999999911
0.03999999911
0.03999999911
0.03999999911
0.03999999911
0.03999999911
0.03999999911
0.03999999911
0.03999999911
0.03999999911
0.03999999911
0.03999999911
0.03999999911
0.03999999911
0.03999999911
0.03999999911
0.03999999911
0.03999999911
0.03999999911
0.03999999911
0.03999999911
0.03999999911
0.04000095965
0.04000012417
0.04000012632
0.04000013208
0.04000011032
0.04000008828
)


101
(
0.05000000076
0.05000000075
0.05000000074
0.05000000075
0.05000000075
0.05000000075
0.05000000075
0.05000000075
0.05000000075
0.05000000075
0.05000000075
0.05000000075
0.05000000075
0.05000000075
0.05000000075
0.05000000075
0.05000000075
0.05000000075
0.05000000075
0.05000000075
0.05000000075
0.05000000075
0.05000000075
0.05000000075
0.05000000075
0.05000000075
0.05000000075
0.05000000075
0.05000000075
0.05000000075
0.05000000075
0.05000000075
0.05000000075
0.05000000075
0.05000000075
0.05000000075
0.05000000075
0.05000000075
0.05000000075
0.05000000075
0.05000000075
0.05000000075
0.05000000075
0.05000000075
0.05000000075
0.05000000075
0.05000000075
0.05000000075
0.05000000075
0.05000000075
0.05000000075
0.05000000075
0.05000000075
0.05000000075
0.05000000075
0.05000000075
0.05000000075
0.05000000075
0.05000000075
0.05000000075
0.05000000075
0.05000000075
0.05000000075
0.05000000075
0.05000000075
0.05000000075
0.05000000075
0.05000000075
0.05000000075
0.05000000075
0.05000000075
0.05000000075
0.05000000075
0.05000000075
0.05000000075
0.05000000075
0.05000000075
0.05000000075
0.05000000075
0.05000000075
0.05000000075
0.05000000075
0.05000000075
0.05000000075
0.05000000075
0.05000000075
0.05000000075
0.05000000075
0.05000000075
0.05000000075
0.05000000075
0.05000000075
0.05000000075
0.05000000075
0.05000000075
0.05000103576
0.05000016735
0.05000015348
0.05000014562
0.05000012684
0.05000010782
)


101
(
0.05999999868
0.05999999866
0.05999999866
0.05999999866
0.05999999866
0.05999999866
0.05999999866
0.05999999866
0.05999999866
0.05999999866
0.05999999866
0.05999999866
0.05999999866
0.05999999866
0.05999999866
0.05999999866
0.05999999866
0.05999999866
0.05999999866
0.05999999866
0.05999999866
0.05999999866
0.05999999866
0.05999999866
0.05999999866
0.05999999866
0.05999999866
0.05999999866
0.05999999866
0.05999999866
0.05999999866
0.05999999866
0.05999999866
0.05999999866
0.05999999866
0.05999999866
0.05999999866
0.05999999866
0.05999999866
0.05999999866
0.05999999866
0.05999999866
0.05999999866
0.05999999866
0.05999999866
0.05999999866
0.05999999866
0.05999999866
0.05999999866
0.05999999866
0.05999999866
0.05999999866
0.05999999866
0.05999999866
0.05999999866
0.05999999866
0.05999999866
0.05999999866
0.05999999866
0.05999999866
0.05999999866
0.05999999866
0.05999999866
0.05999999866
0.05999999866
0.05999999866
0.05999999866
0.05999999866
0.05999999866
0.05999999866
0.05999999866
0.05999999866
0.05999999866
0.05999999866
0.05999999866
0.05999999866
0.05999999866
0.05999999866
0.05999999866
0.05999999866
0.05999999866
0.05999999866
0.05999999866
0.05999999866
0.05999999866
0.05999999866
0.05999999866
0.05999999866
0.05999999866
0.05999999866
0.05999999866
0.05999999866
0.05999999866
0.05999999866
0.05999999866
0.06000107821
0.06000020605
0.06000019296
0.06000018669
0.06000015755
0.06000012805
)


101
(
0.07000000033
0.0700000003
0.0700000003
0.0700000003
0.0700000003
0.0700000003
0.0700000003
0.0700000003
0.0700000003
0.0700000003
0.0700000003
0.0700000003
0.0700000003
0.0700000003
0.0700000003
0.0700000003
0.0700000003
0.0700000003
0.0700000003
0.0700000003
0.0700000003
0.0700000003
0.0700000003
0.0700000003
0.0700000003
0.0700000003
0.0700000003
0.0700000003
0.0700000003
0.0700000003
0.0700000003
0.0700000003
0.0700000003
0.0700000003
0.0700000003
0.0700000003
0.0700000003
0.0700000003
0.0700000003
0.0700000003
0.0700000003
0.0700000003
0.0700000003
0.0700000003
0.0700000003
0.0700000003
0.0700000003
0.0700000003
0.0700000003
0.0700000003
0.0700000003
0.0700000003
0.0700000003
0.0700000003
0.0700000003
0.0700000003
0.0700000003
0.0700000003
0.0700000003
0.0700000003
0.0700000003
0.0700000003
0.0700000003
0.0700000003
0.0700000003
0.0700000003
0.0700000003
0.0700000003
0.0700000003
0.0700000003
0.0700000003
0.0700000003
0.0700000003
0.0700000003
0.0700000003
0.0700000003
0.0700000003
0.0700000003
0.0700000003
0.0700000003
0.0700000003
0.0700000003
0.0700000003
0.0700000003
0.0700000003
0.0700000003
0.0700000003
0.0700000003
0.0700000003
0.0700000003
0.0700000003
0.0700000003
0.0700000003
0.0700000003
0.0700000003
0.07000088983
0.07000020605
0.07000020439
0.07000020996
0.07000018606
0.07000016186
)


101
(
0.07999999825
0.07999999821
0.07999999821
0.07999999821
0.07999999821
0.07999999821
0.07999999821
0.07999999821
0.07999999821
0.07999999821
0.07999999821
0.07999999821
0.07999999821
0.07999999821
0.07999999821
0.07999999821
0.07999999821
0.07999999821
0.07999999821
0.07999999821
0.07999999821
0.07999999821
0.07999999821
0.07999999821
0.07999999821
0.07999999821
0.07999999821
0.07999999821
0.07999999821
0.07999999821
0.07999999821
0.07999999821
0.07999999821
0.07999999821
0.07999999821
0.07999999821
0.07999999821
0.07999999821
0.07999999821
0.07999999821
0.07999999821
0.07999999821
0.07999999821
0.07999999821
0.07999999821
0.07999999821
0.07999999821
0.07999999821
0.07999999821
0.07999999821
0.07999999821
0.07999999821
0.07999999821
0.07999999821
0.07999999821
0.07999999821
0.07999999821
0.07999999821
0.07999999821
0.07999999821
0.07999999821
0.07999999821
0.07999999821
0.07999999821
0.07999999821
0.07999999821
0.07999999821
0.07999999821
0.07999999821
0.07999999821
0.07999999821
0.07999999821
0.07999999821
0.07999999821
0.07999999821
0.07999999821
0.07999999821
0.07999999821
0.07999999821
0.07999999821
0.07999999821
0.07999999821
0.07999999821
0.07999999821
0.07999999821
0.07999999821
0.07999999821
0.07999999821
0.07999999821
0.07999999821
0.07999999821
0.07999999821
0.07999999821
0.07999999821
0.07999999821
0.0800008588
0.08000022715
0.08000022595
0.08000023253
0.08000020343
0.08000017396
)


101
(
0.09000000361
0.09000000358
0.09000000358
0.09000000358
0.09000000358
0.09000000358
0.09000000358
0.09000000358
0.09000000358
0.09000000358
0.09000000358
0.09000000358
0.09000000358
0.09000000358
0.09000000358
0.09000000358
0.09000000358
0.09000000358
0.09000000358
0.09000000358
0.09000000358
0.09000000358
0.09000000358
0.09000000358
0.09000000358
0.09000000358
0.09000000358
0.09000000358
0.09000000358
0.09000000358
0.09000000358
0.09000000358
0.09000000358
0.09000000358
0.09000000358
0.09000000358
0.09000000358
0.09000000358
0.09000000358
0.09000000358
0.09000000358
0.09000000358
0.09000000358
0.09000000358
0.09000000358
0.09000000358
0.09000000358
0.09000000358
0.09000000358
0.09000000358
0.09000000358
0.09000000358
0.09000000358
0.09000000358
0.09000000358
0.09000000358
0.09000000358
0.09000000358
0.09000000358
0.09000000358
0.09000000358
0.09000000358
0.09000000358
0.09000000358
0.09000000358
0.09000000358
0.09000000358
0.09000000358
0.09000000358
0.09000000358
0.09000000358
0.09000000358
0.09000000358
0.09000000358
0.09000000358
0.09000000358
0.09000000358
0.09000000358
0.09000000358
0.09000000358
0.09000000358
0.09000000358
0.09000000358
0.09000000358
0.09000000358
0.09000000358
0.09000000358
0.09000000358
0.09000000358
0.09000000358
0.09000000358
0.09000000358
0.09000000358
0.09000000358
0.09000000358
0.0900008598
0.0900002602
0.09000025338
0.09000025506
0.09000022016
0.09000018482
)


101
(
0.1000000015
0.1000000015
0.1000000015
0.1000000015
0.1000000015
0.1000000015
0.1000000015
0.1000000015
0.1000000015
0.1000000015
0.1000000015
0.1000000015
0.1000000015
0.1000000015
0.1000000015
0.1000000015
0.1000000015
0.1000000015
0.1000000015
0.1000000015
0.1000000015
0.1000000015
0.1000000015
0.1000000015
0.1000000015
0.1000000015
0.1000000015
0.1000000015
0.1000000015
0.1000000015
0.1000000015
0.1000000015
0.1000000015
0.1000000015
0.1000000015
0.1000000015
0.1000000015
0.1000000015
0.1000000015
0.1000000015
0.1000000015
0.1000000015
0.1000000015
0.1000000015
0.1000000015
0.1000000015
0.1000000015
0.1000000015
0.1000000015
0.1000000015
0.1000000015
0.1000000015
0.1000000015
0.1000000015
0.1000000015
0.1000000015
0.1000000015
0.1000000015
0.1000000015
0.1000000015
0.1000000015
0.1000000015
0.1000000015
0.1000000015
0.1000000015
0.1000000015
0.1000000015
0.1000000015
0.1000000015
0.1000000015
0.1000000015
0.1000000015
0.1000000015
0.1000000015
0.1000000015
0.1000000015
0.1000000015
0.1000000015
0.1000000015
0.1000000015
0.1000000015
0.1000000015
0.1000000015
0.1000000015
0.1000000015
0.1000000015
0.1000000015
0.1000000015
0.1000000015
0.1000000015
0.1000000015
0.1000000015
0.1000000015
0.1000000015
0.1000000015
0.1000007939
0.1000002692
0.1000002583
0.1000002555
0.1000002113
0.1000001665
)


101
(
0.1099999994
0.1099999994
0.1099999994
0.1099999994
0.1099999994
0.1099999994
0.1099999994
0.1099999994
0.1099999994
0.1099999994
0.1099999994
0.1099999994
0.1099999994
0.1099999994
0.1099999994
0.1099999994
0.1099999994
0.1099999994
0.1099999994
0.1099999994
0.1099999994
0.1099999994
0.1099999994
0.1099999994
0.1099999994
0.1099999994
0.1099999994
0.1099999994
0.1099999994
0.1099999994
0.1099999994
0.1099999994
0.1099999994
0.1099999994
0.1099999994
0.1099999994
0.1099999994
0.1099999994
0.1099999994
0.1099999994
0.1099999994
0.1099999994
0.1099999994
0.1099999994
0.1099999994
0.1099999994
0.1099999994
0.1099999994
0.1099999994
0.1099999994
0.1099999994
0.1099999994
0.1099999994
0.1099999994
0.1099999994
0.1099999994
0.1099999994
0.1099999994
0.1099999994
0.1099999994
0.1099999994
0.1099999994
0.1099999994
0.1099999994
0.1099999994
0.1099999994
0.1099999994
0.1099999994
0.1099999994
0.1099999994
0.1099999994
0.1099999994
0.1099999994
0.1099999994
0.1099999994
0.1099999994
0.1099999994
0.1099999994
0.1099999994
0.1099999994
0.1099999994
0.1099999994
0.1099999994
0.1099999994
0.1099999994
0.1099999994
0.1099999994
0.1099999994
0.1099999994
0.1099999994
0.1099999994
0.1099999994
0.1099999994
0.1099999994
0.1099999994
0.110000705
0.1100002676
0.1100002556
0.110000252
0.1100002094
0.1100001664
)


101
(
0.1199999973
0.1199999973
0.1199999973
0.1199999973
0.1199999973
0.1199999973
0.1199999973
0.1199999973
0.1199999973
0.1199999973
0.1199999973
0.1199999973
0.1199999973
0.1199999973
0.1199999973
0.1199999973
0.1199999973
0.1199999973
0.1199999973
0.1199999973
0.1199999973
0.1199999973
0.1199999973
0.1199999973
0.1199999973
0.1199999973
0.1199999973
0.1199999973
0.1199999973
0.1199999973
0.1199999973
0.1199999973
0.1199999973
0.1199999973
0.1199999973
0.1199999973
0.1199999973
0.1199999973
0.1199999973
0.1199999973
0.1199999973
0.1199999973
0.1199999973
0.1199999973
0.1199999973
0.1199999973
0.1199999973
0.1199999973
0.1199999973
0.1199999973
0.1199999973
0.1199999973
0.1199999973
0.1199999973
0.1199999973
0.1199999973
0.1199999973
0.1199999973
0.1199999973
0.1199999973
0.1199999973
0.1199999973
0.1199999973
0.1199999973
0.1199999973
0.1199999973
0.1199999973
0.1199999973
0.1199999973
0.1199999973
0.1199999973
0.1199999973
0.1199999973
0.1199999973
0.1199999973
0.1199999973
0.1199999973
0.1199999973
0.1199999973
0.1199999973
0.1199999973
0.1199999973
0.1199999973
0.1199999973
0.1199999973
0.1199999973
0.1199999973
0.1199999973
0.1199999973
0.1199999973
0.1199999973
0.1199999973
0.1199999973
0.1199999973
0.1199999973
0.1200006743
0.1200002804
0.1200002699
0.1200002674
0.1200002161
0.1200001641
)


101
(
0.1299999952
0.1299999952
0.1299999952
0.1299999952
0.1299999952
0.1299999952
0.1299999952
0.1299999952
0.1299999952
0.1299999952
0.1299999952
0.1299999952
0.1299999952
0.1299999952
0.1299999952
0.1299999952
0.1299999952
0.1299999952
0.1299999952
0.1299999952
0.1299999952
0.1299999952
0.1299999952
0.1299999952
0.1299999952
0.1299999952
0.1299999952
0.1299999952
0.1299999952
0.1299999952
0.1299999952
0.1299999952
0.1299999952
0.1299999952
0.1299999952
0.1299999952
0.1299999952
0.1299999952
0.1299999952
0.1299999952
0.1299999952
0.1299999952
0.1299999952
0.1299999952
0.1299999952
0.1299999952
0.1299999952
0.1299999952
0.1299999952
0.1299999952
0.1299999952
0.1299999952
0.1299999952
0.1299999952
0.1299999952
0.1299999952
0.1299999952
0.1299999952
0.1299999952
0.1299999952
0.1299999952
0.1299999952
0.1299999952
0.1299999952
0.1299999952
0.1299999952
0.1299999952
0.1299999952
0.1299999952
0.1299999952
0.1299999952
0.1299999952
0.1299999952
0.1299999952
0.1299999952
0.1299999952
0.1299999952
0.1299999952
0.1299999952
0.1299999952
0.1299999952
0.1299999952
0.1299999952
0.1299999952
0.1299999952
0.1299999952
0.1299999952
0.1299999952
0.1299999952
0.1299999952
0.1299999952
0.1299999952
0.1299999952
0.1299999952
0.1299999952
0.1300006224
0.130000284
0.1300002624
0.1300002505
0.1300002116
0.1300001721
)


101
(
0.1400000006
0.1400000006
0.1400000006
0.1400000006
0.1400000006
0.1400000006
0.1400000006
0.1400000006
0.1400000006
0.1400000006
0.1400000006
0.1400000006
0.1400000006
0.1400000006
0.1400000006
0.1400000006
0.1400000006
0.1400000006
0.1400000006
0.1400000006
0.1400000006
0.1400000006
0.1400000006
0.1400000006
0.1400000006
0.1400000006
0.1400000006
0.1400000006
0.1400000006
0.1400000006
0.1400000006
0.1400000006
0.1400000006
0.1400000006
0.1400000006
0.1400000006
0.1400000006
0.1400000006
0.1400000006
0.1400000006
0.1400000006
0.1400000006
0.1400000006
0.1400000006
0.1400000006
0.1400000006
0.1400000006
0.1400000006
0.1400000006
0.1400000006
0.1400000006
0.1400000006
0.1400000006
0.1400000006
0.1400000006
0.1400000006
0.1400000006
0.1400000006
0.1400000006
0.1400000006
0.1400000006
0.1400000006
0.1400000006
0.1400000006
0.1400000006
0.1400000006
0.1400000006
0.1400000006
0.1400000006
0.1400000006
0.1400000006
0.1400000006
0.1400000006
0.1400000006
0.1400000006
0.1400000006
0.1400000006
0.1400000006
0.1400000006
0.1400000006
0.1400000006
0.1400000006
0.1400000006
0.1400000006
0.1400000006
0.1400000006
0.1400000006
0.1400000006
0.1400000006
0.1400000006
0.1400000006
0.1400000006
0.1400000006
0.1400000006
0.1400000006
0.1400005679
0.1400002882
0.1400002657
0.1400002527
0.1400002119
0.1400001706
)


101
(
0.150000006
0.150000006
0.150000006
0.150000006
0.150000006
0.150000006
0.150000006
0.150000006
0.150000006
0.150000006
0.150000006
0.150000006
0.150000006
0.150000006
0.150000006
0.150000006
0.150000006
0.150000006
0.150000006
0.150000006
0.150000006
0.150000006
0.150000006
0.150000006
0.150000006
0.150000006
0.150000006
0.150000006
0.150000006
0.150000006
0.150000006
0.150000006
0.150000006
0.150000006
0.150000006
0.150000006
0.150000006
0.150000006
0.150000006
0.150000006
0.150000006
0.150000006
0.150000006
0.150000006
0.150000006
0.150000006
0.150000006
0.150000006
0.150000006
0.150000006
0.150000006
0.150000006
0.150000006
0.150000006
0.150000006
0.150000006
0.150000006
0.150000006
0.150000006
0.150000006
0.150000006
0.150000006
0.150000006
0.150000006
0.150000006
0.150000006
0.150000006
0.150000006
0.150000006
0.150000006
0.150000006
0.150000006
0.150000006
0.150000006
0.150000006
0.150000006
0.150000006
0.150000006
0.150000006
0.150000006
0.150000006
0.150000006
0.150000006
0.150000006
0.150000006
0.150000006
0.150000006
0.150000006
0.150000006
0.150000006
0.150000006
0.150000006
0.150000006
0.150000006
0.150000006
0.1500004344
0.1500002559
0.1500002565
0.1500002634
0.150000212
0.1500001599
)


101
(
0.1599999964
0.1599999964
0.1599999964
0.1599999964
0.1599999964
0.1599999964
0.1599999964
0.1599999964
0.1599999964
0.1599999964
0.1599999964
0.1599999964
0.1599999964
0.1599999964
0.1599999964
0.1599999964
0.1599999964
0.1599999964
0.1599999964
0.1599999964
0.1599999964
0.1599999964
0.1599999964
0.1599999964
0.1599999964
0.1599999964
0.1599999964
0.1599999964
0.1599999964
0.1599999964
0.1599999964
0.1599999964
0.1599999964
0.1599999964
0.1599999964
0.1599999964
0.1599999964
0.1599999964
0.1599999964
0.1599999964
0.1599999964
0.1599999964
0.1599999964
0.1599999964
0.1599999964
0.1599999964
0.1599999964
0.1599999964
0.1599999964
0.1599999964
0.1599999964
0.1599999964
0.1599999964
0.1599999964
0.1599999964
0.1599999964
0.1599999964
0.1599999964
0.1599999964
0.1599999964
0.1599999964
0.1599999964
0.1599999964
0.1599999964
0.1599999964
0.1599999964
0.1599999964
0.1599999964
0.1599999964
0.1599999964
0.1599999964
0.1599999964
0.1599999964
0.1599999964
0.1599999964
0.1599999964
0.1599999964
0.1599999964
0.1599999964
0.1599999964
0.1599999964
0.1599999964
0.1599999964
0.1599999964
0.1599999964
0.1599999964
0.1599999964
0.1599999964
0.1599999964
0.1599999964
0.1599999964
0.1599999964
0.1599999964
0.1599999964
0.1599999964
0.1600003882
0.1600002464
0.1600002393
0.1600002395
0.1600001972
0.1600001544
)


101
(
0.1700000018
0.1700000018
0.1700000018
0.1700000018
0.1700000018
0.1700000018
0.1700000018
0.1700000018
0.1700000018
0.1700000018
0.1700000018
0.1700000018
0.1700000018
0.1700000018
0.1700000018
0.1700000018
0.1700000018
0.1700000018
0.1700000018
0.1700000018
0.1700000018
0.1700000018
0.1700000018
0.1700000018
0.1700000018
0.1700000018
0.1700000018
0.1700000018
0.1700000018
0.1700000018
0.1700000018
0.1700000018
0.1700000018
0.1700000018
0.1700000018
0.1700000018
0.1700000018
0.1700000018
0.1700000018
0.1700000018
0.1700000018
0.1700000018
0.1700000018
0.1700000018
0.1700000018
0.1700000018
0.1700000018
0.1700000018
0.1700000018
0.1700000018
0.1700000018
0.1700000018
0.1700000018
0.1700000018
0.1700000018
0.1700000018
0.1700000018
0.1700000018
0.1700000018
0.1700000018
0.1700000018
0.1700000018
0.1700000018
0.1700000018
0.1700000018
0.1700000018
0.1700000018
0.1700000018
0.1700000018
0.1700000018
0.1700000018
0.1700000018
0.1700000018
0.1700000018
0.1700000018
0.1700000018
0.1700000018
0.1700000018
0.1700000018
0.1700000018
0.1700000018
0.1700000018
0.1700000018
0.1700000018
0.1700000018
0.1700000018
0.1700000018
0.1700000018
0.1700000018
0.1700000018
0.1700000018
0.1700000018
0.1700000018
0.1700000018
0.1700000018
0.1700003313
0.1700002374
0.170000215
0.170000202
0.1700001826
0.170000163
)


101
(
0.1800000072
0.1800000072
0.1800000072
0.1800000072
0.1800000072
0.1800000072
0.1800000072
0.1800000072
0.1800000072
0.1800000072
0.1800000072
0.1800000072
0.1800000072
0.1800000072
0.1800000072
0.1800000072
0.1800000072
0.1800000072
0.1800000072
0.1800000072
0.1800000072
0.1800000072
0.1800000072
0.1800000072
0.1800000072
0.1800000072
0.1800000072
0.1800000072
0.1800000072
0.1800000072
0.1800000072
0.1800000072
0.1800000072
0.1800000072
0.1800000072
0.1800000072
0.1800000072
0.1800000072
0.1800000072
0.1800000072
0.1800000072
0.1800000072
0.1800000072
0.1800000072
0.1800000072
0.1800000072
0.1800000072
0.1800000072
0.1800000072
0.1800000072
0.1800000072
0.1800000072
0.1800000072
0.1800000072
0.1800000072
0.1800000072
0.1800000072
0.1800000072
0.1800000072
0.1800000072
0.1800000072
0.1800000072
0.1800000072
0.1800000072
0.1800000072
0.1800000072
0.1800000072
0.1800000072
0.1800000072
0.1800000072
0.1800000072
0.1800000072
0.1800000072
0.1800000072
0.1800000072
0.1800000072
0.1800000072
0.1800000072
0.1800000072
0.1800000072
0.1800000072
0.1800000072
0.1800000072
0.1800000072
0.1800000072
0.1800000072
0.1800000072
0.1800000072
0.1800000072
0.1800000072
0.1800000072
0.1800000072
0.1800000072
0.1800000072
0.1800000072
0.1800003219
0.1800002487
0.1800002145
0.1800001906
0.1800001782
0.1800001657
)


101
(
0.1899999976
0.1899999976
0.1899999976
0.1899999976
0.1899999976
0.1899999976
0.1899999976
0.1899999976
0.1899999976
0.1899999976
0.1899999976
0.1899999976
0.1899999976
0.1899999976
0.1899999976
0.1899999976
0.1899999976
0.1899999976
0.1899999976
0.1899999976
0.1899999976
0.1899999976
0.1899999976
0.1899999976
0.1899999976
0.1899999976
0.1899999976
0.1899999976
0.1899999976
0.1899999976
0.1899999976
0.1899999976
0.1899999976
0.1899999976
0.1899999976
0.1899999976
0.1899999976
0.1899999976
0.1899999976
0.1899999976
0.1899999976
0.1899999976
0.1899999976
0.1899999976
0.1899999976
0.1899999976
0.1899999976
0.1899999976
0.1899999976
0.1899999976
0.1899999976
0.1899999976
0.1899999976
0.1899999976
0.1899999976
0.1899999976
0.1899999976
0.1899999976
0.1899999976
0.1899999976
0.1899999976
0.1899999976
0.1899999976
0.1899999976
0.1899999976
0.1899999976
0.1899999976
0.1899999976
0.1899999976
0.1899999976
0.1899999976
0.1899999976
0.1899999976
0.1899999976
0.1899999976
0.1899999976
0.1899999976
0.1899999976
0.1899999976
0.1899999976
0.1899999976
0.1899999976
0.1899999976
0.1899999976
0.1899999976
0.1899999976
0.1899999976
0.1899999976
0.1899999976
0.1899999976
0.1899999976
0.1899999976
0.1899999976
0.1899999976
0.1899999976
0.1900002945
0.1900002426
0.1900002084
0.1900001837
0.1900001611
0.1900001383
)


101
(
0.200000003
0.200000003
0.200000003
0.200000003
0.200000003
0.200000003
0.200000003
0.200000003
0.200000003
0.200000003
0.200000003
0.200000003
0.200000003
0.200000003
0.200000003
0.200000003
0.200000003
0.200000003
0.200000003
0.200000003
0.200000003
0.200000003
0.200000003
0.200000003
0.200000003
0.200000003
0.200000003
0.200000003
0.200000003
0.200000003
0.200000003
0.200000003
0.200000003
0.200000003
0.200000003
0.200000003
0.200000003
0.200000003
0.200000003
0.200000003
0.200000003
0.200000003
0.200000003
0.200000003
0.200000003
0.200000003
0.200000003
0.200000003
0.200000003
0.200000003
0.200000003
0.200000003
0.200000003
0.200000003
0.200000003
0.200000003
0.200000003
0.200000003
0.200000003
0.200000003
0.200000003
0.200000003
0.200000003
0.200000003
0.200000003
0.200000003
0.200000003
0.200000003
0.200000003
0.200000003
0.200000003
0.200000003
0.200000003
0.200000003
0.200000003
0.200000003
0.200000003
0.200000003
0.200000003
0.200000003
0.200000003
0.200000003
0.200000003
0.200000003
0.200000003
0.200000003
0.200000003
0.200000003
0.200000003
0.200000003
0.200000003
0.200000003
0.200000003
0.200000003
0.200000003
0.200000263
0.2000002396
0.2000002023
0.2000001751
0.2000001619
0.2000001485
)


101
(
0.2099999934
0.2099999934
0.2099999934
0.2099999934
0.2099999934
0.2099999934
0.2099999934
0.2099999934
0.2099999934
0.2099999934
0.2099999934
0.2099999934
0.2099999934
0.2099999934
0.2099999934
0.2099999934
0.2099999934
0.2099999934
0.2099999934
0.2099999934
0.2099999934
0.2099999934
0.2099999934
0.2099999934
0.2099999934
0.2099999934
0.2099999934
0.2099999934
0.2099999934
0.2099999934
0.2099999934
0.2099999934
0.2099999934
0.2099999934
0.2099999934
0.2099999934
0.2099999934
0.2099999934
0.2099999934
0.2099999934
0.2099999934
0.2099999934
0.2099999934
0.2099999934
0.2099999934
0.2099999934
0.2099999934
0.2099999934
0.2099999934
0.2099999934
0.2099999934
0.2099999934
0.2099999934
0.2099999934
0.2099999934
0.2099999934
0.2099999934
0.2099999934
0.2099999934
0.2099999934
0.2099999934
0.2099999934
0.2099999934
0.2099999934
0.2099999934
0.2099999934
0.2099999934
0.2099999934
0.2099999934
0.2099999934
0.2099999934
0.2099999934
0.2099999934
0.2099999934
0.2099999934
0.2099999934
0.2099999934
0.2099999934
0.2099999934
0.2099999934
0.2099999934
0.2099999934
0.2099999934
0.2099999934
0.2099999934
0.2099999934
0.2099999934
0.2099999934
0.2099999934
0.2099999934
0.2099999934
0.2099999934
0.2099999934
0.2099999934
0.2099999934
0.2100002473
0.2100002377
0.2100001937
0.2100001603
0.2100001486
0.2100001367
)


101
(
0.2199999988
0.2199999988
0.2199999988
0.2199999988
0.2199999988
0.2199999988
0.2199999988
0.2199999988
0.2199999988
0.2199999988
0.2199999988
0.2199999988
0.2199999988
0.2199999988
0.2199999988
0.2199999988
0.2199999988
0.2199999988
0.2199999988
0.2199999988
0.2199999988
0.2199999988
0.2199999988
0.2199999988
0.2199999988
0.2199999988
0.2199999988
0.2199999988
0.2199999988
0.2199999988
0.2199999988
0.2199999988
0.2199999988
0.2199999988
0.2199999988
0.2199999988
0.2199999988
0.2199999988
0.2199999988
0.2199999988
0.2199999988
0.2199999988
0.2199999988
0.2199999988
0.2199999988
0.2199999988
0.2199999988
0.2199999988
0.2199999988
0.2199999988
0.2199999988
0.2199999988
0.2199999988