/*--------------------------------*- C++ -*----------------------------------*\
| =========                 |                                                 |
| \\      /  F ield         | OpenFOAM: The Open Source CFD Toolbox           |
|  \\    /   O peration     | Version:  2.3.1                                 |
|   \\  /    A nd           | Web:      www.OpenFOAM.org                      |
|    \\/     M anipulation  |                                                 |
\*---------------------------------------------------------------------------*/
FoamFile
{
    version     2.0;
    format      ascii;
    class       dictionary;
    location    "constant";
    object      DPSE2;
}
// * * * * * * * * * * * * * * * * * * * * * * * * * * * * * * * * * * * * * //

DPSE2_table
101
(

101
(
-1.829361947e-23
1.313599164e-18
2.696065772e-18
-1.025587231e-18
-2.826374294e-18
-4.783627266e-18
1.610947043e-18
7.278592069e-18
8.324058303e-18
1.958782024e-19
1.049780987e-17
5.251076733e-18
3.08218794e-18
-1.827387163e-17
-1.738978462e-17
3.292612242e-17
-7.419372167e-18
-2.109967008e-19
1.125579397e-17
1.245298418e-18
1.384954446e-17
1.9838207e-17
1.094134511e-19
-1.312186273e-17
-2.225519132e-17
-4.021930421e-18
-7.371278593e-17
4.569723672e-18
-2.476635425e-17
3.520115743e-18
-1.394017775e-16
3.403022505e-18
-9.125563344e-17
1.221563227e-16
-1.271384949e-16
-3.729034399e-17
-6.284511124e-17
-6.126510306e-18
-2.876601262e-18
-1.173476969e-16
1.976354591e-16
3.363673657e-17
-4.077823396e-17
-3.090744715e-17
1.320016797e-16
-8.040759188e-17
-7.189590133e-20
1.381729578e-16
8.08938385e-17
1.442349987e-16
-3.868912364e-17
-5.400512297e-17
9.453413141e-17
3.99271355e-19
8.746149915e-18
3.590039418e-17
-1.005302644e-16
-1.146509993e-17
8.222137316e-20
1.699044875e-18
-2.298357219e-16
-3.649794497e-17
-3.393461734e-17
-1.957393392e-17
-1.077239703e-16
-9.602802861e-18
1.327535361e-18
-1.336372031e-17
-6.832291735e-17
4.669047923e-17
-2.273581384e-16
2.550985422e-16
8.537952527e-17
-8.738883876e-17
-3.506668955e-16
-1.002372333e-16
-7.876812584e-17
2.375937902e-17
3.96842667e-19
-2.257276986e-16
1.336093471e-16
-1.089133783e-16
-5.160278983e-17
-1.291373363e-17
-8.300520639e-17
-1.379195151e-16
-1.505932197e-17
-9.502260679e-19
2.527472684e-16
-1.403333831e-16
1.006821864e-16
6.240234566e-19
1.265524457e-16
1.95088029e-16
5.894018232e-19
9.665084594e-19
-5.592602602e-17
-2.449833249e-16
-8.939896406e-17
3.10038338e-17
3.240282959e-16
)


101
(
-3.964343297e-20
-1.528013636e-18
-2.471468272e-18
4.11443805e-18
1.366649949e-18
1.339988271e-17
-1.603794898e-17
-2.123577246e-18
2.342247619e-18
1.309604349e-17
-3.050385605e-17
-1.372590545e-17
2.641400303e-18
-1.270241581e-17
-5.169292282e-18
9.844284184e-18
4.847560217e-17
2.23137216e-20
-1.353119438e-17
1.523429842e-17
2.787811865e-17
-7.173033731e-17
2.973054515e-17
5.676498193e-18
-1.795356526e-18
-4.661062029e-17
2.196264412e-18
-5.220546308e-17
5.170915656e-17
3.030939704e-18
-6.143153739e-17
-3.541036185e-18
-6.302301847e-17
-3.188923484e-17
-3.920489785e-17
9.458644832e-19
-1.04848143e-16
4.076911573e-17
-6.703346073e-17
-7.133255823e-17
-7.623346764e-17
-8.162158671e-17
4.654345431e-17
5.18846768e-17
2.829978085e-19
-1.332696463e-16
-3.848074051e-17
8.803352825e-17
-9.063557274e-18
-2.162278967e-16
4.814551209e-17
-6.479881909e-17
-3.258802934e-17
1.045175692e-16
1.133467715e-16
-5.676382596e-17
1.658948554e-16
-4.375269679e-17
-1.58019686e-18
1.729927108e-16
-1.056470135e-16
-2.000959243e-19
1.086243947e-16
7.425305944e-17
2.462528976e-16
1.234442483e-16
-7.990415783e-17
-8.162020169e-17
-5.875965675e-17
-2.300405611e-17
1.123915349e-17
1.337816406e-16
-1.478513328e-16
-2.514123062e-17
-1.130157735e-16
-6.282315161e-17
2.553819074e-17
-7.842146198e-17
3.892352131e-17
-2.630502512e-17
-1.299514773e-17
-9.429112587e-17
1.495102129e-16
8.120132558e-19
-1.110717681e-16
-6.866038559e-17
-8.432245965e-17
5.2984087e-17
2.389185723e-16
1.545762645e-16
-2.267281464e-16
-1.327854963e-17
4.158887684e-17
-2.991779491e-16
-1.022130733e-16
-1.311555767e-16
2.591181875e-16
-2.357858729e-19
3.107929946e-17
-7.814863029e-17
1.244684431e-16
)


101
(
6.520336746e-20
-7.526599058e-22
-3.143279003e-18
1.450106334e-20
-1.26819649e-20
-1.687805244e-18
2.475960468e-19
-1.169978684e-17
-4.82708882e-18
-9.714269255e-22
1.271395843e-17
1.578538551e-17
3.34330593e-17
1.674452835e-17
-3.56351164e-18
-2.644573408e-17
2.974568418e-18
3.091234546e-17
-4.401769254e-20
-2.18965345e-17
1.329344992e-17
-3.56487065e-17
3.770183968e-17
-1.66086842e-17
-4.154077449e-17
-4.563138707e-17
-1.828598149e-17
6.715801373e-17
2.396463946e-17
-2.406529751e-17
-5.880332144e-18
-5.672789411e-17
-1.450454252e-19
3.190117603e-17
1.449858321e-19
-3.036870177e-18
-4.796703843e-18
-3.393490069e-17
2.232162932e-17
-4.355733173e-19
-1.135249514e-16
4.198258101e-17
3.915856243e-17
-1.051183555e-19
3.531015636e-17
-6.662028147e-18
-8.417382479e-17
9.657232251e-17
9.451662082e-18
-7.813573185e-17
9.594309909e-18
-4.638251343e-17
-1.382376598e-17
-2.775363453e-20
-8.168814549e-18
-1.160926581e-16
1.588901164e-16
-8.599524275e-19
9.250499985e-17
-2.504719654e-17
-4.325191304e-20
7.290264349e-17
-4.32877243e-17
7.436232712e-17
6.763922347e-17
4.811925065e-17
7.957012384e-17
-2.476447541e-17
-2.320589443e-17
-2.492344176e-19
-1.325103284e-16
-1.089326345e-16
-9.772213656e-17
1.960673177e-16
6.244656604e-17
6.212046843e-17
1.269889954e-16
-1.143615968e-16
-1.1738949e-16
9.300867459e-17
4.978966773e-17
-8.060684952e-17
-2.919764147e-17
5.409169197e-17
1.677595077e-17
-3.027176977e-16
2.199041544e-16
8.374762061e-17
-1.746558751e-17
-2.401054192e-16
6.765798915e-17
-2.383346745e-16
9.560274327e-17
1.552974336e-17
-4.491200663e-17
1.027403579e-15
3.057744474e-17
-1.12471598e-16
9.104037828e-17
1.011886546e-17
2.537901823e-16
)


101
(
-3.963719803e-20
1.640967424e-18
-2.700500913e-18
1.030460811e-18
1.017405412e-17
-7.782542278e-18
-6.251108311e-20
-1.186146143e-17
1.363933122e-17
-3.541592361e-19
1.182593114e-17
2.272487571e-18
7.607968048e-21
-2.307184102e-17
1.321565448e-17
1.396002869e-17
-1.926105034e-17
-4.352934156e-17
4.144317409e-17
1.600138185e-18
9.793263235e-20
1.434950456e-17
-3.175328833e-17
-4.108929705e-17
-3.735557636e-18
1.708702542e-18
1.613992314e-19
-2.371498749e-17
-3.329644649e-18
2.850776273e-17
-5.713560355e-17
3.332829791e-17
3.047000777e-17
-3.566962278e-17
1.132083498e-18
-4.524869126e-18
2.460773905e-18
-3.217894528e-17
-7.386539655e-17
3.652826376e-17
-2.375559091e-18
-3.888161627e-17
-4.356978918e-19
-3.216746597e-17
8.101582169e-17
-5.280851075e-17
5.502087447e-17
-5.687927185e-17
5.173682495e-17
-2.256885395e-17
-5.312951605e-18
-5.859651536e-17
4.893365201e-17
7.742281243e-17
3.221828573e-17
-1.001988297e-16
-5.095613882e-17
6.964060919e-18
4.415409737e-17
2.532769141e-17
1.351685387e-16
2.411240994e-17
2.359270562e-16
-3.889626801e-17
2.927873997e-17
-5.620898689e-17
1.607833335e-16
-3.10821137e-17
8.166387831e-17
5.945777609e-17
3.436364744e-19
-3.405157187e-17
2.696014865e-17
-1.229861602e-16
1.361743252e-16
-1.281644946e-16
-1.441748051e-17
1.787996326e-16
1.272609549e-17
2.226849139e-16
-1.169976529e-17
8.365491134e-17
2.896037672e-17
-2.838156985e-17
1.892176694e-16
-8.286283611e-17
-1.517997596e-16
5.907485594e-17
-2.620992131e-17
-2.221888474e-16
-1.556284196e-16
-8.542675288e-17
-2.123943344e-16
1.538121303e-16
-1.296093867e-17
8.300725277e-16
-2.171370195e-16
-3.223257268e-16
-2.698289781e-16
-5.110751377e-17
2.959617605e-16
)


101
(
1.27913483e-20
-2.244047441e-18
-6.663730803e-19
-3.089958215e-18
1.563522242e-17
-3.127118782e-19
7.68864168e-18
7.236561108e-18
1.360975301e-17
-1.741299649e-19
-1.046178089e-17
2.403446784e-17
-1.534020053e-17
-2.657263379e-17
3.574337444e-18
1.738572544e-17
-2.951088248e-17
9.903612207e-18
-2.846523202e-19
-2.291305624e-17
-1.458019642e-18
4.917391396e-17
3.574623409e-17
2.1930599e-17
1.741482827e-17
-4.531878004e-17
-2.931614289e-17
2.507570842e-18
2.196370933e-17
-2.820442311e-17
2.358568901e-17
-2.533430327e-17
2.70728089e-17
5.30011742e-17
5.826334299e-17
-7.51738715e-19
-6.567769827e-17
-5.606022901e-18
-4.482821284e-18
3.340073103e-18
-8.385191117e-18
7.974544007e-17
-4.479521895e-17
-5.741680819e-17
-8.578933825e-17
-8.677014862e-17
-7.973551352e-20
-3.993729046e-17
-4.428874802e-17
1.512816024e-19
4.074509396e-17
-9.787476929e-17
-4.925473301e-17
4.350879954e-18
6.085715603e-17
-9.871529187e-18
6.605006009e-18
2.614231099e-17
1.580308652e-16
-2.111220798e-17
2.443313461e-16
8.039311662e-17
4.641775642e-17
1.567848301e-16
-1.681642259e-16
2.185735644e-17
-1.353509088e-16
4.89380999e-17
9.716287533e-17
-1.58626127e-18
7.572441623e-17
-1.66575701e-16
-2.54920217e-16
7.230552665e-17
1.144280355e-18
-4.007692918e-16
1.61780784e-18
1.811308228e-16
1.2853978e-17
9.081324667e-17
-2.389802079e-16
1.714119156e-16
-2.90677845e-17
9.824013496e-17
-4.245424711e-16
-6.610634814e-17
4.629098007e-17
9.573145902e-17
5.328485204e-17
-2.657703766e-17
2.484257134e-17
1.700738248e-16
1.388792943e-16
8.909256962e-17
8.87664066e-16
1.168647365e-15
3.046140217e-16
-5.540040398e-16
3.378622508e-16
4.147457524e-16
3.12256845e-17
)


101
(
1.278254118e-20
1.258336028e-18
-6.674465331e-19
-2.334072215e-22
-9.546673171e-19
3.114674417e-20
7.914119625e-18
-1.533927458e-19
1.053672065e-17
3.281037527e-18
1.00373071e-17
-4.489555688e-18
-1.763508333e-17
-3.218118833e-17
-7.185960344e-18
5.607030461e-18
-1.625284535e-17
-1.106740581e-17
6.902553545e-18
6.584015413e-19
-3.560411081e-17
-1.801539769e-17
1.591850371e-18
3.892018352e-17
-2.411239371e-17
7.145365418e-17
4.12123001e-18
2.432483153e-17
-4.714264389e-17
4.742722405e-19
-3.221650426e-17
-6.223931843e-19
-3.25263417e-18
-5.609349663e-17
-6.538568036e-17
3.559559971e-17
2.580049407e-17
4.23166392e-17
-4.918759659e-19
-3.954754488e-17
4.196159152e-17
-8.07251239e-17
-8.009626912e-18
-4.892844043e-17
-7.304259904e-17
-7.606856103e-17
-3.819698584e-19
6.081168602e-17
-3.520016246e-17
-4.171082597e-17
-6.0703944e-17
6.174538217e-17
-1.057956195e-17
-4.292466576e-17
-4.555595864e-17
-1.295473823e-18
-4.319743871e-17
4.610761167e-18
4.005433051e-17
-2.763703816e-17
-1.449999591e-16
7.891611842e-17
2.616488006e-17
-1.070280629e-16
2.391153865e-16
-1.014836284e-16
8.774312792e-17
-8.89103274e-17
-2.646220252e-16
7.228296854e-17
-3.296869895e-16
5.175306251e-17
9.425328031e-17
-1.131388997e-16
3.363818494e-17
5.042866678e-17
-6.54254668e-17
-8.866662165e-17
2.882796149e-16
1.482887801e-16
2.494948535e-16
-1.272662843e-17
-3.692411087e-17
-7.899407269e-17
2.847383698e-16
-2.77179993e-16
6.092272811e-20
4.135889925e-17
3.364396021e-16
2.773745965e-16
2.683057588e-16
-4.993628223e-16
-2.188206448e-16
7.014558114e-17
1.049212292e-15
2.199723186e-15
3.17059874e-16
1.843747753e-16
2.456272525e-16
9.370917032e-18
-2.51912728e-16
)


101
(
-5.530428205e-20
-9.842897479e-19
2.469634685e-18
-1.006870763e-18
5.532664575e-18
4.915061777e-19
-2.557660004e-19
1.693092945e-18
-1.356561185e-17
-8.277432964e-18
-1.458724065e-17
1.555557561e-17
1.793134905e-17
2.923200782e-17
1.343588926e-17
2.469317739e-18
-5.794950972e-18
-2.885266696e-17
2.959586235e-17
-2.162060551e-17
-1.961862547e-17
-4.022127072e-18
-1.218004703e-17
1.921023077e-17
1.50344767e-17
-3.992967877e-18
2.593044998e-20
-2.129762976e-17
-4.082660869e-18
-5.196189839e-17
2.784956039e-17
-3.300979763e-17
2.66866725e-17
-2.128892739e-19
-7.797121852e-18
-6.645170525e-17
-1.006705564e-18
7.18020497e-17
9.853368314e-17
3.937587751e-17
7.42407122e-17
1.128382251e-16
-1.260435033e-16
8.246622871e-17
8.714473762e-17
-1.123489898e-17
-3.723544452e-17
-1.234339636e-17
-5.18783859e-17
9.016464701e-18
-6.520774627e-17
4.224750142e-17
-1.331677112e-16
1.487649212e-16
-4.244102566e-17
-1.753427085e-16
1.565093969e-16
-7.379333902e-17
5.02852893e-17
-7.611681179e-17
-1.44902659e-16
-1.00997479e-16
2.302178466e-16
5.414781017e-17
1.560217951e-16
2.188083567e-16
-4.372239394e-17
-2.388231618e-16
-3.763926041e-17
-7.068669387e-17
-7.765844092e-17
-4.162965293e-17
-1.663995427e-16
-3.596670161e-17
-5.358704086e-17
2.795180544e-16
-2.327127026e-17
-1.512306074e-16
-3.466541715e-17
-5.174346524e-17
-2.317175006e-16
-5.578652621e-17
-5.681060122e-17
3.949558192e-17
2.441581948e-16
-2.463553586e-16
2.058823123e-16
5.760254922e-17
-3.635742889e-16
-1.603170312e-16
-3.277662716e-18
-1.278244061e-17
4.41106185e-17
-5.09488429e-17
6.888791942e-16
3.038229273e-15
-1.201370223e-19
-4.576923827e-16
-1.410903657e-16
-3.033565852e-16
4.365912369e-16
)


101
(
-1.695212226e-20
-5.030951197e-15
-5.067406487e-15
-6.339891011e-19
1.381203161e-20
-3.104744557e-20
-1.573363739e-18
-1.151449641e-17
1.102754307e-17
-1.784279638e-20
1.295485609e-17
3.184663777e-18
3.310620462e-18
1.3100099e-17
3.620554975e-18
6.986756843e-18
2.299270033e-18
-7.35362044e-18
1.824580416e-18
7.519708558e-19
-1.145105119e-17
-2.343534225e-17
4.71310162e-17
4.054963442e-17
2.232957716e-17
2.200356364e-17
-2.291143505e-17
4.135269412e-17
5.221071213e-17
2.392981795e-17
2.504553655e-17
-3.11457043e-17
2.377613067e-17
-3.764273794e-17
3.192369129e-17
1.188672024e-16
-3.531457427e-17
-2.799093767e-17
1.158420118e-16
-3.93022554e-17
1.085482213e-16
4.142884751e-17
6.916068237e-17
-3.650725216e-17
-3.846754668e-17
7.829037714e-17
-7.193143353e-18
-2.26575487e-20
2.568238509e-16
-4.159433768e-17
-2.860929452e-17
5.057414577e-17
9.498786545e-17
-1.553378933e-16
-1.231688092e-17
-3.421898733e-17
6.257324432e-17
-1.238669863e-19
8.436675376e-17
2.63372676e-17
2.208133566e-16
4.665279565e-19
1.959656666e-16
-4.844790899e-17
-2.286517111e-16
-1.570740678e-16
1.667152322e-16
-2.591329952e-16
-6.827201495e-17
-1.965689091e-16
1.401778987e-16
-2.810488675e-17
6.989559458e-17
-4.468640247e-16
-1.303256479e-17
-1.750823265e-16
-1.483434427e-17
3.766163223e-17
-5.774471785e-17
5.148537104e-17
3.06681111e-16
-2.902524882e-16
-4.40844677e-16
5.388599714e-16
-3.103469482e-16
4.905934475e-17
2.05054183e-16
-6.852863343e-17
-6.195132288e-17
1.733392296e-16
-1.816009129e-16
-2.292627221e-18
2.48172455e-17
-3.270184914e-16
3.417118623e-15
4.446624592e-15
2.615448099e-16
2.553134404e-17
-4.618491696e-17
-1.01964667e-15
3.269048233e-16
)


101
(
-8.21407893e-20
-5.033913922e-15
-5.080222503e-15
6.817206647e-18
5.937017377e-18
9.343113324e-18
5.230516328e-20
9.645535177e-18
-1.080076543e-17
7.733361856e-19
1.953328663e-19
-3.121810302e-18
-3.322147675e-18
-1.907259677e-17
-1.810927345e-17
-2.111208465e-17
-1.308786627e-17
-3.935418045e-18
-2.855299774e-17
1.766844606e-17
2.37137265e-17
1.585654219e-17
-2.860078265e-17
-3.812647869e-17
-8.392110577e-17
1.511734797e-17
-1.001374824e-17
-4.202900023e-17
4.834972711e-17
5.218922198e-17
4.412398883e-17
1.736486202e-18
2.817520843e-17
3.1833772e-17
5.727351858e-17
-5.841948255e-17
4.110948495e-17
-2.524953516e-17
-9.317110692e-20
3.136512632e-18
-1.157051948e-16
4.249805417e-17
3.218641852e-17
-1.712904129e-19
-9.797506638e-17
-4.035474945e-18
-2.45007204e-16
1.056027599e-16
9.564132886e-17
-2.363136396e-16
3.07750829e-18
-2.008562569e-16
-4.176649767e-17
1.691528937e-16
-1.403444861e-16
-2.752823413e-17
-2.703099037e-17
-1.723114286e-16
-1.662560033e-16
-1.316684319e-19
-1.180330703e-16
8.389213022e-17
4.121080929e-17
2.148774328e-16
2.123661067e-16
5.967436285e-17
-1.809862387e-16
-8.284474728e-17
9.230763915e-17
1.930224959e-16
-1.998066181e-16
9.162953391e-18
-1.632121516e-16
-4.988772363e-17
1.080868964e-17
-8.574271034e-17
6.785941234e-17
-4.442683401e-17
2.048197172e-16
4.639333743e-17
-7.158035158e-17
4.472655766e-16
-5.913419792e-16
-3.525054494e-16
-5.388163132e-17
2.449582754e-17
-8.353529776e-17
2.74898408e-16
-3.324514825e-16
-5.820490208e-17
-3.352599927e-16
-2.054739076e-16
5.136863932e-16
6.163234931e-17
3.565164337e-15
4.801492198e-15
-2.13920839e-16
-8.965874598e-16
-5.872542706e-16
-5.144286977e-15
-1.079819106e-16
)


101
(
1.278722203e-20
1.038516082e-18
-6.671521818e-19
-5.127535207e-15
-5.032713115e-18
-1.079226607e-18
1.099069574e-20
2.243144224e-18
8.164634002e-18
-1.554051556e-17
-6.393381037e-18
-2.332551276e-18
-3.190838838e-18
3.954143093e-18
1.734011321e-17
9.508627107e-18
1.870376861e-17
2.723040565e-17
9.995106911e-18
-1.771563691e-17
1.2455724e-17
-2.346373754e-17
-1.594076034e-17
1.388570678e-18
1.764839306e-17
-3.819082184e-19
-2.050626999e-18
1.802119627e-17
5.218062558e-17
1.758238169e-20
-1.80454423e-19
3.577913468e-17
2.433278669e-20
-9.041090973e-17
-1.222166772e-16
9.773754636e-17
2.764782498e-17
1.082908096e-18
-2.529016525e-18
7.467714536e-17
4.677559583e-18
9.284976843e-18
3.794311168e-17
3.872085645e-17
-1.182520389e-17
4.22053615e-18
-3.403345393e-17
-4.655330976e-17
3.200751768e-17
1.435217566e-16
4.05490241e-18
4.970760728e-17
1.909779241e-17
-5.038462541e-17
-1.503787808e-17
2.197078487e-16
-1.568240458e-16
-1.911312246e-18
2.132900006e-16
1.639730498e-16
1.166881468e-16
1.808095657e-16
-1.035293559e-16
4.665653527e-17
-3.074965583e-17
2.319283943e-16
2.255337841e-17
-4.786203301e-17
-1.704237604e-16
-2.215178343e-16
4.18899042e-16
-5.433365686e-17
-1.135683183e-16
1.982944933e-15
-2.4974648e-16
-1.267250691e-16
2.751246063e-16
-1.524978448e-16
2.760758928e-17
-7.417290271e-17
-2.109986954e-16
-1.602841519e-16
2.059692261e-16
2.34897457e-16
3.301745468e-17
-2.974105191e-16
8.466677357e-17
3.883916742e-16
-1.980542655e-16
2.527823096e-16
1.487268422e-16
-5.623317719e-17
2.259408601e-16
2.354157574e-16
3.555741791e-15
6.289433548e-15
1.175325386e-16
-2.68562749e-15
-3.188711413e-15
-7.890916134e-15
-1.088121693e-16
)


101
(
-8.790138266e-20
1.314540127e-18
5.555890183e-21
-5.138012128e-15
-5.086449996e-19
2.335413835e-18
7.822063191e-18
2.459191193e-20
-1.910951898e-17
-1.578028e-17
1.687958852e-17
-2.531332822e-19
-2.881879955e-18
4.071087794e-19
-2.184993511e-17
-2.586831131e-17
-2.472588301e-17
1.12109895e-17
-1.706393146e-20
1.835490588e-17
-3.423565351e-17
7.989117795e-20
2.142959589e-17
4.214385276e-17
8.309450248e-18
-8.295731412e-18
-4.501270281e-17
6.659310215e-18
9.198096423e-17
-2.929523298e-17
4.427738025e-18
-3.279253778e-17
-5.835653762e-17
1.4572124e-16
7.109324054e-17
-2.601328389e-17
-2.701170092e-17
-8.504526001e-18
-7.10425998e-18
5.075964677e-18
-7.229246074e-17
2.236963939e-17
4.113238191e-17
1.254782049e-16
1.264025525e-16
9.8564083e-17
-9.382253359e-17
-4.181587879e-17
5.766386699e-18
-1.252053501e-19
1.472126842e-16
-1.188629442e-17
-2.068113452e-16
1.271626896e-16
1.667508533e-18
-2.589487465e-17
-1.48487314e-16
-2.738807781e-17
-6.478062777e-17
-2.04298701e-16
-4.481742187e-17
-3.881108948e-17
-4.611116508e-17
1.697409521e-16
4.708471727e-17
3.119313538e-17
1.509308003e-16
1.279950348e-16
2.567620499e-17
2.615910664e-17
-1.832654877e-16
2.306707368e-16
-5.857647986e-18
2.389315893e-15
2.464829164e-15
-5.672071464e-17
-2.471116145e-16
-1.843628407e-16
-6.89149825e-17
2.324118475e-16
-7.614948325e-18
1.275286346e-16
2.356369726e-16
-1.657209364e-16
-6.139609288e-18
2.704659152e-16
-4.913784259e-16
-1.379121487e-16
-1.133094305e-17
1.43004002e-16
-3.93770572e-16
1.494830837e-16
3.08798142e-16
-8.44270512e-16
4.998465331e-15
7.524952377e-15
2.902827969e-17
-5.022929408e-15
-2.342779312e-15
-9.027235649e-15
-1.107737838e-16
)


101
(
3.261302971e-20
-1.208543819e-18
4.458091616e-19
-3.199604728e-21
1.352013884e-18
-2.594975074e-21
-8.308415281e-18
-1.902738769e-19
1.578791089e-17
1.23243867e-17
1.312916084e-17
-1.860935846e-17
1.22158323e-17
-2.303360114e-17
-1.639892905e-17
3.857963918e-18
1.824727384e-17
2.840763811e-17
-1.947658556e-17
-7.598846042e-18
-4.240795583e-18
9.943673374e-18
4.205547832e-17
-2.221877535e-17
2.562812789e-17
-1.021917424e-17
-4.500035157e-17
-6.397948482e-17
-4.455098029e-17
1.592682106e-18
-9.75736351e-17
6.768211527e-17
-1.707498809e-16
5.986548333e-17
5.861654713e-17
9.016686356e-17
3.226221292e-17
2.863045563e-16
-2.755741665e-17
6.229242439e-17
1.124071851e-16
3.6657655e-17
-1.121162784e-16
8.303419524e-18
1.476845004e-18
2.530631656e-17
2.572126069e-18
-7.074671164e-17
4.376291291e-17
-1.455953158e-16
-2.87884971e-16
1.641894227e-16
-3.853232585e-18
-1.511203798e-16
2.188744692e-16
1.954402493e-18
6.55722115e-19
1.937155022e-16
-4.479682515e-17
3.384874831e-16
-1.735189747e-16
2.460391659e-16
-8.5072808e-17
-3.666997061e-16
-4.704846515e-16
1.459884404e-16
9.813319853e-17
4.386295116e-16
-4.408114027e-17
-2.208919068e-15
-2.448406941e-15
4.54954406e-17
-1.058515683e-16
-1.142040398e-16
2.468902178e-15
-8.312553945e-17
2.078303239e-17
-1.516884495e-16
-1.345777716e-19
-1.978641694e-16
-2.609459759e-16
-2.903216373e-16
2.909823043e-17
1.338376894e-16
-2.758468789e-17
5.828578482e-17
-1.239667182e-17
1.071539539e-16
-1.681036766e-16
-1.894867416e-17
1.067209387e-16
2.896821267e-17
-1.989584485e-16
-1.835521441e-16
6.470543105e-15
9.045022396e-15
-2.159394464e-16
-7.936496972e-15
-2.095081543e-15
-1.168095575e-14
-8.930234669e-17
)


101
(
-4.252504089e-20
-5.046754966e-15
-2.239008553e-19
-6.208735588e-19
7.743808573e-18
5.324461025e-19
6.76072778e-18
1.110454648e-17
8.454848659e-18
2.739118614e-18
1.342711645e-19
1.253986361e-17
-2.249671921e-19
-3.243458832e-18
8.708752429e-19
7.14888927e-18
-1.204171639e-17
2.012434944e-17
8.538608479e-18
-2.197766157e-17
-3.102538362e-17
-3.795662523e-17
7.561965063e-17
-1.366333544e-19
1.0572695e-16
2.028654963e-17
4.645174609e-17
-1.668757673e-17
-5.853625838e-17
-2.20158459e-18
-5.428419233e-17
2.022487454e-17
1.563943471e-18
-2.800483117e-17
3.347623518e-17
-1.00935433e-16
1.819607105e-18
-3.286679871e-17
-3.589219973e-17
1.357694611e-16
-1.065087357e-18
-1.090142542e-16
1.089123328e-16
-4.885536094e-18
4.870500188e-17
-1.154764173e-18
-1.574386995e-16
1.011396342e-16
-9.924976643e-17
6.162343929e-17
-4.691840074e-17
-2.207787523e-16
1.804659535e-16
-3.109906209e-16
-9.363038949e-17
8.351172443e-17
2.021632344e-16
-1.18237881e-16
4.222545077e-17
-4.092395946e-17
2.01677169e-16
-1.133277583e-16
2.255252512e-16
4.137638824e-16
-1.340710763e-17
-3.747303386e-16
3.172920173e-16
5.036583625e-16
1.48350111e-16
-2.649802892e-15
-2.591391848e-15
2.770610599e-16
5.418293483e-17
2.212543093e-16
1.484837584e-16
2.816521306e-16
-2.685670636e-15
-4.51005628e-16
-1.829571558e-18
1.069328918e-16
-2.493333922e-15
8.406707707e-17
-8.885385207e-17
-3.709007199e-17
2.123244434e-16
3.306675187e-16
-1.984585979e-16
-1.122315271e-15
1.991912093e-16
-1.052846838e-15
-1.467985118e-15
-1.96849535e-16
-3.778355841e-16
-3.682196135e-16
7.7316952e-15
1.077329099e-14
-1.866106673e-15
-1.637490572e-14
-1.018895353e-14
-1.817856043e-14
-1.096418638e-16
)


101
(
5.303647671e-24
-5.049446143e-15
4.473233513e-19
-3.125112692e-18
-1.513032239e-20
5.170346433e-18
8.564554579e-18
-9.30937126e-18
8.275465411e-18
3.143205788e-18
1.676862318e-17
-4.590561748e-19
2.572380348e-19
5.173098375e-18
-9.953832927e-18
-2.146602057e-20
2.020415408e-17
1.283002353e-17
9.866360451e-18
5.767801863e-18
-6.272995617e-17
1.112718177e-17
3.098102041e-18
-5.165716391e-19
-7.989529084e-17
8.630659751e-17
2.241129251e-17
-1.82638655e-17
9.246066133e-17
-3.700021701e-17
8.356851021e-17
-2.551675741e-17
-5.154317659e-17
-1.987312933e-17
2.621557009e-17
-3.137313528e-17
-2.696449428e-17
-9.143662248e-17
-6.726922177e-17
3.691632486e-17
-1.451711295e-16
7.002210531e-17
2.9725892e-17
1.177679863e-17
-1.210624834e-16
-1.262105434e-16
1.716001922e-16
8.851031807e-17
1.310426796e-16
-8.530593578e-17
1.722941376e-16
-3.782292748e-17
-1.473920657e-16
2.091750192e-16
7.39867594e-17
-1.08114854e-16
-2.861456133e-17
1.546334373e-17
5.438703415e-17
1.37022414e-16
-1.253571144e-16
-9.400611673e-17
3.421216063e-16
1.225477083e-16
-1.21063445e-16
1.372555837e-17
1.939932624e-17
-5.385890267e-15
-5.567942e-15
5.211392772e-19
-1.270620908e-16
-1.637606631e-16
-7.79243287e-17
-9.350203194e-18
-2.785934554e-17
-2.47652363e-15
-2.805384918e-15
5.787365561e-17
-1.906959272e-18
2.854029346e-16
-2.694897466e-15
2.850911037e-16
-1.580306467e-16
-2.401016916e-15
-3.030643149e-15
4.265815877e-17
3.479201094e-16
-1.254729657e-15
-1.33958869e-15
-1.36914489e-15
-1.711867494e-15
3.172040679e-17
-1.67358955e-15
-1.377759562e-15
9.412050776e-15
1.135743797e-14
-5.971956199e-15
-1.849753863e-14
-6.873133596e-15
-1.740245082e-14
1.645579381e-18
)


101
(
-2.972359043e-20
3.289524224e-19
-5.120006383e-15
-1.663521755e-18
-1.006245896e-17
8.02897245e-18
-9.833421731e-18
-2.273204291e-18
-2.753041663e-18
-1.873329492e-20
1.712328036e-17
-4.892263493e-18
2.186746375e-17
4.074851779e-19
-3.968911159e-19
7.873982504e-18
1.591137226e-17
3.360647439e-18
1.742385442e-17
-1.928589434e-17
3.318801472e-17
-1.785780091e-17
-2.38333865e-17
9.968968005e-18
6.85613308e-17
-4.099594731e-17
9.655196204e-17
-9.994412425e-17
-1.909826558e-17
-1.170971201e-16
1.976189968e-17
2.813390824e-17
4.944450018e-17
3.155509372e-17
-3.243483717e-17
-6.96393713e-20
-3.327679762e-17
1.133954332e-18
-3.408999335e-17
-7.90850893e-17
2.120503241e-16
2.902250023e-17
3.768649054e-17
-1.093034814e-16
-4.02798735e-17
1.237021669e-16
1.197619531e-16
-2.49092251e-16
1.334099311e-16
-3.541197457e-17
-6.638941468e-18
2.247247205e-16
-1.327982987e-16
3.99066847e-19
-3.545900792e-18
2.943141817e-18
-2.581479507e-16
1.747980522e-16
-9.700291446e-18
-2.257813491e-16
-6.582218e-19
1.264577236e-16
-1.969235437e-17
2.389299213e-19
-2.111891543e-16
8.937644011e-18
2.404135229e-16
3.374892257e-18
-4.825638999e-15
-1.645559381e-16
1.678495312e-16
-2.804610496e-15
-1.332388618e-17
-8.963279587e-17
1.278717931e-16
-2.671163396e-15
-2.710348837e-15
-2.811473762e-15
1.28279356e-16
1.823778447e-16
1.752221026e-16
-2.527666221e-15
1.788096428e-16
-2.768590369e-15
-2.56051872e-15
-9.983214479e-17
-1.865714105e-16
-1.093177774e-15
-1.126909322e-15
2.818592809e-17
-1.406334753e-15
-1.156598911e-15
-1.386209594e-15
-1.508731957e-15
1.134368454e-14
1.442137996e-14
-2.279820492e-15
-1.290221526e-14
1.040533429e-15
-2.047109424e-15
-3.100000614e-16
)


101
(
-9.40619426e-24
9.854010329e-19
-5.124493391e-15
3.48381642e-18
8.689255511e-19
7.399725583e-20
-8.300098771e-18
-1.61827594e-18
1.016973432e-19
-5.991421387e-18
-3.8432212e-18
-1.569448523e-17
1.719791978e-17
1.871485164e-17
-7.97272419e-19
-2.230355284e-17
-3.407662896e-18
-1.137698539e-17
2.178309329e-17
1.387391002e-17
-8.787725083e-18
1.75229377e-17
4.715270014e-17
7.589310333e-17
-2.027349171e-17
4.113104633e-17
-3.458895426e-17
3.817177795e-18
1.906151373e-18
-4.872388017e-17
-7.638454241e-17
1.830147228e-18
9.450591671e-19
4.778708338e-17
-6.374624773e-17
-9.21313238e-17
3.337428731e-17
3.3136547e-17
-1.009576368e-16
6.288433781e-17
1.174633464e-16
7.421081259e-17
7.599821171e-17
-2.808917794e-17
-7.123570471e-17
9.132184101e-17
-2.465185611e-16
-3.424873023e-17
1.703196918e-16
6.879687849e-17
-4.054280498e-17
3.102395802e-16
-2.809159154e-18
-2.277848182e-19
-1.371110565e-16
-8.88012794e-18
-9.803827732e-17
8.13026476e-18
-1.931337601e-16
-5.256316437e-15
-1.96197161e-17
1.109806055e-16
1.45448766e-17
2.190511553e-16
-2.321488866e-16
-1.235916888e-16
4.978500573e-18
5.328222154e-15
-9.580560953e-17
-2.682086019e-15
-1.018038039e-16
-2.794670595e-15
2.708297836e-15
2.307411968e-15
-1.228936358e-16
2.372181677e-17
-2.638469805e-15
-2.560145158e-15
2.552230572e-16
-1.671580569e-16
-2.810532366e-15
-2.924990692e-15
4.018046223e-18
2.093803963e-17
-2.840153249e-15
-2.565363518e-15
1.04931097e-16
-1.339910307e-15
-1.639055233e-15
7.390584855e-17
-2.700429149e-15
-1.642125079e-15
-3.197237236e-16
-2.24917577e-16
1.30114778e-14
1.714681661e-14
-9.746568469e-16
-8.214872078e-15
3.475793599e-16
1.216928279e-14
-2.2425423e-16
)


101
(
-5.242517558e-20
-5.060756494e-15
1.656986611e-21
4.761937232e-18
4.586354087e-21
-1.171623753e-18
4.124736744e-20
-4.018522038e-20
2.378677747e-18
-2.484794817e-18
-3.061677996e-18
8.976091161e-22
-4.471474697e-19
2.880688478e-18
2.653626e-18
-1.459099812e-17
-1.253818874e-17
-2.840704249e-17
1.734912166e-18
-2.980763997e-17
-1.215568605e-17
8.280876334e-17
3.869142679e-17
-2.198244328e-18
-2.582618274e-17
-2.560982233e-18
1.19278948e-17
6.348847185e-17
6.247784781e-17
-4.43094596e-17
-9.969752804e-18
-2.914883501e-17
7.653890111e-18
7.579175258e-17
8.716439231e-17
9.028809285e-17
2.678341492e-17
-9.657484811e-17
3.587751999e-17
-9.933384386e-17
-6.400585771e-17
-2.992062914e-17
7.761804833e-17
-2.803969364e-17
1.407370569e-16
-4.553333867e-17
2.825466964e-16
-1.516091801e-16
-2.304936125e-18
-4.013850244e-17
1.327007574e-16
-2.416853073e-18
-3.561751735e-16
-6.016714108e-18
-9.325505006e-17
-3.042687494e-16
9.745331506e-17
2.137794865e-16
1.906594755e-16
-5.17563062e-15
-5.10463321e-15
9.087910902e-18
-7.375527022e-17
-1.492226404e-16
-1.333274756e-16
1.072133256e-16
-9.575237552e-17
2.486458433e-20
9.024625453e-18
-2.599956857e-15
-2.622978766e-15
7.82185288e-17
2.955985195e-15
2.693292956e-15
2.552437846e-15
2.694775495e-15
1.010395681e-16
-2.967636737e-15
1.573874643e-16
-2.493966736e-17
-2.948159685e-15
2.746461411e-16
-2.922264585e-15
-2.259580923e-16
-2.945670567e-15
-5.667356307e-15
-2.959772304e-15
1.773945342e-15
-2.942680954e-15
-1.332370814e-15
-1.37882232e-15
-1.399451519e-15
2.896775154e-16
4.693783746e-17
1.639987176e-14
2.039799443e-14
1.574635653e-15
2.482586156e-15
1.484677339e-15
1.933356288e-14
-2.30366354e-16
)


101
(
1.278328711e-20
-5.066734759e-15
6.710892064e-19
-8.324291664e-21
-5.295168661e-15
1.154409618e-18
6.01979513e-19
-1.952612977e-18
9.068989575e-20
-2.743676873e-18
-6.717463163e-18
-9.971309538e-19
-1.627787698e-18
1.613634507e-17
1.4749006e-17
-2.194637365e-17
-7.673458134e-19
-5.221557938e-18
1.686293827e-19
-6.225390125e-18
2.246215623e-17
1.071998205e-17
1.406314369e-17
-4.830135309e-17
3.811077696e-17
-3.975540839e-17
1.204922261e-16
-6.959147633e-19
-5.441115135e-17
-3.369970838e-19
-8.118255971e-18
2.1869421e-17
-2.50497816e-18
-7.515251133e-17
-1.180188038e-16
7.094613434e-17
-2.697362463e-18
3.411189672e-17
-4.335741417e-15
-4.345738468e-15
-9.816218711e-17
-3.620331279e-17
-4.710983785e-17
1.513491951e-16
-2.629484104e-16
-3.161952061e-17
-2.731286238e-16
4.738092467e-17
1.269490057e-17
-9.454229606e-17
1.761079284e-16