/*--------------------------------*- C++ -*----------------------------------*\
| =========                 |                                                 |
| \\      /  F ield         | OpenFOAM: The Open Source CFD Toolbox           |
|  \\    /   O peration     | Version:  2.3.1                                 |
|   \\  /    A nd           | Web:      www.OpenFOAM.org                      |
|    \\/     M anipulation  |                                                 |
\*---------------------------------------------------------------------------*/
FoamFile
{
    version     2.0;
    format      ascii;
    class       dictionary;
    location    "constant";
    object      DPSI28;
}
// * * * * * * * * * * * * * * * * * * * * * * * * * * * * * * * * * * * * * //

DPSI28_table
101
(

101
(
-4.777326506e-10
-1.589006386e-08
-3.275578143e-08
-5.014327705e-08
-6.752325924e-08
-8.461251753e-08
-1.012536704e-07
-1.174206381e-07
-1.330765676e-07
-1.4822366e-07
-1.628837715e-07
-1.770797339e-07
-1.908483853e-07
-2.041903113e-07
-2.171446085e-07
-2.297382606e-07
-2.419835854e-07
-2.538870027e-07
-2.655067267e-07
-2.768015179e-07
-2.878382273e-07
-2.986281909e-07
-3.091536116e-07
-3.194475879e-07
-3.295289363e-07
-3.394085324e-07
-3.49097627e-07
-3.586087458e-07
-3.6794626e-07
-3.771224795e-07
-3.861446572e-07
-3.950248239e-07
-4.037861204e-07
-4.123795421e-07
-4.208552651e-07
-4.292102041e-07
-4.374510748e-07
-4.455894439e-07
-4.536197399e-07
-4.615349664e-07
-4.693419495e-07
-4.770668306e-07
-4.846921257e-07
-4.922268891e-07
-4.99683235e-07
-5.070511777e-07
-5.143430864e-07
-5.215532815e-07
-5.286900196e-07
-5.357490571e-07
-5.427396767e-07
-5.496618881e-07
-5.565178974e-07
-5.633102959e-07
-5.700423584e-07
-5.767162394e-07
-5.833235149e-07
-5.898820079e-07
-5.963792727e-07
-6.028251238e-07
-6.092152873e-07
-6.155534413e-07
-6.218401522e-07
-6.280718065e-07
-6.342564744e-07
-6.403862422e-07
-6.46464687e-07
-6.524894818e-07
-6.584575355e-07
-6.643675069e-07
-6.702251639e-07
-6.760190982e-07
-6.817419704e-07
-6.874007264e-07
-6.92992979e-07
-6.98515904e-07
-7.039417587e-07
-7.092917281e-07
-7.145401936e-07
-7.196905153e-07
-7.247281708e-07
-7.296388785e-07
-7.344237595e-07
-7.390634605e-07
-7.435425414e-07
-7.478785682e-07
-7.520194099e-07
-7.559847713e-07
-7.597285462e-07
-7.63317601e-07
-7.66621873e-07
-7.697941274e-07
-7.727485026e-07
-7.754999276e-07
-7.780793974e-07
-7.804907933e-07
-7.827390835e-07
-8.315222691e-07
-8.777597731e-07
-9.212463664e-07
-9.622301638e-07
)


101
(
-4.777446253e-10
-1.590172659e-08
-3.280276011e-08
-5.025208264e-08
-6.772264723e-08
-8.49326707e-08
-1.017249832e-07
-1.180755978e-07
-1.339463817e-07
-1.493400769e-07
-1.642780964e-07
-1.787835203e-07
-1.928914568e-07
-2.066064477e-07
-2.19962513e-07
-2.329875731e-07
-2.456957444e-07
-2.580948533e-07
-2.702280654e-07
-2.820832849e-07
-2.936925393e-07
-3.05079519e-07
-3.162440624e-07
-3.271951811e-07
-3.379533561e-07
-3.485331649e-07
-3.589446654e-07
-3.691978624e-07
-3.79301937e-07
-3.892617022e-07
-3.990865193e-07
-4.087827581e-07
-4.183582298e-07
-4.278420063e-07
-4.371854535e-07
-4.464238808e-07
-4.555594096e-07
-4.645945509e-07
-4.735454044e-07
-4.824145679e-07
-4.911844667e-07
-4.998498029e-07
-5.084490433e-07
-5.169648011e-07
-5.253936775e-07
-5.33759076e-07
-5.420449932e-07
-5.502697759e-07
-5.584195132e-07
-5.665070989e-07
-5.745225632e-07
-5.824777701e-07
-5.903716093e-07
-5.982039416e-07
-6.059759562e-07
-6.136913814e-07
-6.213630725e-07
-6.289607155e-07
-6.365174881e-07
-6.440128795e-07
-6.514603308e-07
-6.588511383e-07
-6.661877683e-07
-6.734701947e-07
-6.80702658e-07
-6.878784086e-07
-6.949965717e-07
-7.020554795e-07
-7.090567711e-07
-7.159882759e-07
-7.228624655e-07
-7.296647799e-07
-7.363920576e-07
-7.430389159e-07
-7.496045299e-07
-7.560817631e-07
-7.624533008e-07
-7.687325643e-07
-7.748865873e-07
-7.80920548e-07
-7.86817354e-07
-7.925676287e-07
-7.981606585e-07
-8.035801746e-07
-8.088014045e-07
-8.138459975e-07
-8.186542481e-07
-8.232494667e-07
-8.27577447e-07
-8.31717333e-07
-8.355103945e-07
-8.391394853e-07
-8.42505836e-07
-8.456242946e-07
-8.485334974e-07
-8.512983472e-07
-8.539827984e-07
-9.002534288e-07
-9.439516358e-07
-9.848896881e-07
-1.023386758e-06
)


101
(
-4.77756601e-10
-1.591339002e-08
-3.284973269e-08
-5.036079617e-08
-6.7921694e-08
-8.525199071e-08
-1.021946701e-07
-1.187276606e-07
-1.34811646e-07
-1.504497073e-07
-1.656628288e-07
-1.804741941e-07
-1.949173771e-07
-2.089999742e-07
-2.227522132e-07
-2.362020814e-07
-2.493651259e-07
-2.622504766e-07
-2.748899795e-07
-2.872907968e-07
-2.994642174e-07
-3.114366776e-07
-3.232221692e-07
-3.34816828e-07
-3.462375637e-07
-3.575010206e-07
-3.686172296e-07
-3.795943923e-07
-3.904440034e-07
-4.011672611e-07
-4.117729121e-07
-4.22264016e-07
-4.326379898e-07
-4.429637317e-07
-4.531585159e-07
-4.632554258e-07
-4.73259455e-07
-4.831681242e-07
-4.930058558e-07
-5.027856696e-07
-5.124822379e-07
-5.220692083e-07
-5.31600258e-07
-5.410595806e-07
-5.504325345e-07
-5.597512533e-07
-5.689957161e-07
-5.781883893e-07
-5.873113629e-07
-5.963794275e-07
-6.053785016e-07
-6.143204598e-07
-6.232049555e-07
-6.320303796e-07
-6.407960413e-07
-6.49505138e-07
-6.581783073e-07
-6.667746494e-07
-6.753306926e-07
-6.838249868e-07
-6.922710556e-07
-7.00659261e-07
-7.089900803e-07
-7.17263954e-07
-7.25485469e-07
-7.336464035e-07
-7.417448334e-07
-7.497776255e-07
-7.577474351e-07
-7.656397612e-07
-7.734669456e-07
-7.812127776e-07
-7.88874547e-07
-7.964456195e-07
-8.039225744e-07
-8.112957791e-07
-8.185458531e-07
-8.256891767e-07
-8.326861805e-07
-8.395418875e-07
-8.462366703e-07
-8.527603898e-07
-8.591012738e-07
-8.652394988e-07
-8.711467674e-07
-8.768456967e-07
-8.822671968e-07
-8.874385567e-07
-8.922989344e-07
-8.969387355e-07
-9.011772683e-07
-9.052208276e-07
-9.089561807e-07
-9.124033594e-07
-9.15606155e-07
-9.186779868e-07
-9.217659509e-07
-9.655131384e-07
-1.006719687e-06
-1.045205608e-06
-1.081348069e-06
)


101
(
-4.777685766e-10
-1.592505421e-08
-3.28966996e-08
-5.046941922e-08
-6.81204033e-08
-8.557048502e-08
-1.026627442e-07
-1.193768535e-07
-1.356723955e-07
-1.515526099e-07
-1.670380523e-07
-1.821518805e-07
-1.969262946e-07
-2.113711791e-07
-2.255139669e-07
-2.393821394e-07
-2.529922561e-07
-2.663545993e-07
-2.794926708e-07
-2.924257425e-07
-3.051535395e-07
-3.177004396e-07
-3.300903613e-07
-3.423138194e-07
-3.543827096e-07
-3.663137626e-07
-3.781172563e-07
-3.898002657e-07
-4.013751586e-07
-4.128415012e-07
-4.242066074e-07
-4.35471154e-07
-4.466256531e-07
-4.577569379e-07
-4.687765062e-07
-4.797074122e-07
-4.905541662e-07
-5.013118289e-07
-5.120068806e-07
-5.22659477e-07
-5.332446915e-07
-5.437254433e-07
-5.54154001e-07
-5.645193317e-07
-5.748031025e-07
-5.850369101e-07
-5.95201811e-07
-6.053202984e-07
-6.153745876e-07
-6.253784865e-07
-6.353172988e-07
-6.452011222e-07
-6.550297173e-07
-6.648010767e-07
-6.745133292e-07
-6.841685186e-07
-6.937887904e-07
-7.033337962e-07
-7.128362213e-07
-7.222761125e-07
-7.316656164e-07
-7.409952864e-07
-7.502643474e-07
-7.594722485e-07
-7.68624446e-07
-7.777111885e-07
-7.867302517e-07
-7.956770865e-07
-8.04553696e-07
-8.133451553e-07
-8.220634263e-07
-8.306901182e-07
-8.392215218e-07
-8.476519449e-07
-8.559764382e-07
-8.641837896e-07
-8.72249862e-07
-8.801941151e-07
-8.879722137e-07
-8.955883981e-07
-9.030204997e-07
-9.102563515e-07
-9.172847408e-07
-9.240823941e-07
-9.306184797e-07
-9.369173617e-07
-9.429008851e-07
-9.485977021e-07
-9.539409329e-07
-9.590324549e-07
-9.636718837e-07
-9.680885207e-07
-9.721546533e-07
-9.758932298e-07
-9.793564301e-07
-9.827042704e-07
-9.86149555e-07
-1.027435521e-06
-1.066255288e-06
-1.102429324e-06
-1.136380119e-06
)


101
(
-4.77780596e-10
-1.593672071e-08
-3.294366433e-08
-5.057795812e-08
-6.831878531e-08
-8.588816914e-08
-1.031292281e-07
-1.200232146e-07
-1.365286781e-07
-1.526488572e-07
-1.684038654e-07
-1.838167201e-07
-1.989183769e-07
-2.137203581e-07
-2.282480654e-07
-2.42528118e-07
-2.565776689e-07
-2.704079567e-07
-2.840364927e-07
-2.974895569e-07
-3.107611426e-07
-3.238715584e-07
-3.368507201e-07
-3.496878217e-07
-3.623901587e-07
-3.749730622e-07
-3.874467542e-07
-3.998176145e-07
-4.120980936e-07
-4.242871038e-07
-4.363905033e-07
-4.4840707e-07
-4.603227456e-07
-4.72229918e-07
-4.840452146e-07
-4.957839276e-07
-5.074473204e-07
-5.19028635e-07
-5.305533531e-07
-5.420452182e-07
-5.534824602e-07
-5.648246813e-07
-5.761179167e-07
-5.873535425e-07
-5.985131658e-07
-6.096256199e-07
-6.206733173e-07
-6.316777164e-07
-6.426221099e-07
-6.535190085e-07
-6.643540816e-07
-6.751356977e-07
-6.858631087e-07
-6.965340963e-07
-7.071462211e-07
-7.1770048e-07
-7.28217826e-07
-7.386610588e-07
-7.490588801e-07
-7.593925476e-07
-7.696725816e-07
-7.798897908e-07
-7.900426203e-07
-8.001292494e-07
-8.101558898e-07
-8.201113994e-07
-8.299935552e-07
-8.397966241e-07
-8.495214292e-07
-8.591528279e-07
-8.687027474e-07
-8.781506573e-07
-8.874913209e-07
-8.967201554e-07
-9.058312734e-07
-9.148124726e-07
-9.236348055e-07
-9.323205037e-07
-9.408211304e-07
-9.491403028e-07
-9.572528585e-07
-9.651442391e-07
-9.728041254e-07
-9.802062237e-07
-9.873176746e-07
-9.941648202e-07
-1.000661688e-06
-1.006838481e-06
-1.012620228e-06
-1.018119731e-06
-1.023119628e-06
-1.027870999e-06
-1.032233808e-06
-1.036231094e-06
-1.039924407e-06
-1.043522971e-06
-1.047282081e-06
-1.086219805e-06
-1.122794773e-06
-1.156822713e-06
-1.188760281e-06
)


101
(
-4.777925276e-10
-1.594838513e-08
-3.299061812e-08
-5.068640038e-08
-6.85168248e-08
-8.62050267e-08
-1.035941062e-07
-1.20666737e-07
-1.373804914e-07
-1.537384643e-07
-1.697603037e-07
-1.854687832e-07
-2.008937182e-07
-2.160477162e-07
-2.309547238e-07
-2.456402962e-07
-2.601217881e-07
-2.744111668e-07
-2.885217922e-07
-3.024833702e-07
-3.16287752e-07
-3.299506948e-07
-3.435049165e-07
-3.569405275e-07
-3.702613476e-07
-3.834804952e-07
-3.966076162e-07
-4.096485443e-07
-4.226153688e-07
-4.355068046e-07
-4.483275053e-07
-4.610747379e-07
-4.737314312e-07
-4.863886919e-07
-4.989712343e-07
-5.114902377e-07
-5.239436243e-07
-5.363226061e-07
-5.486501457e-07
-5.609506966e-07
-5.732058171e-07
-5.853760059e-07
-5.975009599e-07
-6.095724834e-07
-6.215730303e-07
-6.335284834e-07
-6.454222926e-07
-6.572743555e-07
-6.690691103e-07
-6.808178529e-07
-6.925070475e-07
-7.041436606e-07
-7.157262185e-07
-7.272521583e-07
-7.387187529e-07
-7.501262181e-07
-7.614933947e-07
-7.72786446e-07
-7.840306484e-07
-7.952084636e-07
-8.063287098e-07
-8.173823468e-07
-8.283672058e-07
-8.392802022e-07
-8.501281286e-07
-8.608985694e-07
-8.715895061e-07
-8.821942977e-07
-8.92712482e-07
-9.031285597e-07
-9.134545542e-07
-9.236680503e-07
-9.337622335e-07
-9.43733522e-07
-9.535753132e-07
-9.632746124e-07
-9.72797885e-07
-9.821701376e-07
-9.913394221e-07
-1.000308929e-06
-1.009050579e-06
-1.017546727e-06
-1.025787959e-06
-1.033745355e-06
-1.041384393e-06
-1.048733564e-06
-1.05569991e-06
-1.062315442e-06
-1.068498012e-06
-1.074368127e-06
-1.079693558e-06
-1.084746424e-06
-1.089375568e-06
-1.093605208e-06
-1.097503065e-06
-1.10132758e-06
-1.10536749e-06
-1.142104591e-06
-1.176600168e-06
-1.208657231e-06
-1.238761785e-06
)


101
(
-4.778045029e-10
-1.596005199e-08
-3.303757061e-08
-5.079476173e-08
-6.871454462e-08
-8.65210891e-08
-1.040574204e-07
-1.213074805e-07
-1.382279092e-07
-1.548215304e-07
-1.711074956e-07
-1.871082407e-07
-2.028525232e-07
-2.183535671e-07
-2.336342894e-07
-2.487190862e-07
-2.636251676e-07
-2.783649804e-07
-2.929491512e-07
-3.074083408e-07
-3.217343819e-07
-3.359387554e-07
-3.500545981e-07
-3.640738583e-07
-3.779980802e-07
-3.91837928e-07
-4.056019826e-07
-4.192954705e-07
-4.329298203e-07
-4.465037324e-07
-4.600209413e-07
-4.734775964e-07
-4.868547346e-07
-5.002384842e-07
-5.135614157e-07
-5.268331211e-07
-5.400492861e-07
-5.531993355e-07
-5.66303019e-07
-5.793835386e-07
-5.924248045e-07
-6.05390121e-07
-6.183139975e-07
-6.311878926e-07
-6.439951083e-07
-6.567587162e-07
-6.694630058e-07
-6.821259806e-07
-6.947330212e-07
-7.072942438e-07
-7.197971434e-07
-7.322476212e-07
-7.446435013e-07
-7.569817719e-07
-7.692594491e-07
-7.814761643e-07
-7.936483687e-07
-8.057454424e-07
-8.177895588e-07
-8.297645073e-07
-8.416774972e-07
-8.535195996e-07
-8.652880795e-07
-8.769786096e-07
-8.885984194e-07
-9.001338169e-07
-9.11583139e-07
-9.229391103e-07
-9.34200117e-07
-9.453502539e-07
-9.564015119e-07
-9.673297868e-07
-9.781267849e-07
-9.887899226e-07
-9.993119982e-07
-1.009679361e-06
-1.019854052e-06
-1.029863689e-06
-1.039653294e-06
-1.049225979e-06
-1.058551126e-06
-1.067607885e-06
-1.076387052e-06
-1.084857332e-06
-1.092982762e-06
-1.100794059e-06
-1.108192119e-06
-1.115210968e-06
-1.121762146e-06
-1.127972358e-06
-1.13359498e-06
-1.138922053e-06
-1.143792752e-06
-1.148233409e-06
-1.152315656e-06
-1.156331403e-06
-1.160638496e-06
-1.195339978e-06
-1.227930739e-06
-1.258196819e-06
-1.286648182e-06
)


101
(
-4.778164781e-10
-1.597171989e-08
-3.308451919e-08
-5.090303921e-08
-6.891194247e-08
-8.683635623e-08
-1.045191745e-07
-1.219454605e-07
-1.390709554e-07
-1.558980988e-07
-1.724455082e-07
-1.887351956e-07
-2.047949252e-07
-2.206381402e-07
-2.362870322e-07
-2.517648157e-07
-2.670882619e-07
-2.822700387e-07
-2.973191169e-07
-3.122654376e-07
-3.271020057e-07
-3.41836616e-07
-3.56501169e-07
-3.710896048e-07
-3.856021719e-07
-4.000472171e-07
-4.144319219e-07
-4.287607465e-07
-4.430442141e-07
-4.572810214e-07
-4.71474209e-07
-4.856191725e-07
-4.996959325e-07
-5.137838523e-07
-5.278220527e-07
-5.418196432e-07
-5.557713371e-07
-5.696654737e-07
-5.835185386e-07
-5.973513398e-07
-6.11148965e-07
-6.248779789e-07
-6.385687438e-07
-6.522123739e-07
-6.657929018e-07
-6.793307589e-07
-6.928110284e-07
-7.062496468e-07
-7.196326436e-07
-7.329688687e-07
-7.462469244e-07
-7.5947199e-07
-7.726413673e-07
-7.857515484e-07
-7.987992739e-07
-8.117836768e-07
-8.247187843e-07
-8.375768735e-07
-8.503773063e-07
-8.631052963e-07
-8.757666324e-07
-8.883525396e-07
-9.008597725e-07
-9.132827967e-07
-9.25629146e-07
-9.378837807e-07
-9.500453963e-07
-9.621063276e-07
-9.740640884e-07
-9.859024262e-07
-9.976332029e-07
-1.009230705e-06
-1.020685223e-06
-1.031995142e-06
-1.043152815e-06
-1.054144107e-06
-1.064926842e-06
-1.075530935e-06
-1.085898671e-06
-1.096033414e-06
-1.105902382e-06
-1.115481847e-06
-1.124762346e-06
-1.133710092e-06
-1.142287721e-06
-1.150528126e-06
-1.158326445e-06
-1.165719314e-06
-1.172612411e-06
-1.17913885e-06
-1.185036401e-06
-1.190616778e-06
-1.19571004e-06
-1.200345558e-06
-1.204597794e-06
-1.208798272e-06
-1.21334641e-06
-1.246182211e-06
-1.277041303e-06
-1.30569148e-06
-1.332661067e-06
)


101
(
-4.778285421e-10
-1.598339186e-08
-3.313147048e-08
-5.101124394e-08
-6.910903505e-08
-8.715085177e-08
-1.049794009e-07
-1.225807254e-07
-1.399096922e-07
-1.569682546e-07
-1.737744541e-07
-1.903498003e-07
-2.067211121e-07
-2.229017157e-07
-2.389132874e-07
-2.547778804e-07
-2.705115875e-07
-2.861270418e-07
-3.016323584e-07
-3.170556578e-07
-3.323917169e-07
-3.476453087e-07
-3.628460442e-07
-3.779896018e-07
-3.930756079e-07
-4.081104201e-07
-4.230996731e-07
-4.380468884e-07
-4.529614651e-07
-4.67842008e-07
-4.82690991e-07
-4.975033702e-07
-5.12258839e-07
-5.270293037e-07
-5.41759135e-07
-5.564570289e-07
-5.711175664e-07
-5.857288066e-07
-6.003043849e-07
-6.148623229e-07
-6.293879406e-07
-6.438507753e-07
-6.582776312e-07
-6.726594816e-07
-6.869810627e-07
-7.012603327e-07
-7.15483241e-07
-7.296636523e-07
-7.437880342e-07
-7.578638138e-07
-7.718805547e-07
-7.858429067e-07
-7.997479684e-07
-8.135918819e-07
-8.273710456e-07
-8.410841266e-07
-8.547428028e-07
-8.683219773e-07
-8.818382693e-07
-8.952783575e-07
-9.086468394e-07
-9.219352405e-07
-9.351399139e-07
-9.482542177e-07
-9.612858942e-07
-9.74218457e-07
-9.870508027e-07
-9.997750124e-07
-1.012388019e-06
-1.024873496e-06
-1.037243151e-06
-1.049469626e-06
-1.061541788e-06
-1.073458962e-06
-1.085213193e-06
-1.096790026e-06
-1.10814342e-06
-1.119305273e-06
-1.130215242e-06
-1.140877102e-06
-1.151256324e-06
-1.161326571e-06
-1.171078045e-06
-1.180474294e-06
-1.189476557e-06
-1.198119794e-06
-1.206293439e-06
-1.214037262e-06
-1.221251346e-06
-1.228075649e-06
-1.234232079e-06
-1.240050644e-06
-1.24535323e-06
-1.25017225e-06
-1.254585459e-06
-1.258977422e-06
-1.263740483e-06
-1.294881013e-06
-1.324177702e-06
-1.351377749e-06
-1.377025381e-06
)


101
(
-4.778405161e-10
-1.599506203e-08
-3.317841266e-08
-5.111935877e-08
-6.930580086e-08
-8.746455139e-08
-1.054380744e-07
-1.232132562e-07
-1.407441051e-07
-1.58031997e-07
-1.750943518e-07
-1.919521029e-07
-2.086311603e-07
-2.251444478e-07
-2.41513263e-07
-2.577585426e-07
-2.738955116e-07
-2.899365252e-07
-3.058894226e-07
-3.217797958e-07
-3.376044522e-07
-3.533657545e-07
-3.690904116e-07
-3.847754348e-07
-4.004202117e-07
-4.160294793e-07
-4.316073391e-07
-4.471562534e-07
-4.626843077e-07
-4.781898686e-07
-4.936748722e-07
-5.091340592e-07
-5.245473549e-07
-5.399791481e-07
-5.553780718e-07
-5.70752011e-07
-5.860956882e-07
-6.013975061e-07
-6.166688776e-07
-6.319251269e-07
-6.471513173e-07
-6.623194815e-07
-6.77452991e-07
-6.925428589e-07
-7.075745415e-07
-7.225636557e-07
-7.374971227e-07
-7.523868674e-07
-7.672197038e-07
-7.820015419e-07
-7.967227138e-07
-8.113872972e-07
-8.259923487e-07
-8.405339636e-07
-8.550083453e-07
-8.694136837e-07
-8.837593941e-07
-8.980228004e-07
-9.122177681e-07
-9.263323645e-07
-9.403701854e-07
-9.54323167e-07
-9.681874487e-07
-9.819554973e-07
-9.956352902e-07
-1.009208844e-06
-1.022674986e-06
-1.036025482e-06
-1.049256831e-06
-1.062352921e-06
-1.075325582e-06
-1.088145851e-06
-1.100801167e-06
-1.113291554e-06
-1.125608783e-06
-1.137738267e-06
-1.149630553e-06
-1.161319364e-06
-1.172741618e-06
-1.183901521e-06
-1.194763267e-06
-1.205298194e-06
-1.215496103e-06
-1.225317735e-06
-1.23472305e-06
-1.243748995e-06
-1.252279249e-06
-1.260356568e-06
-1.267876445e-06
-1.27498519e-06
-1.28138996e-06
-1.287436852e-06
-1.292940694e-06
-1.297936637e-06
-1.302506466e-06
-1.307071483e-06
-1.312053472e-06
-1.341665892e-06
-1.369563317e-06
-1.39547044e-06
-1.419945896e-06
)


101
(
-4.778523133e-10
-1.600672748e-08
-3.322533992e-08
-5.122737568e-08
-6.950223061e-08
-8.777744591e-08
-1.058951877e-07
-1.238430542e-07
-1.415742032e-07
-1.590893503e-07
-1.764052465e-07
-1.935421807e-07
-2.105251784e-07
-2.273665199e-07
-2.440872028e-07
-2.607071041e-07
-2.77240436e-07
-2.93699052e-07
-3.100909233e-07
-3.264386745e-07
-3.427412015e-07
-3.589989683e-07
-3.752354896e-07
-3.914486876e-07
-4.076378626e-07
-4.238064529e-07
-4.399571463e-07
-4.560913032e-07
-4.722155587e-07
-4.883278721e-07
-5.044295885e-07
-5.205153633e-07
-5.365657581e-07
-5.526379271e-07
-5.686841747e-07
-5.847110942e-07
-6.007134223e-07
-6.166801622e-07
-6.326210543e-07
-6.485491494e-07
-6.644491792e-07
-6.802953102e-07
-6.961073818e-07
-7.118764633e-07
-7.275887043e-07
-7.432574859e-07
-7.588708093e-07
-7.744389018e-07
-7.899489119e-07
-8.054051709e-07
-8.207986353e-07
-8.36132745e-07
-8.514045082e-07
-8.666100893e-07
-8.817458089e-07
-8.968094931e-07
-9.118084077e-07
-9.267221447e-07
-9.415618269e-07
-9.563167538e-07
-9.709895718e-07
-9.855727426e-07
-1.000062306e-06
-1.014450111e-06
-1.028744533e-06
-1.04292621e-06
-1.056993639e-06
-1.070938038e-06
-1.084755444e-06
-1.098430173e-06
-1.111974496e-06
-1.12535811e-06
-1.138566977e-06
-1.151601672e-06
-1.164453599e-06
-1.177108136e-06
-1.189512709e-06
-1.201702957e-06
-1.213613187e-06
-1.225247644e-06
-1.236569445e-06
-1.24754827e-06
-1.258173456e-06
-1.268402816e-06
-1.278194751e-06
-1.28758864e-06
-1.296462427e-06
-1.304860975e-06
-1.312676363e-06
-1.320060893e-06
-1.326708257e-06
-1.332978185e-06
-1.338679679e-06
-1.343850271e-06
-1.348576305e-06
-1.353310224e-06
-1.35851211e-06
-1.386755185e-06
-1.413406616e-06
-1.438167791e-06
-1.461612968e-06
)


101
(
-4.778642892e-10
-1.601840021e-08
-3.327227752e-08
-5.133533467e-08
-6.969838027e-08
-8.808960871e-08
-1.063508333e-07
-1.244702377e-07
-1.424001295e-07
-1.601404895e-07
-1.777073513e-07
-1.951202943e-07
-2.124034758e-07
-2.295683285e-07
-2.466355846e-07
-2.63624119e-07
-2.805470264e-07
-2.974154588e-07
-3.142377894e-07
-3.310334239e-07
-3.478032926e-07
-3.645463609e-07
-3.812828677e-07
-3.980112848e-07
-4.147308251e-07
-4.314438627e-07
-4.481518295e-07
-4.648550177e-07
-4.815585415e-07
-4.982598004e-07
-5.149594392e-07
-5.316520572e-07
-5.483191363e-07
-5.650109862e-07
-5.816833468e-07
-5.983411583e-07
-6.14978865e-07
-6.315860086e-07
-6.481709892e-07
-6.647450492e-07
-6.81292783e-07
-6.977903989e-07
-7.142541817e-07
-7.30675069e-07
-7.470398504e-07
-7.63359711e-07
-7.796237156e-07
-7.958406371e-07
-8.119981656e-07
-8.280990563e-07
-8.441347696e-07
-8.601079886e-07
-8.760156297e-07
-8.918539737e-07
-9.076195647e-07
-9.233101218e-07
-9.389310224e-07
-9.544640345e-07
-9.699175778e-07
-9.852819682e-07
-1.000558908e-06
-1.015741377e-06
-1.030825441e-06
-1.045802506e-06
-1.060681542e-06
-1.075442085e-06
-1.090082376e-06
-1.10459271e-06
-1.118968471e-06
-1.133194338e-06
-1.147283271e-06
-1.161204058e-06
-1.174941418e-06
-1.188496292e-06
-1.20185955e-06
-1.215016451e-06
-1.227911534e-06
-1.240582445e-06
-1.252961245e-06
-1.265051963e-06
-1.276816332e-06
-1.288222972e-06
-1.299261103e-06
-1.30988547e-06
-1.320052507e-06
-1.329803952e-06
-1.339012976e-06
-1.347725362e-06
-1.355830008e-06
-1.363486104e-06
-1.370373881e-06
-1.376865852e-06
-1.382765263e-06
-1.388112069e-06
-1.39299731e-06
-1.397911062e-06
-1.40332969e-06
-1.430352674e-06
-1.455900857e-06
-1.479650556e-06
-1.502191279e-06
)


101
(
-4.77876264e-10
-1.603007434e-08
-3.331921362e-08
-5.144321847e-08
-6.989422816e-08
-8.840101516e-08
-1.068049854e-07
-1.250947862e-07
-1.43221869e-07
-1.611854119e-07
-1.790006816e-07
-1.966864875e-07
-2.142661266e-07
-2.317500119e-07
-2.491586123e-07
-2.665098526e-07
-2.838156372e-07
-3.010862427e-07
-3.18330617e-07
-3.355648043e-07
-3.527916721e-07
-3.700089829e-07
-3.872337388e-07
-4.044646973e-07
-4.217008959e-07
-4.389437865e-07
-4.56193698e-07
-4.73449937e-07
-4.907160968e-07
-5.079889097e-07
-5.252681946e-07
-5.425484314e-07
-5.59812167e-07
-5.771033033e-07
-5.943809736e-07
-6.11648323e-07
-6.288992123e-07
-6.461234798e-07
-6.633282021e-07
-6.805231357e-07
-6.976931221e-07
-7.148165334e-07
-7.319062212e-07
-7.48952812e-07
-7.659435679e-07
-7.828874942e-07
-7.99774669e-07
-8.166125415e-07
-8.333894779e-07
-8.501069112e-07
-8.667567631e-07
-8.833408886e-07
-8.998559676e-07
-9.162983436e-07
-9.326648669e-07
-9.489533317e-07
-9.651674847e-07
-9.812913365e-07
-9.9733072e-07
-1.013276834e-06
-1.029130309e-06
-1.044884606e-06
-1.060535836e-06
-1.076075085e-06
-1.091512105e-06
-1.106825583e-06
-1.122013762e-06
-1.137065989e-06
-1.151976646e-06
-1.166730498e-06
-1.181341214e-06
-1.195777016e-06
-1.21002182e-06
-1.224076957e-06
-1.23793262e-06
-1.251573717e-06
-1.264942083e-06
-1.278077317e-06
-1.290909472e-06
-1.3034426e-06
-1.315636756e-06
-1.32745935e-06
-1.338900163e-06
-1.34991119e-06
-1.360446267e-06
-1.370548803e-06
-1.38008856e-06
-1.389111804e-06
-1.397503418e-06
-1.405430184e-06
-1.412559725e-06
-1.419276068e-06
-1.425376822e-06
-1.43090461e-06
-1.435954964e-06
-1.441055462e-06
-1.446696523e-06
-1.472637152e-06
-1.49721344e-06
-1.520078367e-06
-1.54183642e-06
)


101
(
-4.778884164e-10
-1.604175594e-08
-3.336616114e-08
-5.155104812e-08
-7.008980463e-08
-8.871170634e-08
-1.072576976e-07
-1.257167723e-07
-1.44039513e-07
-1.622242339e-07
-1.802853858e-07
-1.98240949e-07
-2.161133637e-07
-2.339118769e-07
-2.516566722e-07
-2.693647685e-07
-2.870468306e-07
-3.047121135e-07
-3.223702387e-07
-3.40033823e-07
-3.577075486e-07
-3.753881825e-07
-3.93089606e-07
-4.10810684e-07
-4.285501603e-07
-4.463086283e-07
-4.640854393e-07
-4.818790136e-07
-4.996914779e-07
-5.1751885e-07
-5.353600131e-07
-5.532092225e-07
-5.710501127e-07
-5.889205303e-07
-6.067830896e-07
-6.246391959e-07
-6.424819623e-07
-6.603012395e-07
-6.781025965e-07
-6.958944271e-07
-7.136620915e-07
-7.313863773e-07
-7.490770537e-07
-7.667244453e-07
-7.843160488e-07
-8.018586201e-07
-8.193431268e-07
-8.367757494e-07
-8.541457028e-07
-8.714532954e-07
-8.886909798e-07
-9.058598062e-07
-9.229561495e-07
-9.399762854e-07
-9.569173124e-07
-9.737772509e-07
-9.905584129e-07
-1.007247143e-06
-1.023846968e-06
-1.040349898e-06
-1.05675539e-06
-1.073057306e-06
-1.089251749e-06
-1.105329486e-06
-1.121301098e-06
-1.13714479e-06
-1.152859051e-06
-1.168432476e-06
-1.183858342e-06
-1.199121052e-06
-1.214234793e-06
-1.229167334e-06
-1.243902188e-06
-1.258441366e-06
-1.272774448e-06
-1.286885801e-06
-1.300714391e-06
-1.314301661e-06
-1.327575939e-06
-1.340541498e-06
-1.353156739e-06
-1.365387461e-06
-1.377224277e-06
-1.38861715e-06
-1.399517147e-06
-1.409968214e-06
-1.419837275e-06
-1.429171807e-06
-1.437851945e-06
-1.446051235e-06
-1.453426659e-06
-1.460372739e-06
-1.466681113e-06
-1.472397271e-06
-1.477620995e-06
-1.482912236e-06
-1.488788128e-06
-1.513776572e-06
-1.537505024e-06
-1.559602926e-06
-1.580689287e-06
)


101
(
-4.779005687e-10
-1.605343912e-08
-3.341310825e-08
-5.165880645e-08
-7.028508813e-08
-8.902165779e-08
-1.077089443e-07
-1.263361754e-07
-1.44853047e-07
-1.632569524e-07
-1.815614795e-07
-1.997837221e-07
-2.179452613e-07
-2.360540564e-07
-2.541299656e-07
-2.721891353e-07
-2.902409596e-07
-3.082935528e-07
-3.263572555e-07
-3.444412361e-07
-3.625518702e-07
-3.806850627e-07
-3.988517165e-07
-4.1705071e-07
-4.352803804e-07
-4.535404711e-07
-4.718294379e-07
-4.90144907e-07
-5.084876301e-07
-5.268529243e-07
-5.452386701e-07
-5.6363877e-07
-5.820378771e-07
-6.004680723e-07
-6.188955209e-07
-6.373200721e-07
-6.557340969e-07
-6.741272733e-07
-6.925034292e-07
-7.10869422e-07
-7.292112582e-07
-7.475124158e-07
-7.657800216e-07
-7.840043251e-07
-8.021729243e-07
-8.20290181e-07
-8.383478367e-07
-8.56350778e-07
-8.74289025e-07
-8.921620866e-07
-9.099630894e-07
-9.276922901e-07
-9.453457443e-07
-9.629196347e-07
-9.804111458e-07
-9.978185386e-07
-1.015142924e-06
-1.032373027e-06
-1.049510358e-06
-1.066547771e-06
-1.083483554e-06
-1.100311821e-06
-1.117028654e-06
-1.13362443e-06
-1.150110519e-06
-1.166464804e-06
-1.182686265e-06
-1.198763158e-06
-1.214687689e-06
-1.230443716e-06
-1.246045515e-06
-1.261460287e-06
-1.276671285e-06
-1.291681562e-06
-1.30648042e-06
-1.321051705e-06
-1.335331314e-06
-1.349362208e-06
-1.363070961e-06
-1.3764624e-06
-1.389493588e-06
-1.402128426e-06
-1.414357915e-06
-1.426130762e-06
-1.437395828e-06
-1.448196506e-06
-1.458396338e-06
-1.468045294e-06
-1.477018581e-06
-1.485495177e-06
-1.493122977e-06
-1.500306477e-06
-1.506831133e-06
-1.512745336e-06
-1.518152693e-06
-1.523641158e-06
-1.529766135e-06
-1.553927202e-06
-1.576926776e-06
-1.598366915e-06
-1.6188836e-06
)


101
(
-4.779121877e-10
-1.6065106e-08
-3.346001805e-08
-5.17664374e-08
-7.04800041e-08
-8.933077767e-08
-1.081586182e-07
-1.269528788e-07
-1.456623456e-07
-1.642834394e-07
-1.828288381e-07
-2.01314695e-07
-2.197617249e-07
-2.381764966e-07
-2.565784928e-07
-2.749830083e-07
-2.933981497e-07
-3.118307933e-07
-3.302920125e-07
-3.487875298e-07
-3.673252989e-07
-3.859004381e-07
-4.045210215e-07
-4.231859115e-07
-4.418929557e-07
-4.606410204e-07
-4.794277092e-07
-4.982499239e-07
-5.171071422e-07
-5.359940421e-07
-5.549074943e-07
-5.738409484e-07
-5.927799424e-07
-6.117509635e-07
-6.307237886e-07
-6.496969217e-07
-6.686621376e-07
-6.876088945e-07
-7.065391083e-07
-7.254578351e-07
-7.443516222e-07
-7.63206691e-07
-7.820280536e-07
-8.0080625e-07
-8.195291187e-07
-8.38198503e-07
-8.56806627e-07
-8.753570887e-07
-8.938406937e-07
-9.12256212e-07
-9.305976364e-07
-9.488646798e-07
-9.670530301e-07
-9.851587067e-07
-1.003178958e-06
-1.021112118e-06
-1.038958275e-06
-1.056708572e-06
-1.074362794e-06
-1.09191476e-06
-1.109361682e-06
-1.126697724e-06
-1.143918927e-06
-1.161015258e-06
-1.177998823e-06
-1.194847147e-06
-1.21155986e-06
-1.228125166e-06
-1.244534567e-06
-1.260771395e-06
-1.276849656e-06
-1.292735642e-06
-1.308412336e-06
-1.323883896e-06
-1.339139789e-06
-1.354163715e-06
-1.368888551e-06
-1.383358226e-06
-1.39749721e-06
-1.411311162e-06
-1.424756248e-06
-1.43779449e-06
-1.450416744e-06
-1.462570453e-06
-1.474203201e-06
-1.485357759e-06
-1.495892899e-06
-1.505861701e-06
-1.515135369e-06
-1.523896845e-06
-1.531785597e-06
-1.539216432e-06
-1.545967689e-06
-1.55209153e-06
-1.557694556e-06
-1.563401405e-06
-1.569784514e-06
-1.593230291e-06
-1.615609031e-06
-1.63650147e-06
-1.656563305e-06
)


101
(
-4.779241621e-10
-1.607678658e-08
-3.350695327e-08
-5.187403901e-08
-7.067468767e-08
-8.963923976e-08
-1.086069333e-07
-1.275671425e-07
-1.464677161e-07
-1.65304054e-07
-1.840878792e-07
-2.028343526e-07
-2.215633108e-07
-2.40279847e-07
-2.59003011e-07
-2.777472558e-07
-2.965193937e-07
-3.153249862e-07
-3.341758279e-07
-3.530742196e-07
-3.720295802e-07
-3.910362773e-07
-4.100996932e-07
-4.292186893e-07
-4.483905825e-07
-4.676133287e-07
-4.868836863e-07
-5.061978738e-07
-5.255541788e-07
-5.449467324e-07
-5.643714505e-07
-5.838212772e-07
-6.032824971e-07
-6.227760861e-07
-6.422754006e-07
-6.617778076e-07
-6.812746987e-07
-7.00755428e-07
-7.202199443e-07
-7.396712576e-07
-7.590961556e-07
-7.784835065e-07
-7.978365517e-07
-8.17146569e-07
-8.364019516e-07
-8.556021277e-07
-8.747395566e-07
-8.938163843e-07
-9.128241104e-07
-9.317608498e-07
-9.50621548e-07
-9.69405576e-07
-9.881084411e-07
-1.006725929e-06
-1.025255281e-06
-1.043694868e-06
-1.062043641e-06
-1.08029522e-06
-1.098447977e-06
-1.116496842e-06
-1.134438071e-06
-1.152265851e-06
-1.16997604e-06
-1.187558212e-06
-1.20502517e-06
-1.222353912e-06
-1.239544834e-06
-1.256586277e-06
-1.273469384e-06
-1.290177131e-06
-1.306723184e-06
-1.323072712e-06
-1.339207996e-06
-1.355134247e-06
-1.370841282e-06
-1.386313163e-06
-1.40148027e-06
-1.416387058e-06
-1.430955518e-06
-1.44519166e-06
-1.459051196e-06
-1.472494973e-06
-1.485513266e-06
-1.498051652e-06
-1.510057157e-06
-1.521572403e-06
-1.532450375e-06
-1.542746772e-06
-1.552330223e-06
-1.561386762e-06
-1.569546846e-06
-1.577237119e-06
-1.584227002e-06
-1.5905736e-06
-1.596386089e-06
-1.602330742e-06
-1.608984778e-06
-1.631823178e-06
-1.653685681e-06
-1.674136358e-06
-1.693840785e-06
)


101
(
-4.779364919e-10
-1.6088481e-08