/*--------------------------------*- C++ -*----------------------------------*\
| =========                 |                                                 |
| \\      /  F ield         | OpenFOAM: The Open Source CFD Toolbox           |
|  \\    /   O peration     | Version:  2.3.1                                 |
|   \\  /    A nd           | Web:      www.OpenFOAM.org                      |
|    \\/     M anipulation  |                                                 |
\*---------------------------------------------------------------------------*/
FoamFile
{
    version     2.0;
    format      ascii;
    class       dictionary;
    location    "constant";
    object      DPSI37;
}
// * * * * * * * * * * * * * * * * * * * * * * * * * * * * * * * * * * * * * //

DPSI37_table
101
(

101
(
1.243908468e-14
3.703969747e-12
1.143024704e-11
1.964926199e-11
2.73942015e-11
3.428719596e-11
3.997461596e-11
4.401591699e-11
4.605790421e-11
4.574728595e-11
4.260744743e-11
3.632875815e-11
2.681382768e-11
1.312188706e-11
-3.655596141e-12
-2.297326298e-11
-4.409182888e-11
-6.552169279e-11
-8.364902794e-11
-1.002211897e-10
-1.11327559e-10
-1.183179916e-10
-1.212682507e-10
-1.208484217e-10
-1.179953743e-10
-1.134080435e-10
-1.076901986e-10
-1.012821664e-10
-9.427074127e-11
-8.720900341e-11
-8.016933211e-11
-7.349096943e-11
-6.761851532e-11
-6.014892903e-11
-5.42009796e-11
-4.842030589e-11
-3.923954124e-11
-3.05827873e-11
-3.303090322e-11
-3.079651125e-11
-2.771920794e-11
-2.510747724e-11
-2.246942434e-11
-2.019547993e-11
-1.833845563e-11
-1.656140858e-11
-1.505641494e-11
-1.361155734e-11
-1.236898019e-11
-1.120537211e-11
-1.019558252e-11
-9.274598914e-12
-8.438632225e-12
-7.666971179e-12
-6.975047107e-12
-6.365546088e-12
-5.755597405e-12
-5.269805523e-12
-4.787577006e-12
-4.371615881e-12
-3.978802909e-12
-3.624956037e-12
-3.306897519e-12
-3.002097774e-12
-2.721987329e-12
-2.474882031e-12
-2.246196635e-12
-2.033775439e-12
-1.833015887e-12
-1.653032068e-12
-1.485288672e-12
-1.331914509e-12
-1.18309865e-12
-1.036160517e-12
-7.96729801e-13
-6.68725246e-13
-6.441374391e-13
-5.901609725e-13
-5.263712391e-13
-4.622332071e-13
-4.018491095e-13
-3.423377352e-13
-2.857398754e-13
-2.013362915e-13
-1.694229381e-13
-1.544545529e-13
-1.320040057e-13
-1.083327047e-13
-8.617614853e-14
-5.451549231e-14
-4.626461516e-14
-3.87191106e-14
-2.761558974e-14
-1.927386138e-14
-1.361445844e-14
-1.036810527e-14
-4.953920547e-15
-6.129925758e-15
-7.66626039e-15
-1.169266917e-14
-1.602247809e-14
)


101
(
1.243939647e-14
3.699461709e-12
1.142188146e-11
1.965024146e-11
2.740401338e-11
3.429469829e-11
3.996217129e-11
4.396294382e-11
4.593429449e-11
4.552032666e-11
4.224396294e-11
3.579253918e-11
2.605787545e-11
1.214031253e-11
-4.989580172e-12
-2.475740605e-11
-4.642964876e-11
-6.856602317e-11
-8.770813439e-11
-1.051296874e-10
-1.17379187e-10
-1.253107337e-10
-1.290953181e-10
-1.293242256e-10
-1.269054121e-10
-1.225784382e-10
-1.169684369e-10
-1.105444465e-10
-1.034571813e-10
-9.619859007e-11
-8.891856978e-11
-8.193984989e-11
-7.568423245e-11
-6.825389258e-11
-6.181078934e-11
-5.564021784e-11
-4.687028391e-11
-3.796358463e-11
-3.79804307e-11
-3.595710019e-11
-3.297951719e-11
-3.01290535e-11
-2.727137884e-11
-2.47034112e-11
-2.252463779e-11
-2.050779446e-11
-1.875468639e-11
-1.711052576e-11
-1.565457244e-11
-1.430418528e-11
-1.310208649e-11
-1.200675376e-11
-1.101027052e-11
-1.009669635e-11
-9.265400522e-12
-8.515304808e-12
-7.784282523e-12
-7.157080723e-12
-6.560046372e-12
-6.025011583e-12
-5.5267684e-12
-5.070063705e-12
-4.65274896e-12
-4.260610822e-12
-3.89824869e-12
-3.568125935e-12
-3.260988589e-12
-2.974779296e-12
-2.706568614e-12
-2.458379251e-12
-2.227168566e-12
-2.012651143e-12
-1.811241269e-12
-1.616882705e-12
-1.356685186e-12
-1.162218516e-12
-1.056618555e-12
-9.561983803e-13
-8.581199664e-13
-7.616962243e-13
-6.696706865e-13
-5.816736087e-13
-4.994837454e-13
-3.992806842e-13
-3.322901475e-13
-2.866418844e-13
-2.467036291e-13
-2.079390046e-13
-1.71406673e-13
-1.31560863e-13
-1.064193118e-13
-8.60413505e-14
-6.845629021e-14
-5.271247369e-14
-4.101298352e-14
-3.079735729e-14
-1.609212615e-14
-2.377594268e-14
-3.301815039e-14
-5.057407959e-14
-6.946971107e-14
)


101
(
1.243970829e-14
3.687676617e-12
1.138874263e-11
1.960991532e-11
2.734428464e-11
3.418371019e-11
3.975827711e-11
4.362317127e-11
4.540366227e-11
4.474647333e-11
4.118329567e-11
3.440749663e-11
2.430150272e-11
1.006311264e-11
-7.559126396e-12
-2.7950534e-11
-5.038906746e-11
-7.354088686e-11
-9.430441211e-11
-1.130920709e-10
-1.27288017e-10
-1.369234666e-10
-1.422508651e-10
-1.43739446e-10
-1.422147563e-10
-1.384728169e-10
-1.33174218e-10
-1.268334828e-10
-1.197188775e-10
-1.122220339e-10
-1.046021396e-10
-9.716874391e-11
-9.029284947e-11
-8.299137833e-11
-7.592637436e-11
-6.902170564e-11
-6.106263645e-11
-5.214005882e-11
-4.807536674e-11
-4.564302529e-11
-4.277086642e-11
-3.965460713e-11
-3.648572557e-11
-3.344828941e-11
-3.071278472e-11
-2.82498977e-11
-2.604883745e-11
-2.404326267e-11
-2.221031205e-11
-2.052348316e-11
-1.897440603e-11
-1.755635545e-11
-1.625752853e-11
-1.506721621e-11
-1.39704163e-11
-1.296130737e-11
-1.200261913e-11
-1.111683942e-11
-1.02962405e-11
-9.534057681e-12
-8.828456758e-12
-8.172566979e-12
-7.563725401e-12
-6.996341945e-12
-6.465971642e-12
-5.968260666e-12
-5.502958763e-12
-5.06530671e-12
-4.657923702e-12
-4.274263835e-12
-3.913501883e-12
-3.574361804e-12
-3.259233989e-12
-2.963227824e-12
-2.651888776e-12
-2.345829777e-12
-2.086690134e-12
-1.869726253e-12
-1.680971791e-12
-1.508326925e-12
-1.345433588e-12
-1.191157725e-12
-1.048069618e-12
-9.067136001e-13
-7.735591771e-13
-6.595227351e-13
-5.659757659e-13
-4.874301805e-13
-4.142127632e-13
-3.452920156e-13
-2.840732649e-13
-2.329273153e-13
-1.944254932e-13
-1.588151404e-13
-1.296092529e-13
-9.865378672e-14
-5.392265067e-14
-8.852611249e-14
-1.289435921e-13
-1.972764846e-13
-2.722348448e-13
)


101
(
1.244002011e-14
3.675796304e-12
1.135564032e-11
1.957049136e-11
2.728815364e-11
3.408141486e-11
3.95709075e-11
4.331097603e-11
4.491504659e-11
4.403209315e-11
4.01988434e-11
3.31152917e-11
2.265311642e-11
8.095506893e-12
-9.996623654e-12
-3.100765978e-11
-5.422491296e-11
-7.840793627e-11
-1.007679684e-10
-1.21076772e-10
-1.372291442e-10
-1.487508266e-10
-1.558040376e-10
-1.587536026e-10
-1.583352761e-10
-1.553630358e-10
-1.505359202e-10
-1.444146567e-10
-1.373628409e-10
-1.297336923e-10
-1.218231968e-10
-1.139705416e-10
-1.065149378e-10
-9.90838817e-11
-9.171653321e-11
-8.446112797e-11
-7.640224746e-11
-6.753867567e-11
-6.113811701e-11
-5.711161082e-11
-5.377817324e-11
-5.043121286e-11
-4.699712737e-11
-4.357473804e-11
-4.033750165e-11
-3.737774943e-11
-3.469829604e-11
-3.227373447e-11
-3.004635783e-11
-2.79942629e-11
-2.608583488e-11
-2.431816465e-11
-2.268320859e-11
-2.117431423e-11
-1.977658924e-11
-1.84769402e-11
-1.726063857e-11
-1.611196944e-11
-1.503841172e-11
-1.402633775e-11
-1.308070319e-11
-1.219807332e-11
-1.137279227e-11
-1.060020029e-11
-9.87266176e-12
-9.180897124e-12
-8.528808622e-12
-7.913523645e-12
-7.335572879e-12
-6.792164313e-12
-6.273359849e-12
-5.782891572e-12
-5.319799297e-12
-4.887436783e-12
-4.468704335e-12
-4.055178386e-12
-3.658805238e-12
-3.296848086e-12
-2.973561981e-12
-2.685321155e-12
-2.421630457e-12
-2.172872484e-12
-1.940194656e-12
-1.721461762e-12
-1.513286333e-12
-1.318091447e-12
-1.14046463e-12
-9.897569222e-13
-8.604025386e-13
-7.381269089e-13
-6.266038532e-13
-5.263305505e-13
-4.407565209e-13
-3.731501939e-13
-3.130770104e-13
-2.46641118e-13
-1.537263188e-13
-2.516440553e-13
-3.619926831e-13
-5.255152377e-13
-6.972737814e-13
)


101
(
1.244033308e-14
3.663815121e-12
1.132255876e-11
1.953193211e-11
2.723553467e-11
3.39876653e-11
3.939978148e-11
4.302555652e-11
4.446693911e-11
4.33746233e-11
3.928644744e-11
3.190902573e-11
2.110270728e-11
6.224394459e-12
-1.23223306e-11
-3.395017146e-11
-5.795970987e-11
-8.319316863e-11
-1.071383795e-10
-1.290970857e-10
-1.472540185e-10
-1.608217039e-10
-1.697998591e-10
-1.744285173e-10
-1.753489813e-10
-1.73359828e-10
-1.691897213e-10
-1.634485573e-10
-1.565801774e-10
-1.489394757e-10
-1.408447286e-10
-1.326146798e-10
-1.246117e-10
-1.16865524e-10
-1.092168751e-10
-1.018347002e-10
-9.350493512e-11
-8.457904924e-11
-7.681987024e-11
-7.108125078e-11
-6.672580541e-11
-6.287665951e-11
-5.912553113e-11
-5.537014549e-11
-5.168979484e-11
-4.822030771e-11
-4.502361349e-11
-4.212355944e-11
-3.946915214e-11
-3.701968627e-11
-3.472979158e-11
-3.258471328e-11
-3.058034395e-11
-2.871934517e-11
-2.698938746e-11
-2.536530476e-11
-2.384900765e-11
-2.241073555e-11
-2.105954009e-11
-1.977317323e-11
-1.855372035e-11
-1.741107004e-11
-1.633271826e-11
-1.532074683e-11
-1.436875611e-11
-1.346081797e-11
-1.259435535e-11
-1.177075818e-11
-1.098565943e-11
-1.025067745e-11
-9.545801117e-12
-8.872812478e-12
-8.227997639e-12
-7.619400774e-12
-7.041124855e-12
-6.483647218e-12
-5.943070076e-12
-5.425032322e-12
-4.935392549e-12
-4.487023224e-12
-4.078729813e-12
-3.703389385e-12
-3.347177872e-12
-3.013096912e-12
-2.696509031e-12
-2.398085566e-12
-2.113009872e-12
-1.851822452e-12
-1.627181484e-12
-1.4279608e-12
-1.23798536e-12
-1.065601687e-12
-9.07989128e-13
-7.764213897e-13
-6.668425754e-13
-5.437056603e-13
-3.751496726e-13
-5.620555427e-13
-7.842876814e-13
-1.213203794e-12
-1.672198353e-12
)


101
(
1.244064377e-14
3.651726703e-12
1.128947709e-11
1.949419387e-11
2.718633878e-11
3.390230476e-11
3.92446364e-11
4.276623933e-11
4.40580628e-11
4.277202757e-11
3.844311505e-11
3.078311525e-11
1.964311827e-11
4.439680228e-12
-1.455242413e-11
-3.67942569e-11
-6.161184832e-11
-8.791759664e-11
-1.134425785e-10
-1.371596964e-10
-1.573951612e-10
-1.731564918e-10
-1.842620628e-10
-1.908031091e-10
-1.933068096e-10
-1.925399256e-10
-1.892443415e-10
-1.840678996e-10
-1.77527685e-10
-1.7000689e-10
-1.618522201e-10
-1.533465763e-10
-1.448626844e-10
-1.366946206e-10
-1.286713652e-10
-1.208717173e-10
-1.125640165e-10
-1.035683513e-10
-9.495277727e-11
-8.779295299e-11
-8.215649197e-11
-7.746579581e-11
-7.321084395e-11
-6.908093899e-11
-6.499138724e-11
-6.103290078e-11
-5.730050751e-11
-5.3883017e-11
-5.075996531e-11
-4.78790383e-11
-4.518651448e-11
-4.264426043e-11
-4.024441654e-11
-3.79949042e-11
-3.590148263e-11
-3.393250769e-11
-3.207709786e-11
-3.031510467e-11
-2.864899759e-11
-2.706136469e-11
-2.554753626e-11
-2.411492462e-11
-2.275346973e-11
-2.146164119e-11
-2.024495961e-11
-1.909156123e-11
-1.798418223e-11
-1.691971804e-11
-1.589425387e-11
-1.492130749e-11
-1.399867167e-11
-1.311504295e-11
-1.226168004e-11
-1.144116158e-11
-1.0656445e-11
-9.905579431e-12
-9.187136058e-12
-8.487592342e-12
-7.807576214e-12
-7.162190139e-12
-6.56084286e-12
-6.012420194e-12
-5.492672722e-12
-5.001248452e-12
-4.536212101e-12
-4.094389813e-12
-3.669405174e-12
-3.263760789e-12
-2.894517391e-12
-2.574817598e-12
-2.270549921e-12
-1.98755231e-12
-1.733672806e-12
-1.501367852e-12
-1.312301848e-12
-1.081084535e-12
-7.843136155e-13
-1.208904754e-12
-1.704655766e-12
-2.614321923e-12
-3.562078431e-12
)


101
(
1.244095555e-14
3.639522609e-12
1.125638018e-11
1.945724291e-11
2.714043909e-11
3.382494191e-11
3.910455821e-11
4.253147893e-11
4.368712344e-11
4.222317018e-11
3.76674473e-11
2.973636708e-11
1.827236389e-11
2.741142907e-12
-1.668992599e-11
-3.954093016e-11
-6.51758956e-11
-9.257244126e-11
-1.196756842e-10
-1.452395309e-10
-1.676398304e-10
-1.857351485e-10
-1.991654206e-10
-2.078590002e-10
-2.122025862e-10
-2.129140962e-10
-2.107384094e-10
-2.063454822e-10
-2.003123063e-10
-1.930648606e-10
-1.849765812e-10
-1.763453465e-10
-1.67494915e-10
-1.58892607e-10
-1.50463306e-10
-1.42267209e-10
-1.338337466e-10
-1.247953709e-10
-1.156759497e-10
-1.074137701e-10
-1.004843691e-10
-9.470256006e-11
-8.970104354e-11
-8.506568566e-11
-8.054899649e-11
-7.613273681e-11
-7.187450669e-11
-6.790128956e-11
-6.424970129e-11
-6.088953801e-11
-5.776254305e-11
-5.480362273e-11
-5.199521947e-11
-4.933667701e-11
-4.684154127e-11
-4.449525161e-11
-4.228450103e-11
-4.01738399e-11
-3.81622941e-11
-3.623729661e-11
-3.43976958e-11
-3.264101211e-11
-3.096603335e-11
-2.936622031e-11
-2.78458228e-11
-2.640691268e-11
-2.50260226e-11
-2.369757194e-11
-2.240839724e-11
-2.116061091e-11
-1.99772616e-11
-1.88430316e-11
-1.774947319e-11
-1.668604817e-11
-1.565790495e-11
-1.466540376e-11
-1.37176541e-11
-1.280038499e-11
-1.190634947e-11
-1.103354678e-11
-1.019374055e-11
-9.409496345e-12
-8.678540457e-12
-7.978126432e-12
-7.316373471e-12
-6.682914173e-12
-6.07270505e-12
-5.480226043e-12
-4.923173511e-12
-4.420631978e-12
-3.962532738e-12
-3.51267052e-12
-3.106343453e-12
-2.73901239e-12
-2.412749773e-12
-2.036313202e-12
-1.552861008e-12
-2.450113984e-12
-3.481906569e-12
-5.298595152e-12
-7.156380883e-12
)


101
(
1.244126736e-14
3.627195553e-12
1.122324831e-11
1.942103917e-11
2.70976868e-11
3.375503742e-11
3.897803423e-11
4.231837876e-11
4.335193717e-11
4.172585814e-11
3.695664922e-11
2.876480785e-11
1.698468513e-11
1.123202221e-12
-1.874302204e-11
-4.219829167e-11
-6.865368727e-11
-9.715378266e-11
-1.258341048e-10
-1.533149564e-10
-1.779711861e-10
-1.985375587e-10
-2.144784353e-10
-2.255670787e-10
-2.320214405e-10
-2.344848347e-10
-2.336983484e-10
-2.303435009e-10
-2.250376571e-10
-2.182513434e-10
-2.103955642e-10
-2.017922737e-10
-1.927282672e-10
-1.837559142e-10
-1.749105843e-10
-1.663108881e-10
-1.576558264e-10
-1.485447143e-10
-1.391413103e-10
-1.300912617e-10
-1.220113665e-10
-1.150547503e-10
-1.090950522e-10
-1.037651758e-10
-9.873100149e-11
-9.385388027e-11
-8.909606802e-11
-8.456546689e-11
-8.034946232e-11
-7.645991237e-11
-7.284125813e-11
-6.943714265e-11
-6.620643974e-11
-6.311609987e-11
-6.019020665e-11
-5.743809129e-11
-5.484162249e-11
-5.235890511e-11
-4.999095895e-11
-4.771164745e-11
-4.551775993e-11
-4.340890642e-11
-4.137901386e-11
-3.943984392e-11
-3.758536211e-11
-3.58283965e-11
-3.415087612e-11
-3.253262528e-11
-3.095558951e-11
-2.940441956e-11
-2.791459227e-11
-2.647936858e-11
-2.51103845e-11
-2.377897608e-11
-2.247409191e-11
-2.120054014e-11
-1.997138175e-11
-1.87868268e-11
-1.763569391e-11
-1.649856345e-11
-1.538539809e-11
-1.431111994e-11
-1.33120952e-11
-1.234760849e-11
-1.143102741e-11
-1.054242631e-11
-9.698841345e-12
-8.861221173e-12
-8.063352242e-12
-7.313429376e-12
-6.629069506e-12
-5.953951309e-12
-5.337186844e-12
-4.777344649e-12
-4.252133308e-12
-3.695042296e-12
-2.908562162e-12
-4.579272677e-12
-6.519244815e-12
-1.012962276e-11
-1.394963358e-11
)


101
(
1.244158148e-14
3.614739981e-12
1.119006307e-11
1.938552556e-11
2.70579735e-11
3.369235656e-11
3.886435157e-11
4.212517668e-11
4.305092622e-11
4.127871021e-11
3.630961557e-11
2.78663179e-11
1.577738512e-11
-4.169776626e-13
-2.071556658e-11
-4.477045527e-11
-7.204619757e-11
-1.016573887e-10
-1.319120772e-10
-1.613646557e-10
-1.883677668e-10
-2.115436985e-10
-2.301753749e-10
-2.439083619e-10
-2.527702478e-10
-2.572933342e-10
-2.581936107e-10
-2.561565603e-10
-2.518266902e-10
-2.457137365e-10
-2.382715485e-10
-2.298604613e-10
-2.207542533e-10
-2.115349336e-10
-2.023016716e-10
-1.932855816e-10
-1.843464311e-10
-1.751256289e-10
-1.655699836e-10
-1.560109212e-10
-1.47001487e-10
-1.389065208e-10
-1.318640676e-10
-1.256577388e-10
-1.199685381e-10
-1.145761019e-10
-1.09329281e-10
-1.04273029e-10
-9.948502807e-11
-9.502545178e-11
-9.087368936e-11
-8.700128471e-11
-8.333277034e-11
-7.980810526e-11
-7.644114875e-11
-7.324490012e-11
-7.023079107e-11
-6.734002247e-11
-6.459670692e-11
-6.196090326e-11
-5.940664102e-11
-5.693881024e-11
-5.453989749e-11
-5.223023939e-11
-5.000938699e-11
-4.789152874e-11
-4.588168002e-11
-4.393993117e-11
-4.205113387e-11
-4.018556615e-11
-3.83660218e-11
-3.660055183e-11
-3.490093316e-11
-3.325931416e-11
-3.165033364e-11
-3.006940345e-11
-2.851338312e-11
-2.700644676e-11
-2.555065007e-11
-2.410601354e-11
-2.267175737e-11
-2.127241808e-11
-1.99387015e-11
-1.866617549e-11
-1.742431695e-11
-1.62095296e-11
-1.5072532e-11
-1.393009531e-11
-1.282281646e-11
-1.176276348e-11
-1.075922739e-11
-9.799277834e-12
-8.900105051e-12
-8.066049509e-12
-7.271003802e-12
-6.426806607e-12
-5.280096934e-12
-8.285869195e-12
-1.178213565e-11
-1.83104996e-11
-2.571829158e-11
)


101
(
1.244189328e-14
3.602144252e-12
1.115679586e-11
1.935059934e-11
2.702107163e-11
3.36366421e-11
3.876342986e-11
4.195181865e-11
4.278237505e-11
4.087904164e-11
3.572486149e-11
2.704133788e-11
1.46525154e-11
-1.875099483e-12
-2.260307489e-11
-4.725209469e-11
-7.534434278e-11
-1.060692474e-10
-1.378928011e-10
-1.69356262e-10
-1.987908727e-10
-2.247204842e-10
-2.462411669e-10
-2.628713632e-10
-2.744614637e-10
-2.813909945e-10
-2.843094165e-10
-2.83893904e-10
-2.808113879e-10
-2.756095395e-10
-2.687809033e-10
-2.607269795e-10
-2.517408684e-10
-2.424354485e-10
-2.329043841e-10
-2.234983032e-10
-2.142510431e-10
-2.048919041e-10
-1.95244621e-10
-1.853911659e-10
-1.757046364e-10
-1.666004234e-10
-1.584660682e-10
-1.512696859e-10
-1.447925169e-10
-1.388034434e-10
-1.330460437e-10
-1.274746362e-10
-1.221131429e-10
-1.170669448e-10
-1.12361863e-10
-1.079935441e-10
-1.038768455e-10
-9.99365262e-11
-9.611757556e-11
-9.246583991e-11
-8.902407454e-11
-8.571510983e-11
-8.25769644e-11
-7.95754513e-11
-7.665903508e-11
-7.382414484e-11
-7.106954312e-11
-6.838420598e-11
-6.577141561e-11
-6.324443435e-11
-6.085782987e-11
-5.85665017e-11
-5.63583939e-11
-5.418175809e-11
-5.202797567e-11
-4.991064282e-11
-4.784697403e-11
-4.585241038e-11
-4.391194651e-11
-4.199085327e-11
-4.008082849e-11
-3.821553015e-11
-3.64015283e-11
-3.461027176e-11
-3.281183859e-11
-3.104638451e-11
-2.931936462e-11
-2.768322115e-11
-2.605969643e-11
-2.444061082e-11
-2.291540735e-11
-2.141432497e-11
-1.992067661e-11
-1.849284869e-11
-1.708226975e-11
-1.575432676e-11
-1.448244481e-11
-1.328482954e-11
-1.214111402e-11
-1.087480622e-11
-9.242509403e-12
-1.460919644e-11
-2.075949196e-11
-3.15506797e-11
-4.279867366e-11
)


101
(
1.244218796e-14
3.589399431e-12
1.11234212e-11
1.931618683e-11
2.698679009e-11
3.358763679e-11
3.867517624e-11
4.179845777e-11
4.254466026e-11
4.05232409e-11
3.520017418e-11
2.628972774e-11
1.361233381e-11
-3.246171555e-12
-2.439991219e-11
-4.963681083e-11
-7.853725157e-11
-1.103720476e-10
-1.437558386e-10
-1.772570008e-10
-2.09196189e-10
-2.380217101e-10
-2.626528247e-10
-2.824346918e-10
-2.970883442e-10
-3.067985981e-10
-3.120967203e-10
-3.136381554e-10
-3.121109946e-10
-3.080986842e-10
-3.021273186e-10
-2.946308672e-10
-2.859367059e-10
-2.767308009e-10
-2.670594693e-10
-2.573442693e-10
-2.477824208e-10
-2.382383489e-10
-2.285047509e-10
-2.185038813e-10
-2.084020757e-10
-1.985248095e-10
-1.893978114e-10
-1.811872069e-10
-1.738236449e-10
-1.671404317e-10
-1.608212113e-10
-1.547239645e-10
-1.488096217e-10
-1.431901505e-10
-1.379135118e-10
-1.33010546e-10
-1.284259074e-10
-1.240614757e-10
-1.198141634e-10
-1.157618786e-10
-1.118842029e-10
-1.081663911e-10
-1.046137953e-10
-1.01243687e-10
-9.798514542e-11
-9.479726092e-11
-9.169323144e-11
-8.864290813e-11
-8.56595549e-11
-8.27359241e-11
-7.993098634e-11
-7.727022849e-11
-7.472714272e-11
-7.223408092e-11
-6.976103018e-11
-6.729579679e-11
-6.487013556e-11
-6.250011642e-11
-6.019263565e-11
-5.790951046e-11
-5.564528188e-11
-5.341509245e-11
-5.119027624e-11
-4.901016579e-11
-4.683390524e-11
-4.465478951e-11
-4.250148802e-11
-4.043734248e-11
-3.839161822e-11
-3.629939999e-11
-3.428141693e-11
-3.236332479e-11
-3.043664831e-11
-2.853112771e-11
-2.663061057e-11
-2.484648953e-11
-2.31042318e-11
-2.144406453e-11
-1.987751205e-11
-1.811681066e-11
-1.587375049e-11
-2.482733562e-11
-3.512753279e-11
-5.259014118e-11
-7.103131797e-11
)


101
(
1.244245573e-14
3.576500566e-12
1.108992168e-11
1.928225704e-11
2.695508515e-11
3.354532557e-11
3.859971254e-11
4.166515384e-11
4.233674843e-11
4.020959076e-11
3.473521451e-11
2.561164074e-11
1.265826224e-11
-4.526625638e-12
-2.610224504e-11
-5.192066348e-11
-8.162032552e-11
-1.145561078e-10
-1.49490137e-10
-1.850478637e-10
-2.195447609e-10
-2.513849581e-10
-2.793289661e-10
-3.025078559e-10
-3.205338125e-10
-3.333965061e-10
-3.41477126e-10
-3.453732173e-10
-3.457781638e-10
-3.432972251e-10
-3.384903526e-10
-3.318274076e-10
-3.236669103e-10
-3.14776067e-10
-3.05162504e-10
-2.952735961e-10
-2.854265442e-10
-2.75646676e-10
-2.65803659e-10
-2.557631179e-10
-2.45478306e-10
-2.351043661e-10
-2.251688094e-10
-2.160026105e-10
-2.076992617e-10
-2.002214977e-10
-1.932801437e-10
-1.866630233e-10
-1.802398691e-10
-1.74086378e-10
-1.682480645e-10
-1.627965106e-10
-1.577244307e-10
-1.529344451e-10
-1.483222261e-10
-1.438943914e-10
-1.396206775e-10
-1.354946538e-10
-1.315421674e-10
-1.278010812e-10
-1.242246745e-10
-1.207315407e-10
-1.173173757e-10
-1.139473724e-10
-1.106299221e-10
-1.073834499e-10
-1.041865327e-10
-1.011386703e-10
-9.824628355e-11
-9.543819375e-11
-9.268385993e-11
-8.992994343e-11
-8.715683729e-11
-8.440818836e-11
-8.171520022e-11
-7.908378533e-11
-7.647996096e-11
-7.388746112e-11
-7.128630651e-11
-6.869389565e-11
-6.610277245e-11
-6.349443978e-11
-6.08923187e-11
-5.833841375e-11
-5.585229423e-11
-5.328914458e-11
-5.068484058e-11
-4.82438506e-11
-4.58346016e-11
-4.336361535e-11
-4.088257568e-11
-3.857607967e-11
-3.627748873e-11
-3.403486525e-11
-3.193296693e-11
-2.961473789e-11
-2.677849935e-11
-4.123005145e-11
-5.784296187e-11
-8.475850819e-11
-1.134250283e-10
)


101
(
1.244273604e-14
3.563435115e-12
1.105626429e-11
1.924875536e-11
2.692587771e-11
3.350967749e-11
3.853745596e-11
4.155252657e-11
4.215649272e-11
3.993495064e-11
3.433057304e-11
2.500798385e-11
1.179235283e-11
-5.709973457e-12
-2.770128314e-11
-5.409465041e-11
-8.459107396e-11
-1.186249331e-10
-1.550995688e-10
-1.927221889e-10
-2.297974511e-10
-2.64725222e-10
-2.961368431e-10
-3.229533892e-10
-3.446496366e-10
-3.610346144e-10
-3.723365826e-10
-3.790494218e-10
-3.81838693e-10
-3.813039228e-10
-3.780340518e-10
-3.725484279e-10
-3.652410787e-10
-3.569364855e-10
-3.476175186e-10
-3.377397819e-10
-3.276972002e-10
-3.176755633e-10
-3.07699386e-10
-2.976793835e-10
-2.873960128e-10
-2.768009255e-10
-2.663155164e-10
-2.563355133e-10
-2.471056838e-10
-2.387650548e-10
-2.311373437e-10
-2.239987332e-10
-2.171203265e-10
-2.105110058e-10
-2.041581791e-10
-1.981780512e-10
-1.926364838e-10
-1.874453578e-10
-1.82502912e-10
-1.777172645e-10
-1.731478307e-10
-1.686758009e-10
-1.643976114e-10
-1.603113188e-10
-1.564594994e-10
-1.527122449e-10
-1.490548685e-10
-1.454548386e-10
-1.419022976e-10
-1.384006007e-10
-1.349131371e-10
-1.315328993e-10
-1.282922885e-10
-1.252061144e-10
-1.222132109e-10
-1.19260003e-10
-1.162373433e-10
-1.131807492e-10
-1.101263737e-10
-1.071342062e-10
-1.042143985e-10
-1.013315944e-10
-9.840947144e-11
-9.545312841e-11
-9.24395975e-11
-8.942317675e-11
-8.636038356e-11
-8.328113578e-11
-8.032852047e-11
-7.733202738e-11
-7.411485985e-11
-7.102939441e-11
-6.803833968e-11
-6.50214808e-11
-6.186044875e-11
-5.893563629e-11
-5.595787372e-11
-5.308577604e-11
-5.030561034e-11
-4.734306688e-11
-4.389600229e-11
-6.647010263e-11
-9.223721056e-11
-1.312531845e-10
-1.730041743e-10
)


101
(
1.244305249e-14
3.550194288e-12
1.102242874e-11
1.921564935e-11
2.689912678e-11
3.348064405e-11
3.848866583e-11
4.146126382e-11
4.20025669e-11
3.969590551e-11
3.398626678e-11
2.447956233e-11
1.101618151e-11
-6.790391757e-12
-2.918837748e-11
-5.614882911e-11
-8.744356927e-11
-1.225815774e-10
-1.605883404e-10
-2.002827066e-10
-2.399360665e-10
-2.779868036e-10
-3.129794467e-10
-3.436661215e-10
-3.693563098e-10
-3.896600075e-10
-4.046380456e-10
-4.146494283e-10
-4.203045314e-10
-4.221823505e-10
-4.208887032e-10
-4.169797577e-10
-4.108845026e-10
-4.034920825e-10
-3.947611019e-10
-3.851489183e-10
-3.750909427e-10
-3.649102146e-10
-3.548206126e-10
-3.448400589e-10
-3.346885223e-10
-3.241302984e-10
-3.134130818e-10
-3.028639445e-10
-2.928273783e-10
-2.836335158e-10
-2.752648225e-10
-2.675672222e-10
-2.602716632e-10
-2.532815752e-10
-2.465019507e-10
-2.400678102e-10
-2.341167444e-10
-2.28570089e-10
-2.233517039e-10
-2.18334485e-10
-2.135693503e-10
-2.089031087e-10
-2.04378909e-10
-2.000387578e-10
-1.959886443e-10
-1.920880606e-10
-1.882694759e-10
-1.845626545e-10
-1.809408456e-10
-1.772909049e-10
-1.736698269e-10
-1.700659775e-10
-1.666042073e-10
-1.63319159e-10
-1.601524412e-10
-1.570949077e-10
-1.539954835e-10
-1.508164083e-10
-1.475341975e-10
-1.442092526e-10
-1.410169265e-10
-1.379071288e-10
-1.347711e-10
-1.315838083e-10
-1.282160526e-10
-1.248064448e-10
-1.213457772e-10
-1.17796182e-10
-1.142718654e-10
-1.10829608e-10
-1.071222032e-10
-1.033019284e-10
-9.963326581e-11
-9.607879647e-11
-9.214553794e-11
-8.855289797e-11
-8.464975028e-11
-8.106337623e-11
-7.750488132e-11
-7.383727026e-11
-6.953937011e-11
-1.027426585e-10
-1.405088677e-10
-1.948105675e-10
-2.580944618e-10
)


101
(
1.244336889e-14
3.536766875e-12
1.098838728e-11
1.91828894e-11
2.68748019e-11
3.345822834e-11
3.845324664e-11
4.139167047e-11
4.187509279e-11
3.949071157e-11
3.369831056e-11
2.402794554e-11
1.033054628e-11
-7.768000888e-12
-3.056418988e-11
-5.808286338e-11
-9.016791389e-11
-1.264064708e-10
-1.659263601e-10
-2.076667613e-10
-2.498976226e-10
-2.911106208e-10
-3.298068093e-10
-3.645787481e-10
-3.945809041e-10
-4.192202419e-10
-4.383487465e-10
-4.521555299e-10
-4.611749682e-10
-4.659695326e-10
-4.671614057e-10
-4.653050068e-10
-4.608249194e-10
-4.547191275e-10
-4.469288671e-10
-4.379169998e-10
-4.281245303e-10
-4.179663693e-10
-4.078452199e-10
-3.979284365e-10
-3.879989317e-10
-3.776858722e-10
-3.670577349e-10
-3.562811907e-10
-3.456959475e-10
-3.357731362e-10
-3.266721583e-10
-3.183987516e-10
-3.106929165e-10
-3.033772064e-10
-2.963155132e-10
-2.895709353e-10
-2.832905983e-10
-2.774809154e-10
-2.720967606e-10
-2.670065679e-10
-2.621873034e-10
-2.575177808e-10
-2.529169839e-10
-2.484756502e-10
-2.443038095e-10
-2.404030474e-10
-2.366073175e-10
-2.329931956e-10
-2.294720164e-10
-2.258981788e-10
-2.223388434e-10
-2.187468549e-10
-2.153061509e-10
-2.11965504e-10
-2.087647664e-10
-2.057380952e-10
-2.027405531e-10
-1.997227975e-10
-1.965204306e-10
-1.930600502e-10
-1.896396542e-10
-1.863194966e-10
-1.831696203e-10
-1.799104455e-10
-1.763868638e-10
-1.726908492e-10
-1.688667933e-10
-1.649819464e-10
-1.609596956e-10
-1.569653617e-10
-1.528189018e-10
-1.48299325e-10
-1.437822508e-10
-1.395893863e-10
-1.347892723e-10
-1.303863461e-10
-1.254980712e-10
-1.209028451e-10
-1.164805909e-10
-1.118936312e-10
-1.064014677e-10
-1.533017269e-10
-2.06239439e-10
-2.790102532e-10
-3.543783281e-10
)


101
(
1.24436714e-14
3.523136853e-12
1.095410177e-11
1.915041639e-11
2.685282933e-11
3.344238414e-11
3.843105844e-11
4.134407366e-11
4.177432622e-11
3.931798088e-11
3.346073267e-11
2.365527007e-11
9.737569516e-12
-8.644491688e-12
-3.183243396e-11
-5.990184798e-11
-9.27566812e-11
-1.300695553e-10
-1.710651908e-10
-2.147724101e-10
-2.595817238e-10
-3.040071767e-10
-3.465553238e-10
-3.856208356e-10
-4.202346451e-10
-4.496296408e-10
-4.733980638e-10
-4.915297742e-10
-5.044657098e-10
-5.12734817e-10
-5.169593467e-10
-5.176838326e-10
-5.153023502e-10
-5.109230835e-10
-5.044936588e-10
-4.964986945e-10
-4.873540986e-10
-4.775031222e-10
-4.675106257e-10
-4.577338979e-10
-4.480776716e-10
-4.38155307e-10
-4.279162039e-10
-4.173033779e-10
-4.065325959e-10
-3.961347305e-10
-3.86441937e-10
-3.776655153e-10
-3.695723088e-10
-3.620170936e-10
-3.548427534e-10
-3.479835109e-10
-3.415114288e-10
-3.355902064e-10
-3.301639384e-10
-3.251074905e-10
-3.20454451e-10
-3.160227421e-10
-3.116386013e-10
-3.073285807e-10
-3.03252702e-10
-2.995353233e-10
-2.960539411e-10
-2.92814661e-10
-2.896025287e-10
-2.864921649e-10
-2.832952015e-10
-2.800445771e-10
-2.768694304e-10
-2.737489856e-10
-2.708158076e-10
-2.680356714e-10
-2.653833938e-10
-2.628160024e-10
-2.600984838e-10
-2.569582343e-10
-2.534656588e-10
-2.501353041e-10
-2.470097312e-10
-2.4389519e-10
-2.40601268e-10
-2.368650191e-10
-2.326986371e-10
-2.285878396e-10
-2.24218286e-10
-2.196922956e-10
-2.149726889e-10
-2.09874363e-10
-2.042796581e-10
-1.99189084e-10
-1.935190216e-10
-1.878551926e-10
-1.820221123e-10
-1.760451469e-10
-1.704584618e-10
-1.647714727e-10
-1.581781806e-10
-2.219168768e-10
-2.934167314e-10
-3.894217728e-10
-4.87525363e-10
)


101
(
1.244398319e-14
3.509300416e-12
1.091940104e-11
1.911823395e-11
2.683320257e-11
3.343303515e-11
3.842201372e-11
4.131888542e-11
4.170236509e-11
3.917851438e-11
3.326915238e-11
2.336090428e-11
9.239329136e-12
-9.418769813e-12
-3.299118239e-11
-6.160485621e-11
-9.520636917e-11
-1.335587083e-10
-1.759916372e-10
-2.215666981e-10
-2.689485787e-10
-3.166253965e-10
-3.631466576e-10
-4.066975083e-10
-4.461861745e-10
-4.807238232e-10
-5.096336363e-10
-5.326727469e-10
-5.501589671e-10
-5.62543975e-10
-5.703907658e-10
-5.742500364e-10
-5.745274109e-10
-5.723899672e-10
-5.678170718e-10
-5.613407624e-10
-5.533348722e-10
-5.442004107e-10
-5.345951392e-10
-5.250862016e-10
-5.15764272e-10
-5.063516967e-10
-4.967457592e-10
-4.866815629e-10
-4.761668835e-10
-4.656865541e-10
-4.556809168e-10
-4.465575558e-10
-4.382095502e-10
-4.305698208e-10
-4.23452113e-10
-4.167125677e-10
-4.103075221e-10
-4.044746948e-10
-3.992129952e-10
-3.943858489e-10
-3.901343925e-10
-3.862040638e-10
-3.824229666e-10
-3.786399089e-10
-3.750413863e-10
-3.717813529e-10
-3.689557644e-10
-3.664224464e-10
-3.639320629e-10
-3.617037763e-10
-3.592986077e-10
-3.568186465e-10
-3.543167069e-10
-3.519397223e-10
-3.496901742e-10
-3.474905315e-10
-3.45522379e-10
-3.436976418e-10
-3.418280029e-10
-3.396213941e-10
-3.367879202e-10
-3.336810558e-10
-3.306644032e-10
-3.279271737e-10
-3.25226251e-10
-3.21726219e-10
-3.175690265e-10
-3.132479471e-10
-3.08604784e-10
-3.036348106e-10
-2.98123368e-10
-2.924200461e-10
-2.856122955e-10
-2.792438603e-10
-2.726925484e-10
-2.652221567e-10
-2.580280518e-10
-2.504068019e-10
-2.430040734e-10
-2.359923598e-10
-2.281466927e-10
-3.124161231e-10
-4.066060733e-10
-5.330748479e-10
-6.737231687e-10
)


101
(
1.244430424e-14
3.495247192e-12
1.088441937e-11
1.90863024e-11
2.681586304e-11
3.343004095e-11
3.842591658e-11
4.131621157e-11
4.166376757e-11
3.90791565e-11
3.311999908e-11
2.313984891e-11
8.833793041e-12
-1.008637345e-11
-3.402395752e-11