/*--------------------------------*- C++ -*----------------------------------*\
| =========                 |                                                 |
| \\      /  F ield         | OpenFOAM: The Open Source CFD Toolbox           |
|  \\    /   O peration     | Version:  2.3.1                                 |
|   \\  /    A nd           | Web:      www.OpenFOAM.org                      |
|    \\/     M anipulation  |                                                 |
\*---------------------------------------------------------------------------*/
FoamFile
{
    version     2.0;
    format      ascii;
    class       dictionary;
    location    "constant";
    object      DPSI54;
}
// * * * * * * * * * * * * * * * * * * * * * * * * * * * * * * * * * * * * * //

DPSI54_table
101
(

101
(
4.063905992e-49
1.314049735e-41
2.318149668e-39
5.1833617e-38
4.610677376e-37
2.266290689e-36
7.645603449e-36
2.27598112e-35
5.875234612e-35
1.381349011e-34
3.018330186e-34
6.290413959e-34
1.242111717e-33
2.433053064e-33
4.626899112e-33
8.526508868e-33
1.531461626e-32
2.729036727e-32
4.547168665e-32
7.656108161e-32
1.217260999e-31
1.846839855e-31
2.763405356e-31
3.979999107e-31
5.505818383e-31
7.338472029e-31
9.435446277e-31
1.17046365e-30
1.40543169e-30
1.632055063e-30
1.833646988e-30
1.990428943e-30
2.082113629e-30
2.089957416e-30
2.008432675e-30
1.812589412e-30
1.027913849e-29
2.572008147e-29
2.714054693e-29
2.82571697e-29
2.905232052e-29
2.957310995e-29
2.970433158e-29
2.947658438e-29
2.893605153e-29
2.80050468e-29
2.676074524e-29
2.515267141e-29
2.325607562e-29
2.104739094e-29
1.860979141e-29
1.594194187e-29
1.308641351e-29
1.008749826e-29
6.986695946e-30
3.815353736e-30
5.512129492e-31
-2.634595795e-30
-5.831426763e-30
-8.92523771e-30
-1.192330028e-29
-1.477253948e-29
-1.744978516e-29
-1.993644381e-29
-2.220096301e-29
-2.423625875e-29
-2.60152936e-29
-2.752823767e-29
-2.877336467e-29
-2.97344557e-29
-3.041785423e-29
-3.082664065e-29
-3.096552813e-29
-3.083621964e-29
-1.984456749e-29
-1.301266691e-29
-1.504019174e-29
-1.643698616e-29
-1.729518081e-29
-1.768745009e-29
-1.767748149e-29
-1.728068738e-29
-1.659585297e-29
-1.075746292e-29
-7.106191714e-30
-8.064221879e-30
-8.295997699e-30
-8.004557164e-30
-7.334065648e-30
-4.085719798e-30
-3.853439261e-30
-3.583833763e-30
-2.932065206e-30
-1.871026438e-30
-1.174771737e-30
-6.659574469e-31
-2.358026167e-31
-1.048355854e-30
-3.845120782e-30
-1.212102054e-29
-3.356311575e-29
)


101
(
4.064007857e-49
8.461630116e-42
1.295142141e-39
2.717170363e-38
2.328195032e-37
1.114238712e-36
3.664415513e-36
1.068179231e-35
2.700042399e-35
6.22052637e-35
1.331347417e-34
2.718163175e-34
5.239286133e-34
1.00428324e-33
1.861657571e-33
3.324903356e-33
5.752778066e-33
9.861170869e-33
1.53967169e-32
2.44306999e-32
3.538499316e-32
4.700240297e-32
5.993217065e-32
6.798750087e-32
6.285094017e-32
3.334244173e-32
-3.596172533e-32
-1.647258685e-31
-3.745916088e-31
-6.908949875e-31
-1.139725642e-30
-1.747077281e-30
-2.533563864e-30
-3.550608084e-30
-4.789907286e-30
-6.281138601e-30
-3.466429356e-30
2.786617029e-30
1.515515693e-30
-1.497962927e-31
-2.203088444e-30
-4.573791724e-30
-7.3775479e-30
-1.057977172e-29
-1.411528342e-29
-1.806349048e-29
-2.233373704e-29
-2.697573618e-29
-3.189530579e-29
-3.711495009e-29
-4.252788585e-29
-4.813012773e-29
-5.387018663e-29
-5.968688631e-29
-6.551812025e-29
-7.131885217e-29
-7.714735445e-29
-8.272514156e-29
-8.819564644e-29
-9.338418099e-29
-9.831163798e-29
-1.028817025e-28
-1.070515214e-28
-1.107995705e-28
-1.140714484e-28
-1.168429267e-28
-1.190613662e-28
-1.207040027e-28
-1.217771866e-28
-1.222228599e-28
-1.220590638e-28
-1.212781836e-28
-1.19906348e-28
-1.179111883e-28
-1.095951437e-28
-1.031036478e-28
-1.010152706e-28
-9.814797095e-29
-9.453490405e-29
-9.027926472e-29
-8.549266989e-29
-8.026344706e-29
-7.467442052e-29
-6.615243215e-29
-5.87524802e-29
-5.382386417e-29
-4.844582348e-29
-4.281533052e-29
-3.712666726e-29
-3.027097405e-29
-2.533503412e-29
-2.072972252e-29
-1.624182219e-29
-1.197134957e-29
-8.400119449e-30
-5.374974806e-30
-2.887217354e-30
-1.02201338e-29
-3.11526668e-29
-8.446251488e-29
-2.062430527e-28
)


101
(
4.06410973e-49
3.597969269e-42
2.653385323e-40
2.422517256e-39
3.639364468e-39
-4.444546981e-38
-3.492079951e-37
-1.531609277e-36
-5.221683109e-36
-1.516092467e-35
-3.952815539e-35
-9.558157447e-35
-2.18694502e-34
-4.813001677e-34
-1.03104745e-33
-2.154332367e-33
-4.399154861e-33
-8.802712232e-33
-1.717281599e-32
-3.268490564e-32
-6.060247951e-32
-1.088065287e-31
-1.897078157e-31
-3.211496547e-31
-5.269209256e-31
-8.378719842e-31
-1.292308012e-30
-1.935351682e-30
-2.820028487e-30
-4.002777591e-30
-5.544660367e-30
-7.505445166e-30
-9.931767697e-30
-1.295636812e-29
-1.658539694e-29
-2.088654191e-29
-2.591900345e-29
-3.172295717e-29
-3.838269671e-29
-4.597824929e-29
-5.449936101e-29
-6.382530429e-29
-7.413088879e-29
-8.540193311e-29
-9.753985464e-29
-1.106783077e-28
-1.246917663e-28
-1.396720573e-28
-1.554691114e-28
-1.721255598e-28
-1.894482178e-28
-2.074161541e-28
-2.259342061e-28
-2.448728428e-28
-2.640795578e-28
-2.83431278e-28
-3.030822329e-28
-3.223685649e-28
-3.415639539e-28
-3.602375184e-28
-3.784040187e-28
-3.957741011e-28
-4.121755794e-28
-4.275036938e-28
-4.415689136e-28
-4.542274514e-28
-4.652680684e-28
-4.7454377e-28
-4.820180548e-28
-4.874291921e-28
-4.907604312e-28
-4.918975091e-28
-4.908738614e-28
-4.874986036e-28
-4.817895888e-28
-4.737742055e-28
-4.63624665e-28
-4.512084563e-28
-4.363192046e-28
-4.190335596e-28
-3.99591232e-28
-3.783944762e-28
-3.556330895e-28
-3.315863206e-28
-3.065121727e-28
-2.807488111e-28
-2.543309683e-28
-2.273796151e-28
-2.003858047e-28
-1.740044484e-28
-1.484354268e-28
-1.241868549e-28
-1.01318201e-28
-8.009177217e-29
-6.107859186e-29
-4.39179847e-29
-2.875933626e-29
-8.533265282e-29
-2.246389778e-28
-5.38303229e-28
-1.184756094e-27
)


101
(
4.064211602e-49
3.254273896e-42
2.579447099e-40
2.46555042e-39
4.489206356e-39
-4.026701471e-38
-3.404623722e-37
-1.536841027e-36
-5.351415967e-36
-1.582296841e-35
-4.193830134e-35
-1.029519715e-34
-2.389590545e-34
-5.328380013e-34
-1.15607287e-33
-2.447875612e-33
-5.068446468e-33
-1.028908122e-32
-2.040776267e-32
-3.952201444e-32
-7.468007818e-32
-1.369587098e-31
-2.440638853e-31
-4.22661889e-31
-7.103311441e-31
-1.158003315e-30
-1.832061837e-30
-2.815193155e-30
-4.20908586e-30
-6.130087301e-30
-8.710735995e-30
-1.209156745e-29
-1.640092947e-29
-2.190336897e-29
-2.870654165e-29
-3.69951743e-29
-4.694706036e-29
-5.871742241e-29
-7.254983456e-29
-8.871267786e-29
-1.073160568e-28
-1.282373959e-28
-1.518382684e-28
-1.782145633e-28
-2.072977343e-28
-2.394145246e-28
-2.744376867e-28
-3.126311411e-28
-3.538023184e-28
-3.981054787e-28
-4.452225289e-28
-4.951393419e-28
-5.476896062e-28
-6.026262401e-28
-6.59619849e-28
-7.183671496e-28
-7.791869473e-28
-8.406168285e-28
-9.031421504e-28
-9.657104078e-28
-1.028236418e-27
-1.089931416e-27
-1.150232475e-27
-1.208707662e-27
-1.26474783e-27
-1.317801313e-27
-1.36714832e-27
-1.412179844e-27
-1.452559352e-27
-1.487388178e-27
-1.516379876e-27
-1.53896315e-27
-1.554980939e-27
-1.563735426e-27
-1.564937966e-27
-1.558274471e-27
-1.544073882e-27
-1.522213265e-27
-1.491979365e-27
-1.453069159e-27
-1.405470146e-27
-1.350144466e-27
-1.287866713e-27
-1.219454465e-27
-1.145446771e-27
-1.067007379e-27
-9.847256098e-28
-8.990270664e-28
-8.103771301e-28
-7.21273295e-28
-6.326239221e-28
-5.46427759e-28
-4.633706791e-28
-3.839441254e-28
-3.10279793e-28
-2.412968648e-28
-1.769015077e-28
-4.557248424e-28
-1.064694557e-27
-2.302679336e-27
-4.634324969e-27
)


101
(
4.064313852e-49
2.929469401e-42
2.504374979e-40
2.504088329e-39
5.335480174e-39
-3.587416112e-38
-3.3013364e-37
-1.535505292e-36
-5.460760056e-36
-1.643612756e-35
-4.425809993e-35
-1.102126635e-34
-2.592511579e-34
-5.850706859e-34
-1.283836944e-33
-2.750124828e-33
-5.763123519e-33
-1.184471061e-32
-2.382688966e-32
-4.684144099e-32
-8.9960757e-32
-1.680475864e-31
-3.052782249e-31
-5.393166654e-31
-9.256936881e-31
-1.542684678e-30
-2.496412283e-30
-3.924963255e-30
-6.004654747e-30
-8.947911422e-30
-1.300707066e-29
-1.846488427e-29
-2.560490655e-29
-3.491569206e-29
-4.671258408e-29
-6.142827065e-29
-7.949577899e-29
-1.013296948e-28
-1.275045638e-28
-1.586872699e-28
-1.95321737e-28
-2.374486512e-28
-2.858299654e-28
-3.408485958e-28
-4.02645121e-28
-4.720032783e-28
-5.489544995e-28
-6.341953101e-28
-7.276341356e-28
-8.297687112e-28
-9.402376905e-28
-1.059177221e-27
-1.186415156e-27
-1.321609831e-27
-1.464226372e-27
-1.613715802e-27
-1.7707099e-27
-1.932399408e-27
-2.099653549e-27
-2.270274036e-27
-2.443917232e-27
-2.618780338e-27
-2.793453156e-27
-2.96671288e-27
-3.136985742e-27
-3.302728901e-27
-3.462019722e-27
-3.613070271e-27
-3.754618536e-27
-3.884147811e-27
-4.000515479e-27
-4.101794992e-27
-4.187039089e-27
-4.254185745e-27
-4.301961712e-27
-4.328746735e-27
-4.334398099e-27
-4.318610289e-27
-4.279759288e-27
-4.216858867e-27
-4.128217225e-27
-4.014539334e-27
-3.877547595e-27
-3.71963945e-27
-3.5418884e-27
-3.346920113e-27
-3.136235966e-27
-2.912300592e-27
-2.674991431e-27
-2.429584649e-27
-2.17914008e-27
-1.930546931e-27
-1.685616856e-27
-1.4464346e-27
-1.218442838e-27
-9.99496183e-28
-7.875775621e-28
-1.809541923e-27
-3.835200074e-27
-7.637764249e-27
-1.431666096e-26
)


101
(
4.064415354e-49
2.623299966e-42
2.428326509e-40
2.538046229e-39
6.175423414e-39
-3.127998108e-38
-3.182187957e-37
-1.527319219e-36
-5.547845418e-36
-1.699214726e-35
-4.645850092e-35
-1.172749142e-34
-2.793218963e-34
-6.373411699e-34
-1.41262353e-33
-3.056557364e-33
-6.471564518e-33
-1.344071479e-32
-2.73595339e-32
-5.447930034e-32
-1.060848395e-31
-2.013197027e-31
-3.71913206e-31
-6.686005493e-31
-1.168962963e-30
-1.986240148e-30
-3.279222625e-30
-5.262073006e-30
-8.217118554e-30
-1.249842564e-29
-1.854153202e-29
-2.685575845e-29
-3.798632125e-29
-5.277818295e-29
-7.191184625e-29
-9.626625874e-29
-1.267540318e-28
-1.642940215e-28
-2.100748644e-28
-2.655006342e-28
-3.317205541e-28
-4.092864979e-28
-4.997670517e-28
-6.041835773e-28
-7.232399532e-28
-8.586611996e-28
-1.011019273e-27
-1.181944273e-27
-1.371816097e-27
-1.581961911e-27
-1.812287677e-27
-2.063468321e-27
-2.335599173e-27
-2.628439911e-27
-2.941365104e-27
-3.273651993e-27
-3.626565585e-27
-3.995327693e-27
-4.381516744e-27
-4.781174267e-27
-5.193510467e-27
-5.614977728e-27
-6.04263179e-27
-6.473700136e-27
-6.904738369e-27
-7.332199579e-27
-7.751824195e-27
-8.15938774e-27
-8.551527866e-27
-8.922248344e-27
-9.268343127e-27
-9.584724899e-27
-9.868289082e-27
-1.011386066e-26
-1.031774197e-26
-1.047509718e-26
-1.058343879e-26
-1.064101753e-26
-1.064384376e-26
-1.059032852e-26
-1.047534211e-26
-1.029617532e-26
-1.005361062e-26
-9.75281762e-27
-9.396461623e-27
-8.98981296e-27
-8.534639732e-27
-8.037916782e-27
-7.500095877e-27
-6.929101759e-27
-6.330428325e-27
-5.724545885e-27
-5.115640254e-27
-4.51013183e-27
-3.919890904e-27
-3.341809631e-27
-2.768987698e-27
-5.802823876e-27
-1.136256113e-26
-2.111606577e-26
-3.724592533e-26
)


101
(
4.064517215e-49
2.335475532e-42
2.351462548e-40
2.567354979e-39
7.006268743e-39
-2.649880954e-38
-3.047237736e-37
-1.512036067e-36
-5.610914381e-36
-1.748295314e-35
-4.851025072e-35
-1.240473118e-34
-2.989103535e-34
-6.889517471e-34
-1.540602771e-33
-3.362323438e-33
-7.181136724e-33
-1.504519414e-32
-3.09262191e-32
-6.224512843e-32
-1.226185094e-31
-2.35820449e-31
-4.420097844e-31
-8.067735508e-31
-1.43338958e-30
-2.477298315e-30
-4.163035553e-30
-6.802826671e-30
-1.08198484e-29
-1.676251486e-29
-2.532576438e-29
-3.735112969e-29
-5.37855459e-29
-7.600598672e-29
-1.052742447e-28
-1.431862459e-28
-1.914587149e-28
-2.518840371e-28
-3.266894003e-28
-4.185164565e-28
-5.297883805e-28
-6.621621456e-28
-8.186857511e-28
-1.001640422e-27
-1.212905652e-27
-1.455918828e-27
-1.732504184e-27
-2.046078483e-27
-2.398215914e-27
-2.791931705e-27
-3.228088721e-27
-3.708701918e-27
-4.23478894e-27
-4.806750036e-27
-5.424294623e-27
-6.086878286e-27
-6.797019138e-27
-7.547458574e-27
-8.341087003e-27
-9.171673792e-27
-1.0037921e-26
-1.093371636e-26
-1.185374996e-26
-1.279265611e-26
-1.374387384e-26
-1.470027541e-26
-1.565368939e-26
-1.659561416e-26
-1.751886709e-26
-1.841106253e-26
-1.926474981e-26
-2.00687047e-26
-2.081512204e-26
-2.149275353e-26
-2.20928011e-26
-2.260398035e-26
-2.301776358e-26
-2.332818478e-26
-2.352467093e-26
-2.360429032e-26
-2.355714754e-26
-2.33729815e-26
-2.304486097e-26
-2.257832641e-26
-2.197891224e-26
-2.125749474e-26
-2.041383379e-26
-1.946196761e-26
-1.840382859e-26
-1.725367159e-26
-1.601171169e-26
-1.472891803e-26
-1.341439163e-26
-1.208575309e-26
-1.076447438e-26
-9.453195875e-27
-8.1332131e-27
-1.579911713e-26
-2.896342159e-26
-5.073144207e-26
-8.491993392e-26
)


101
(
4.064619084e-49
2.065684564e-42
2.273945152e-40
2.591959036e-39
7.825246086e-39
-2.154620947e-38
-2.896636275e-37
-1.48944579e-36
-5.648332548e-36
-1.790071896e-35
-5.03841698e-35
-1.304366302e-34
-3.177461216e-34
-7.391718305e-34
-1.665857732e-33
-3.662347993e-33
-7.878544721e-33
-1.662427749e-32
-3.444182268e-32
-6.993047233e-32
-1.390749243e-31
-2.704445631e-31
-5.13189098e-31
-9.490390795e-31
-1.709775588e-30
-2.999078444e-30
-5.119050059e-30
-8.501149256e-30
-1.374467554e-29
-2.164820805e-29
-3.325000633e-29
-4.984500077e-29
-7.295003332e-29
-1.046889126e-28
-1.471805543e-28
-2.030799568e-28
-2.753313402e-28
-3.671019379e-28
-4.822382105e-28
-6.253012928e-28
-8.00778848e-28
-1.012313151e-27
-1.265431157e-27
-1.56465597e-27
-1.914002359e-27
-2.319727993e-27
-2.786031336e-27
-3.319415355e-27
-3.923855549e-27
-4.605405757e-27
-5.367093705e-27
-6.213596732e-27
-7.148110004e-27
-8.17282089e-27
-9.288649788e-27
-1.049604216e-26
-1.179991023e-26
-1.319032993e-26
-1.467245247e-26
-1.623762793e-26
-1.788437052e-26
-1.960343996e-26
-2.138653104e-26
-2.32244447e-26
-2.510604571e-26
-2.701841942e-26
-2.89473806e-26
-3.087809639e-26
-3.279741974e-26
-3.468320352e-26
-3.652018745e-26
-3.828656749e-26
-3.99654621e-26
-4.153560189e-26
-4.297929776e-26
-4.427364398e-26
-4.539816835e-26
-4.633813995e-26
-4.706856583e-26
-4.758177044e-26
-4.785995662e-26
-4.788279184e-26
-4.762529476e-26
-4.70827762e-26
-4.625986478e-26
-4.517879324e-26
-4.383209057e-26
-4.224508807e-26
-4.041662942e-26
-3.837895188e-26
-3.610587399e-26
-3.370502823e-26
-3.119372352e-26
-2.861307263e-26
-2.600046774e-26
-2.338132958e-26
-2.071134277e-26
-3.773667586e-26
-6.538117892e-26
-1.085887257e-25
-1.73316059e-25
)


101
(
4.064721709e-49
1.813591547e-42
2.195937055e-40
2.611819335e-39
8.629596966e-39
-1.643909575e-38
-2.730645137e-37
-1.459385973e-36
-5.65862179e-36
-1.823800538e-35
-5.205166697e-35
-1.363494696e-34
-3.355542865e-34
-7.872523514e-34
-1.78642731e-33
-3.951464801e-33
-8.550247603e-33
-1.814332767e-32
-3.781903968e-32
-7.731898501e-32
-1.549395312e-31
-3.039982937e-31
-5.827946587e-31
-1.089823783e-30
-1.98698593e-30
-3.530267381e-30
-6.108400074e-30
-1.028992628e-29
-1.688214473e-29
-2.698720039e-29
-4.207073209e-29
-6.40078385e-29
-9.506965126e-29
-1.38367934e-28
-1.972050042e-28
-2.756988269e-28
-3.785284602e-28
-5.108557483e-28
-6.78874927e-28
-8.899232716e-28
-1.151565233e-27
-1.470605997e-27
-1.856384486e-27
-2.31707309e-27
-2.860215785e-27
-3.496368691e-27
-4.233663293e-27
-5.0834534e-27
-6.053925875e-27
-7.156106247e-27
-8.396995561e-27
-9.785828481e-27
-1.132994644e-26
-1.303524751e-26
-1.490556382e-26
-1.694384996e-26
-1.915894873e-26
-2.153900833e-26
-2.409257272e-26
-2.680899265e-26
-2.968766951e-26
-3.271608271e-26
-3.5883e-26
-3.917465809e-26
-4.257408245e-26
-4.606009088e-26
-4.96094057e-26
-5.319870416e-26
-5.680646491e-26
-6.039720185e-26
-6.394467048e-26
-6.74102151e-26
-7.076298898e-26
-7.39648545e-26
-7.698408467e-26
-7.978005738e-26
-8.231325808e-26
-8.45530007e-26
-8.644732218e-26
-8.797893223e-26
-8.911524557e-26
-8.982014586e-26
-9.004449564e-26
-8.975217736e-26
-8.89348142e-26
-8.762855664e-26
-8.580776281e-26
-8.351822777e-26
-8.074427013e-26
-7.754958557e-26
-7.38531975e-26
-6.984357419e-26
-6.555162855e-26
-6.1058833e-26
-5.643650302e-26
-5.176202768e-26
-4.696260083e-26
-8.087354704e-26
-1.331777374e-25
-2.10168215e-25
-3.195607843e-25
)


101
(
4.064823577e-49
1.578828195e-42
2.117601133e-40
2.626912096e-39
9.41659823e-39
-1.119555125e-38
-2.549636002e-37
-1.421746276e-36
-5.640470428e-36
-1.848780992e-35
-5.348505787e-35
-1.416936382e-34
-3.520597236e-34
-8.32437919e-34
-1.90034223e-33
-4.224538826e-33
-9.182857168e-33
-1.95681341e-32
-4.097173826e-32
-8.419629506e-32
-1.696968376e-31
-3.352685939e-31
-6.480583074e-31
-1.223134333e-30
-2.252662429e-30
-4.046396014e-30
-7.084618107e-30
-1.208492197e-29
-2.008686052e-29
-3.254064382e-29
-5.141406844e-29
-7.928157003e-29
-1.193514581e-28
-1.759689365e-28
-2.539736035e-28
-3.593907858e-28
-4.991990808e-28
-6.812595251e-28
-9.149551132e-28
-1.211390494e-27
-1.582398521e-27
-2.039385489e-27
-2.597120926e-27
-3.269257508e-27
-4.068744718e-27
-5.012309119e-27
-6.114009716e-27
-7.392241372e-27
-8.861779331e-27
-1.054110417e-26
-1.244369905e-26
-1.458588594e-26
-1.698171629e-26
-1.964345073e-26
-2.258082836e-26
-2.580138195e-26
-2.932010506e-26
-3.312490688e-26
-3.722953271e-26
-4.162224679e-26
-4.630507843e-26
-5.126320231e-26
-5.648256539e-26
-6.194591216e-26
-6.763041043e-26
-7.350474289e-26
-7.953148808e-26
-8.567640578e-26
-9.190656669e-26
-9.817151939e-26
-1.044321598e-25
-1.10626679e-25
-1.167021468e-25
-1.225967937e-25
-1.282580589e-25
-1.336230425e-25
-1.386224029e-25
-1.432017048e-25
-1.472684066e-25
-1.507842728e-25
-1.536938077e-25
-1.559351602e-25
-1.574327491e-25
-1.580940585e-25
-1.57872885e-25
-1.568208949e-25
-1.548671493e-25
-1.520864565e-25
-1.484418852e-25
-1.44029584e-25
-1.386958294e-25
-1.327075098e-25
-1.261194346e-25
-1.190726217e-25
-1.117080629e-25
-1.042116767e-25
-9.650657809e-26
-1.57663448e-25
-2.473128525e-25
-3.707603406e-25
-5.381862354e-25
)


101
(
4.06484989e-49
1.36100469e-42
2.039100512e-40
2.63722905e-39
1.018356723e-38
-5.834741013e-39
-2.354085173e-37
-1.376467786e-36
-5.592756239e-36
-1.864367528e-35
-5.465798988e-35
-1.463794797e-34
-3.669915063e-34
-8.739785808e-34
-2.005657956e-33
-4.476576249e-33
-9.763506349e-33
-2.086601126e-32
-4.381830322e-32
-9.035925078e-32
-1.828559749e-31
-3.630919678e-31
-7.062761163e-31
-1.34296352e-30
-2.494082163e-30
-4.521580212e-30
-7.99702389e-30
-1.379090143e-29
-2.318758445e-29
-3.801425755e-29
-6.079614239e-29
-9.490348555e-29
-1.446416052e-28
-2.158104055e-28
-3.1513235e-28
-4.509888146e-28
-6.3324138e-28
-8.731906367e-28
-1.184299385e-27
-1.582494612e-27
-2.085159926e-27
-2.709901921e-27
-3.47873536e-27
-4.412934763e-27
-5.533195644e-27
-6.864692693e-27
-8.429794713e-27
-1.025641034e-26
-1.23686926e-26
-1.479550605e-26
-1.756001339e-26
-2.068874873e-26
-2.420549751e-26
-2.813217526e-26
-3.248794439e-26
-3.728774366e-26
-4.255681928e-26
-4.828462937e-26
-5.449324908e-26
-6.117045603e-26
-6.832317866e-26
-7.593662321e-26
-8.399518963e-26
-9.247968806e-26
-1.013620148e-25
-1.106017233e-25
-1.20146167e-25
-1.299410046e-25
-1.39940226e-25
-1.500760805e-25
-1.602967453e-25
-1.705152441e-25
-1.806488318e-25
-1.906040786e-25
-2.002988803e-25
-2.096427073e-25
-2.185252348e-25
-2.268622763e-25
-2.34515633e-25
-2.414001778e-25
-2.47423858e-25
-2.525009323e-25
-2.565165072e-25
-2.593084031e-25
-2.60758887e-25
-2.609297545e-25
-2.596694765e-25
-2.570594644e-25
-2.530552103e-25
-2.478107902e-25
-2.410385583e-25
-2.330789167e-25
-2.240178826e-25
-2.140682313e-25
-2.034923114e-25
-1.926865254e-25
-1.816278097e-25
-2.818200845e-25
-4.209112674e-25
-5.975417634e-25
-8.220756453e-25
)


101
(
4.064691436e-49
1.1597092e-42
1.960599603e-40
2.642779598e-39
1.092786964e-38
-3.769280235e-40
-2.144577953e-37
-1.323545328e-36
-5.514570043e-36
-1.869983525e-35
-5.55459452e-35
-1.503214183e-34
-3.800874084e-34
-9.111438049e-34
-2.100490056e-33
-4.702825151e-33
-1.028016541e-32
-2.200681752e-32
-4.62842608e-32
-9.562435253e-32
-1.939740071e-31
-3.864158118e-31
-7.549767359e-31
-1.443700357e-30
-2.699079211e-30
-4.93047573e-30
-8.794685983e-30
-1.530925795e-29
-2.6000959e-29
-4.308127645e-29
-6.965882016e-29
-1.099581833e-28
-1.694954035e-28
-2.55691223e-28
-3.774433836e-28
-5.458908659e-28
-7.743259152e-28
-1.078204548e-27
-1.475931394e-27
-1.989271496e-27
-2.642426728e-27
-3.460815411e-27
-4.475534028e-27
-5.71775831e-27
-7.218586063e-27
-9.014255557e-27
-1.11381338e-26
-1.363019705e-26
-1.652692819e-26
-1.987072794e-26
-2.369808941e-26
-2.804931033e-26
-3.296130496e-26
-3.846907239e-26
-4.460456494e-26
-5.139490779e-26
-5.887878988e-26
-6.705169101e-26
-7.594608197e-26
-8.555198105e-26
-9.58819308e-26
-1.069240393e-25
-1.18663385e-25
-1.310810356e-25
-1.441469232e-25
-1.578088344e-25
-1.720065863e-25
-1.866594141e-25
-2.016985524e-25
-2.170369649e-25
-2.326070406e-25
-2.482992764e-25
-2.640071837e-25
-2.795925324e-25
-2.949308673e-25
-3.09889858e-25
-3.243228612e-25
-3.381165761e-25
-3.510593463e-25
-3.630271683e-25
-3.738643363e-25
-3.834468396e-25
-3.916244443e-25
-3.98171905e-25
-4.028333866e-25
-4.056818621e-25
-4.06499256e-25
-4.052838613e-25
-4.019773974e-25
-3.96880532e-25
-3.894835501e-25
-3.801758053e-25
-3.690606191e-25
-3.564910882e-25
-3.428536409e-25
-3.289047796e-25
-3.147522439e-25
-4.629950693e-25
-6.563834865e-25
-8.791398632e-25
-1.141024745e-24
)


101
(
4.064607029e-49
9.744997492e-43
1.882259852e-40
2.643586502e-39
1.164693273e-38
5.156739619e-39
-1.921804691e-37
-1.263028875e-36
-5.405205666e-36
-1.865120892e-35
-5.61264958e-35
-1.534391769e-34
-3.910975816e-34
-9.432344423e-34
-2.183047907e-33
-4.898861072e-33
-1.072190525e-32
-2.29637222e-32
-4.830457827e-32
-9.983388686e-32
-2.026744257e-31
-4.043526285e-31
-7.920656391e-31
-1.520493946e-30
-2.856881388e-30
-5.250120595e-30
-9.430333022e-30
-1.654597766e-29
-2.834683666e-29
-4.741006118e-29
-7.741635674e-29
-1.234519926e-28
-1.922899011e-28
-2.930530351e-28
-4.370071101e-28
-6.383428546e-28
-9.142243687e-28
-1.284876666e-27
-1.774395233e-27
-2.411258915e-27
-3.227601302e-27
-4.258103134e-27
-5.544567266e-27
-7.130254642e-27
-9.059356562e-27
-1.138193449e-26
-1.414525677e-26
-1.740386752e-26
-2.120935101e-26
-2.562045e-26
-3.069086703e-26
-3.647829102e-26
-4.303606145e-26
-5.041577155e-26
-5.866558368e-26
-6.78296925e-26
-7.796099903e-26
-8.906837944e-26
-1.011957147e-25
-1.143408973e-25
-1.285202314e-25
-1.43728736e-25
-1.599530174e-25
-1.77174349e-25
-1.95362757e-25
-2.144611599e-25
-2.344027189e-25
-2.550827123e-25
-2.764077396e-25
-2.982470371e-25
-3.20522311e-25
-3.43096113e-25
-3.658558758e-25
-3.886191398e-25
-4.112065528e-25
-4.334252594e-25
-4.550741222e-25
-4.76018695e-25
-4.959962287e-25
-5.148114838e-25
-5.322477779e-25
-5.4809644e-25
-5.622205875e-25
-5.743353468e-25
-5.839809901e-25
-5.912174181e-25
-5.958421408e-25
-5.976843658e-25
-5.965989115e-25
-5.930788272e-25
-5.864851223e-25
-5.771352984e-25
-5.651123491e-25
-5.509389242e-25
-5.352725703e-25
-5.192080476e-25
-5.030134307e-25
-6.991365536e-25
-9.360874834e-25
-1.177874973e-24
-1.430035056e-24
)


101
(
4.064710403e-49
8.049138149e-43
1.804241866e-40
2.639690316e-39
1.233827299e-38
1.074434822e-38
-1.686556528e-37
-1.195025732e-36
-5.264196935e-36
-1.849352279e-35
-5.637969043e-35
-1.556592078e-34
-3.997896149e-34
-9.695949923e-34
-2.251662727e-33
-5.060666247e-33
-1.107914782e-32
-2.371388789e-32
-4.982575292e-32
-1.028613079e-31
-2.086605675e-31
-4.162148603e-31
-8.159274036e-31
-1.569540567e-30
-2.958806881e-30
-5.461507968e-30
-9.863847935e-30
-1.741917012e-29
-3.006368495e-29
-5.069353874e-29
-8.350795519e-29
-1.344019459e-28
-2.113681625e-28
-3.252030603e-28
-4.895919362e-28
-7.219039054e-28
-1.043430201e-27
-1.479583848e-27
-2.06069718e-27
-2.822613063e-27
-3.806209523e-27
-5.056533549e-27
-6.627268069e-27
-8.575537539e-27
-1.096099662e-26
-1.385007921e-26
-1.730694932e-26
-2.140313219e-26
-2.620753167e-26
-3.1797432e-26
-3.824674226e-26
-4.563360051e-26
-5.403094774e-26
-6.351045312e-26
-7.413870857e-26
-8.597929307e-26
-9.910268482e-26
-1.135337399e-25
-1.293336798e-25
-1.465088718e-25
-1.650797574e-25
-1.850489992e-25
-2.064093822e-25
-2.29134209e-25
-2.531919026e-25
-2.785349532e-25
-3.050789417e-25
-3.32718842e-25
-3.613140911e-25
-3.906918262e-25
-4.207499327e-25
-4.513075887e-25
-4.822470796e-25
-5.133680962e-25
-5.444462712e-25
-5.752164809e-25
-6.053535908e-25
-6.347426217e-25
-6.630732616e-25
-6.900766653e-25
-7.155092205e-25
-7.390180649e-25
-7.604519663e-25
-7.795646998e-25
-7.957603163e-25
-8.088704396e-25
-8.187300179e-25
-8.252498624e-25
-8.279172469e-25
-8.273955126e-25
-8.232666376e-25
-8.154137282e-25
-8.042875883e-25
-7.900459776e-25
-7.740417324e-25
-7.574920637e-25
-7.41024489e-25
-9.698395402e-25
-1.219030223e-24
-1.432474467e-24
-1.595320127e-24
)


101
(
4.064813759e-49
6.504659453e-43
1.726702635e-40
2.631145951e-39
1.299949161e-38
1.636327684e-38
-1.439717599e-37
-1.119698249e-36
-5.091328502e-36
-1.822338248e-35
-5.628813375e-35
-1.569158658e-34
-4.059518844e-34
-9.896221677e-34
-2.304804536e-33
-5.184672575e-33
-1.134379596e-32
-2.423907537e-32
-5.080706257e-32
-1.046157957e-31
-2.117265092e-31
-4.215393819e-31
-8.254918129e-31
-1.588283021e-30
-2.998804083e-30
-5.550868247e-30
-1.006514116e-29
-1.786534284e-29
-3.102190688e-29
-5.267615059e-29
-8.744871226e-29
-1.419256688e-28
-2.251904088e-28
-3.495594281e-28
-5.310166293e-28
-7.900204872e-28
-1.151985645e-27
-1.647643508e-27
-2.313805253e-27
-3.194003408e-27
-4.338267814e-27
-5.802635142e-27
-7.653193048e-27
-9.961900308e-27
-1.280549678e-26
-1.626876589e-26
-2.043547571e-26
-2.539620509e-26
-3.123918363e-26
-3.806125347e-26
-4.595729797e-26
-5.502817636e-26
-6.536942745e-26
-7.707416668e-26
-9.022894873e-26
-1.049170577e-25
-1.212289185e-25
-1.39205192e-25
-1.589279019e-25
-1.804133612e-25
-2.036901041e-25
-2.287557573e-25
-2.556139209e-25
-2.842233983e-25
-3.145522934e-25
-3.465542688e-25
-3.8013173e-25
-4.15176876e-25
-4.515045369e-25
-4.889177953e-25
-5.272536403e-25
-5.662698084e-25
-6.058309104e-25
-6.457096933e-25
-6.856847677e-25
-7.254599758e-25
-7.645323464e-25
-8.027630084e-25
-8.397169805e-25
-8.752486033e-25
-9.090096095e-25
-9.405061311e-25
-9.69575857e-25
-9.959546042e-25
-1.019087098e-24
-1.038642133e-24
-1.054196548e-24
-1.066001752e-24
-1.073263024e-24
-1.076494551e-24
-1.075938808e-24
-1.0706572e-24
-1.061864206e-24
-1.049150454e-24
-1.034335356e-24
-1.01900677e-24
-1.003898421e-24
-1.230905731e-24
-1.440348744e-24
-1.570006017e-24
-1.609877713e-24
)


101
(
4.06491258e-49
5.106462463e-43
1.649795259e-40
2.618022236e-39
1.362829406e-38
2.199035354e-38
-1.182265574e-37
-1.037265652e-36
-4.886636384e-36
-1.783831335e-35
-5.583730345e-35
-1.571525349e-34
-4.093977115e-34
-1.002777048e-33
-2.341112941e-33
-5.267808992e-33
-1.150932861e-32
-2.452584694e-32
-5.122153459e-32
-1.05043528e-31
-2.117606279e-31
-4.200979031e-31
-8.202614571e-31
-1.575511155e-30
-2.973773097e-30
-5.510501616e-30
-1.001610747e-29
-1.784381475e-29
-3.113368933e-29
-5.317520686e-29
-8.887350342e-29
-1.453248345e-28
-2.324800989e-28
-3.638960065e-28
-5.575478763e-28
-8.366493783e-28
-1.230422786e-27
-1.774677644e-27
-2.512539766e-27
-3.495123361e-27
-4.781576528e-27
-6.438933808e-27
-8.545403869e-27
-1.118777248e-26
-1.446034214e-26
-1.846704098e-26
-2.331294563e-26
-2.910925089e-26
-3.596549916e-26
-4.399761949e-26
-5.332029385e-26
-6.405684631e-26
-7.63272138e-26
-9.024477582e-26
-1.059180129e-25
-1.234493523e-25
-1.429419084e-25
-1.644543526e-25
-1.880859834e-25
-2.138673989e-25
-2.418294271e-25
-2.719610044e-25
-3.04259281e-25
-3.386743365e-25
-3.75179876e-25
-4.13672772e-25
-4.540812916e-25
-4.962735811e-25
-5.400456312e-25
-5.85154905e-25
-6.313451618e-25
-6.783370568e-25
-7.259123786e-25
-7.73812046e-25
-8.218183978e-25
-8.696609553e-25
-9.167992302e-25
-9.627512991e-25
-1.007149861e-24
-1.049860749e-24
-1.09045784e-24
-1.128499024e-24
-1.163819869e-24
-1.195874648e-24
-1.224418655e-24
-1.249020639e-24
-1.269030964e-24
-1.284806498e-24
-1.295866869e-24
-1.302171633e-24
-1.304574359e-24
-1.301883509e-24
-1.295218548e-24
-1.284763279e-24
-1.271713063e-24
-1.257963525e-24
-1.243148921e-24
-1.419046761e-24
-1.528200449e-24
-1.527850428e-24
-1.402662204e-24
)


101
(
4.065014429e-49
3.849256176e-43
1.573693876e-40
2.600411113e-39
1.422255081e-38
2.7602116e-38
-9.152711626e-38
-9.480071221e-37
-4.650446796e-36
-1.733691614e-35
-5.501610252e-35
-1.563227703e-34
-4.099702733e-34
-1.008600627e-33
-2.359435602e-33
-5.307556756e-33
-1.157088868e-32
-2.456555376e-32
-5.105550299e-32
-1.041265265e-31
-2.087431077e-31
-4.11886887e-31
-8.00300276e-31
-1.531355907e-30
-2.883661054e-30
-5.339185446e-30
-9.71169683e-30
-1.733931337e-29
-3.035911192e-29
-5.209511369e-29
-8.756852596e-29
-1.441504525e-28
-2.323485349e-28
-3.665610675e-28
-5.662685592e-28
-8.568564013e-28
-1.270704432e-27
-1.848040458e-27
-2.637660845e-27
-3.697635334e-27
-5.095634027e-27
-6.909032701e-27
-9.227146172e-27
-1.21504418e-26
-1.578978811e-26
-2.026741349e-26
-2.57099011e-26
-3.224971157e-26
-4.001829403e-26
-4.915002739e-26
-5.977752293e-26
-7.204205151e-26
-8.608543979e-26
-1.020403587e-25
-1.200345392e-25
-1.401884274e-25
-1.626094912e-25
-1.873716611e-25
-2.145774966e-25
-2.442735369e-25
-2.764847486e-25
-3.111939687e-25
-3.48360514e-25
-3.879326479e-25
-4.298673067e-25
-4.739870913e-25
-5.202396374e-25
-5.684467888e-25
-6.183965142e-25
-6.697505883e-25
-7.222106249e-25
-7.754542977e-25
-8.291043672e-25
-8.828830438e-25
-9.365361782e-25
-9.897545419e-25
-1.042047029e-24
-1.092851186e-24
-1.141614265e-24
-1.188038617e-24
-1.231787681e-24
-1.272765185e-24
-1.31044026e-24
-1.344342352e-24
-1.374447142e-24
-1.400331692e-24
-1.421273698e-24
-1.437444247e-24
-1.449097299e-24
-1.455687218e-24
-1.458068246e-24
-1.456196565e-24
-1.449767655e-24
-1.440173342e-24
-1.428281037e-24
-1.414275907e-24
-1.39597038e-24
-1.470076369e-24
-1.431261671e-24
-1.281891282e-24
-9.804328894e-25
)


101
(
4.065119306e-49
2.727541577e-43
1.498525535e-40
2.578415617e-39
1.478024757e-38
3.317481605e-38
-6.398866095e-38
-8.522553739e-37
-4.383368957e-36
-1.671892644e-35
-5.381678002e-35
-1.543902075e-34