/*--------------------------------*- C++ -*----------------------------------*\
| =========                 |                                                 |
| \\      /  F ield         | OpenFOAM: The Open Source CFD Toolbox           |
|  \\    /   O peration     | Version:  2.3.1                                 |
|   \\  /    A nd           | Web:      www.OpenFOAM.org                      |
|    \\/     M anipulation  |                                                 |
\*---------------------------------------------------------------------------*/
FoamFile
{
    version     2.0;
    format      ascii;
    class       dictionary;
    location    "constant";
    object      DPSI51;
}
// * * * * * * * * * * * * * * * * * * * * * * * * * * * * * * * * * * * * * //

DPSI51_table
101
(

101
(
9.634494149e-28
2.232317952e-17
4.927301113e-16
3.880032488e-15
1.894404581e-14
6.654541951e-14
1.81771395e-13
4.320999318e-13
8.922177749e-13
1.671589107e-12
2.888758579e-12
4.694645862e-12
7.183087525e-12
1.063597665e-11
1.500623166e-11
2.035989054e-11
2.67595096e-11
3.418098556e-11
4.168391647e-11
5.025404068e-11
5.798876995e-11
6.505796807e-11
7.139285035e-11
7.590553364e-11
7.835630667e-11
7.856337169e-11
7.637744392e-11
7.182121055e-11
6.477936006e-11
5.570115795e-11
4.483144059e-11
3.294024313e-11
2.146950487e-11
6.607001216e-12
-5.431845983e-12
-1.543647611e-11
-1.109730728e-11
-7.22430029e-12
-4.515128078e-11
-6.35699176e-11
-7.501962068e-11
-8.278540958e-11
-8.965795421e-11
-9.531713182e-11
-9.981484878e-11
-1.034450857e-10
-1.059586601e-10
-1.073622365e-10
-1.078128026e-10
-1.07200605e-10
-1.058297058e-10
-1.036937845e-10
-1.008323547e-10
-9.733279241e-11
-9.34236645e-11
-8.92325361e-11
-8.427568688e-11
-7.975036211e-11
-7.462800975e-11
-6.971252327e-11
-6.456748431e-11
-5.949206211e-11
-5.456300998e-11
-4.96197668e-11
-4.480777768e-11
-4.026441623e-11
-3.594740115e-11
-3.184619519e-11
-2.787729878e-11
-2.427882406e-11
-2.092431201e-11
-1.787285981e-11
-1.499836497e-11
-1.239332328e-11
-9.267056299e-12
-7.282012023e-12
-6.219304382e-12
-5.052146217e-12
-3.97053914e-12
-3.038643788e-12
-2.270552342e-12
-1.623305484e-12
-1.135175185e-12
-6.894163125e-13
-4.313131925e-13
-2.859360869e-13
-1.776012327e-13
-1.002081487e-13
-5.227948938e-14
-2.293387464e-14
-9.34368175e-15
-3.563959426e-15
-1.310100237e-15
-3.174993897e-16
-9.3761876e-17
-2.701003415e-17
-3.069356597e-18
-5.581165197e-18
-1.347695199e-17
-6.728231765e-17
-1.160625416e-16
)


101
(
9.634735645e-28
2.026302372e-17
4.664913877e-16
3.728473212e-15
1.835888631e-14
6.479351938e-14
1.774618115e-13
4.225999716e-13
8.740640453e-13
1.639589976e-12
2.836818726e-12
4.614954487e-12
7.070681582e-12
1.047630641e-11
1.480569946e-11
2.01201006e-11
2.648340525e-11
3.388008508e-11
4.144859999e-11
5.000324139e-11
5.790400148e-11
6.512477755e-11
7.15936433e-11
7.633174381e-11
7.899796499e-11
7.937737204e-11
7.730179898e-11
7.275755339e-11
6.563453549e-11
5.629217392e-11
4.498378957e-11
3.239138353e-11
1.98472823e-11
4.415265092e-12
-9.130570284e-12
-2.065065061e-11
-2.033205164e-11
-1.802812067e-11
-4.915187656e-11
-7.100806804e-11
-8.58552417e-11
-9.604986153e-11
-1.044046183e-10
-1.112838532e-10
-1.168445963e-10
-1.214038591e-10
-1.248189788e-10
-1.270328143e-10
-1.281567377e-10
-1.281188655e-10
-1.271463581e-10
-1.252835433e-10
-1.226028342e-10
-1.192220896e-10
-1.152752336e-10
-1.108666395e-10
-1.05664392e-10
-1.005454391e-10
-9.492857369e-11
-8.930785452e-11
-8.347838644e-11
-7.761434272e-11
-7.181196565e-11
-6.601832051e-11
-6.033426927e-11
-5.483964724e-11
-4.953909477e-11
-4.445109615e-11
-3.953905771e-11
-3.493266659e-11
-3.060535813e-11
-2.658857779e-11
-2.284180021e-11
-1.939328661e-11
-1.565525255e-11
-1.270986968e-11
-1.063617621e-11
-8.765275154e-12
-7.100786063e-12
-5.638034613e-12
-4.387110279e-12
-3.322879692e-12
-2.466541588e-12
-1.729669941e-12
-1.19357128e-12
-8.150597712e-13
-5.45775588e-13
-3.526534594e-13
-2.155992763e-13
-1.246145704e-13
-6.824950388e-14
-3.375823373e-14
-1.703703953e-14
-7.475841451e-15
-3.161307863e-15
-1.365399084e-15
-2.725222663e-16
-6.852014496e-16
-1.444887174e-15
-4.844057989e-15
-8.403976039e-15
)


101
(
9.634977161e-28
1.630458447e-17
4.149520973e-16
3.424782744e-15
1.71591352e-14
6.110990508e-14
1.681616123e-13
4.015339734e-13
8.325333509e-13
1.564034203e-12
2.709789205e-12
4.412724453e-12
6.771810328e-12
1.003555503e-11
1.421342674e-11
1.935602053e-11
2.55243665e-11
3.271490643e-11
4.022706857e-11
4.855390102e-11
5.653915736e-11
6.385185677e-11
7.038064344e-11
7.536780677e-11
7.833262931e-11
7.8993801e-11
7.715275357e-11
7.273742695e-11
6.564701187e-11
5.608571527e-11
4.429863424e-11
3.079012663e-11
1.662644082e-11
3.883984156e-13
-1.552340212e-11
-2.93814946e-11
-3.628055328e-11
-3.80080271e-11
-5.748051222e-11
-8.194698633e-11
-1.021720633e-10
-1.172124096e-10
-1.287969085e-10
-1.381219456e-10
-1.457584503e-10
-1.521412235e-10
-1.573196272e-10
-1.612345784e-10
-1.638454671e-10
-1.651640914e-10
-1.652541469e-10
-1.642400552e-10
-1.622180694e-10
-1.59324532e-10
-1.55634604e-10
-1.51247708e-10
-1.460038556e-10
-1.40262476e-10
-1.340721493e-10
-1.275302416e-10
-1.20736425e-10
-1.137396118e-10
-1.066397818e-10
-9.949735052e-11
-9.236322795e-11
-8.526690683e-11
-7.829482801e-11
-7.147035557e-11
-6.486694784e-11
-5.848190338e-11
-5.236698919e-11
-4.655091339e-11
-4.108695617e-11
-3.597347398e-11
-3.096879578e-11
-2.627151641e-11
-2.219604592e-11
-1.867419248e-11
-1.559637018e-11
-1.288364119e-11
-1.049356428e-11
-8.401836765e-12
-6.613959983e-12
-5.092999545e-12
-3.828183433e-12
-2.808931649e-12
-2.014917186e-12
-1.429274607e-12
-9.8418495e-13
-6.48265068e-13
-4.10752492e-13
-2.500715969e-13
-1.508353437e-13
-8.479623549e-14
-4.63053713e-14
-2.398139367e-14
-5.247501737e-15
-1.954793951e-14
-4.043221868e-14
-1.045729812e-13
-1.834857015e-13
)


101
(
9.635218674e-28
1.269765487e-17
3.667218261e-16
3.137244231e-15
1.601550246e-14
5.758400845e-14
1.59237825e-13
3.812897701e-13
7.925453595e-13
1.49125458e-12
2.587334172e-12
4.217773773e-12
6.483140775e-12
9.611205629e-12
1.36400871e-11
1.861600142e-11
2.459699152e-11
3.158958956e-11
3.902872712e-11
4.717695793e-11
5.52085036e-11
6.264209152e-11
6.928582327e-11
7.453455347e-11
7.785059791e-11
7.887972346e-11
7.73811133e-11
7.322896291e-11
6.631092622e-11
5.672360428e-11
4.467682507e-11
3.0531686e-11
1.512045272e-11
-2.143943871e-12
-2.008567588e-11
-3.682697777e-11
-4.832178384e-11
-5.470014886e-11
-6.934444939e-11
-9.197261182e-11
-1.152675163e-10
-1.350979932e-10
-1.509295566e-10
-1.635784691e-10
-1.739161886e-10
-1.826140104e-10
-1.89926163e-10
-1.959292246e-10
-2.004941846e-10
-2.036532881e-10
-2.053630973e-10
-2.057363124e-10
-2.048600012e-10
-2.028677316e-10
-1.998565285e-10
-1.959153204e-10
-1.910835005e-10
-1.853922173e-10
-1.790410976e-10
-1.720573827e-10
-1.646205211e-10
-1.568306292e-10
-1.487703926e-10
-1.405170354e-10
-1.321156471e-10
-1.235826391e-10
-1.150592869e-10
-1.066014309e-10
-9.828361211e-11
-9.0148035e-11
-8.216893812e-11
-7.445373452e-11
-6.704005529e-11
-6.000986874e-11
-5.32655661e-11
-4.678501614e-11
-4.068894517e-11
-3.512371783e-11
-3.010628582e-11
-2.56191964e-11
-2.160926665e-11
-1.800873744e-11
-1.481759477e-11
-1.20191365e-11
-9.586373364e-12
-7.505838129e-12
-5.747744827e-12
-4.333159957e-12
-3.238589148e-12
-2.352802202e-12
-1.655105062e-12
-1.127052634e-12
-7.459345345e-13
-4.87602331e-13
-3.115812541e-13
-1.850109568e-13
-6.670418624e-14
-2.014696075e-13
-3.707618979e-13
-7.306703636e-13
-1.124249015e-12
)


101
(
9.635461084e-28
9.426067985e-18
3.216806278e-16
2.865338058e-15
1.49262821e-14
5.421117551e-14
1.50679484e-13
3.618429994e-13
7.54053754e-13
1.421155635e-12
2.469283951e-12
4.029791625e-12
6.20421771e-12
9.202208477e-12
1.30846675e-11
1.789789443e-11
2.369752901e-11
3.049854204e-11
3.784940404e-11
4.585197362e-11
5.390390535e-11
6.146761127e-11
6.826660675e-11
7.379158243e-11
7.749283479e-11
7.895577813e-11
7.789054595e-11
7.411731431e-11
6.749848892e-11
5.804773624e-11
4.59149049e-11
3.139504431e-11
1.509290022e-11
-3.133035103e-12
-2.270970213e-11
-4.238790471e-11
-5.760565115e-11
-6.845551063e-11
-8.229147021e-11
-1.02770922e-10
-1.269762677e-10
-1.504398086e-10
-1.707485758e-10
-1.875380731e-10
-2.013326441e-10
-2.128993816e-10
-2.227712178e-10
-2.312321493e-10
-2.382253657e-10
-2.436968571e-10
-2.475619545e-10
-2.498588495e-10
-2.506722292e-10
-2.501505604e-10
-2.483831971e-10
-2.453883494e-10
-2.413765454e-10
-2.362799954e-10
-2.30312845e-10
-2.234374979e-10
-2.157998178e-10
-2.076221929e-10
-1.989419523e-10
-1.899076958e-10
-1.805893959e-10
-1.709701054e-10
-1.611501179e-10
-1.512495074e-10
-1.413025151e-10
-1.315017975e-10
-1.217339752e-10
-1.121076953e-10
-1.026582036e-10
-9.352822728e-11
-8.472084838e-11
-7.621353343e-11
-6.802983315e-11
-6.025489326e-11
-5.293370099e-11
-4.618184285e-11
-4.00174651e-11
-3.443096915e-11
-2.931556489e-11
-2.470557153e-11
-2.05589071e-11
-1.688785245e-11
-1.363179338e-11
-1.081979094e-11
-8.502854719e-12
-6.616229037e-12
-5.012452949e-12
-3.719461825e-12
-2.693086351e-12
-1.909188101e-12
-1.350335696e-12
-8.976135298e-13
-4.335384601e-13
-9.292899616e-13
-1.589625413e-12
-3.268825542e-12
-5.15327785e-12
)


101
(
9.635701718e-28
6.473964833e-18
2.797103054e-16
2.608552876e-15
1.388979993e-14
5.098685659e-14
1.424758529e-13
3.431701112e-13
7.170143508e-13
1.353648864e-12
2.355484169e-12
3.848499618e-12
5.934651048e-12
8.80767809e-12
1.254633059e-11
1.720007255e-11
2.282302011e-11
2.943730345e-11
3.668628118e-11
4.456376598e-11
5.261767306e-11
6.030868968e-11
6.728978675e-11
7.310551221e-11
7.721702567e-11
7.916453546e-11
7.860826195e-11
7.531745622e-11
6.912012171e-11
5.99600158e-11
4.791072156e-11
3.32233389e-11
1.632821481e-11
-2.680274178e-12
-2.347328518e-11
-4.504938419e-11
-6.416061415e-11
-7.931448688e-11
-9.447712444e-11
-1.140383575e-10
-1.381761276e-10
-1.639053958e-10
-1.881751282e-10
-2.094165798e-10
-2.273413082e-10
-2.42443166e-10
-2.553928885e-10
-2.667489742e-10
-2.766162251e-10
-2.848848266e-10
-2.914573168e-10
-2.962605813e-10
-2.993507338e-10
-3.008684257e-10
-3.009728483e-10
-2.996271376e-10
-2.969472824e-10
-2.929865732e-10
-2.879113738e-10
-2.817452532e-10
-2.745627731e-10
-2.665518388e-10
-2.577789879e-10
-2.483647689e-10
-2.384902727e-10
-2.281987849e-10
-2.174795848e-10
-2.064342802e-10
-1.951257989e-10
-1.837600248e-10
-1.724063504e-10
-1.610514176e-10
-1.497082523e-10
-1.38487e-10
-1.27485372e-10
-1.167516169e-10
-1.063541556e-10
-9.623207852e-11
-8.642988316e-11
-7.70994216e-11
-6.833099052e-11
-6.026391003e-11
-5.272838446e-11
-4.576392392e-11
-3.936219785e-11
-3.350632473e-11
-2.815132765e-11
-2.331915409e-11
-1.908680936e-11
-1.554971528e-11
-1.243618706e-11
-9.769682237e-12
-7.586174716e-12
-5.764949227e-12
-4.378546021e-12
-3.084668991e-12
-1.745357592e-12
-3.620383006e-12
-5.948427603e-12
-1.078664151e-11
-1.598474184e-11
)


101
(
9.635943204e-28
3.825719013e-18
2.406946895e-16
2.366387603e-15
1.290442435e-14
4.790663684e-14
1.346165381e-13
3.252484042e-13
6.813854412e-13
1.288653095e-12
2.245795456e-12
3.673660853e-12
5.674116691e-12
8.426918373e-12
1.202449772e-11
1.652148514e-11
2.197161529e-11
2.840312188e-11
3.553853086e-11
4.330281422e-11
5.134531147e-11
5.915466278e-11
6.63340949e-11
7.245460274e-11
7.699734461e-11
7.947269182e-11
7.949266753e-11
7.677794222e-11
7.111866716e-11
6.239819941e-11
5.062064411e-11
3.594906421e-11
1.871682224e-11
-8.768159836e-13
-2.264154934e-11
-4.581874624e-11
-6.804384619e-11
-8.727734395e-11
-1.05071689e-10
-1.25045943e-10
-1.490862512e-10
-1.760695603e-10
-2.034431437e-10
-2.289533175e-10
-2.514231326e-10
-2.707514798e-10
-2.874168148e-10
-3.021118208e-10
-3.152017893e-10
-3.266861936e-10
-3.364664395e-10
-3.443563715e-10
-3.503690941e-10
-3.545800584e-10
-3.571460821e-10
-3.581035797e-10
-3.575200742e-10
-3.553673649e-10
-3.517969298e-10
-3.469113091e-10
-3.408127032e-10
-3.335774405e-10
-3.253448238e-10
-3.161813479e-10
-3.062554059e-10
-2.957333195e-10
-2.845801964e-10
-2.729031418e-10
-2.607207754e-10
-2.481292189e-10
-2.354341962e-10
-2.225864159e-10
-2.096108823e-10
-1.965197706e-10
-1.834527641e-10
-1.704793273e-10
-1.577629695e-10
-1.452625098e-10
-1.329935112e-10
-1.209816527e-10
-1.09342637e-10
-9.831496283e-11
-8.795329022e-11
-7.812481557e-11
-6.894927035e-11
-6.035443863e-11
-5.231402252e-11
-4.481745422e-11
-3.800604778e-11
-3.200230324e-11
-2.673260086e-11
-2.190327444e-11
-1.779196393e-11
-1.429083656e-11
-1.135644493e-11
-8.589461305e-12
-5.552984198e-12
-1.070727122e-11
-1.687709114e-11
-2.830926015e-11
-4.035984068e-11
)


101
(
9.63618471e-28
1.465992189e-18
2.045194631e-16
2.138348935e-15
1.196855232e-14
4.496619638e-14
1.27091398e-13
3.080556602e-13
6.471265351e-13
1.226090211e-12
2.140084273e-12
3.50504673e-12
5.4223067e-12
8.059286739e-12
1.15186243e-11
1.586123534e-11
2.114171259e-11
2.739362481e-11
3.440540262e-11
4.206202176e-11
5.008211813e-11
5.799687419e-11
6.538193719e-11
7.181812911e-11
7.680850672e-11
7.98477292e-11
8.050394163e-11
7.844938513e-11
7.343509747e-11
6.529178219e-11
5.395545214e-11
3.950232762e-11
2.217307701e-11
2.213299039e-12
-2.026580448e-11
-4.471885716e-11
-6.942056781e-11
-9.229624442e-11
-1.133573344e-10
-1.349221042e-10
-1.593939945e-10
-1.872010242e-10
-2.1683661e-10
-2.460678431e-10
-2.731074727e-10
-2.971496731e-10
-3.182031385e-10
-3.368264224e-10
-3.535969023e-10
-3.687073495e-10
-3.820739704e-10
-3.93569479e-10
-4.031174167e-10
-4.106354654e-10
-4.162855481e-10
-4.202102622e-10
-4.224144068e-10
-4.228080286e-10
-4.21546577e-10
-4.186826856e-10
-4.143296042e-10
-4.08565988e-10
-4.014856802e-10
-3.932689705e-10
-3.839871989e-10
-3.738706887e-10
-3.629439717e-10
-3.512314221e-10
-3.387522874e-10
-3.254863499e-10
-3.118148945e-10
-2.97772594e-10
-2.835466633e-10
-2.690142709e-10
-2.542021395e-10
-2.392304711e-10
-2.242822494e-10
-2.094555636e-10
-1.94757049e-10
-1.800995439e-10
-1.656019947e-10
-1.514145412e-10
-1.379374387e-10
-1.249051621e-10
-1.125266156e-10
-1.006581369e-10
-8.948174581e-11
-7.871632874e-11
-6.868595547e-11
-5.944705012e-11
-5.11720502e-11
-4.339121961e-11
-3.656312652e-11
-3.058425398e-11
-2.527382291e-11
-2.03265492e-11
-1.4283293e-11
-2.537826097e-11
-3.847195677e-11
-6.182739562e-11
-8.721212977e-11
)


101
(
9.636428009e-28
-6.202666546e-19
1.710720549e-16
1.923953747e-15
1.108061222e-14
4.216131213e-14
1.198906311e-13
2.915707251e-13
6.14199221e-13
1.165887176e-12
2.038228916e-12
3.342451026e-12
5.178954064e-12
7.704227893e-12
1.102825038e-11
1.521866787e-11
2.033205632e-11
2.640688568e-11
3.32863337e-11
4.083616642e-11
4.882375775e-11
5.682818347e-11
6.441768686e-11
7.117419649e-11
7.662069177e-11
8.024777053e-11
8.1588707e-11
8.026919791e-11
7.600012531e-11
6.856594891e-11
5.784040015e-11
4.381358103e-11
2.66285003e-11
6.541536517e-12
-1.636983957e-11
-4.17410138e-11
-6.835153104e-11
-9.434182597e-11
-1.188401235e-10
-1.428678812e-10
-1.685305509e-10
-1.97173106e-10
-2.284542249e-10
-2.607204098e-10
-2.920191207e-10
-3.209455275e-10
-3.469155029e-10
-3.701353268e-10
-3.911339712e-10
-4.103034457e-10
-4.277072136e-10
-4.433355764e-10
-4.56983536e-10
-4.684737861e-10
-4.778990125e-10
-4.853762468e-10
-4.910158784e-10
-4.946353387e-10
-4.964513674e-10
-4.964628455e-10
-4.946942651e-10
-4.912518199e-10
-4.861521231e-10
-4.796085841e-10
-4.717144333e-10
-4.626711794e-10
-4.526430526e-10
-4.415313301e-10
-4.294179881e-10
-4.162246712e-10
-4.022310214e-10
-3.875957782e-10
-3.724892602e-10
-3.56946402e-10
-3.408956831e-10
-3.244141156e-10
-3.075496378e-10
-2.905882974e-10
-2.736540306e-10
-2.565398681e-10
-2.392897804e-10
-2.221213914e-10
-2.053673068e-10
-1.891080252e-10
-1.73226302e-10
-1.577299788e-10
-1.430630247e-10
-1.286245471e-10
-1.148158982e-10
-1.017681003e-10
-8.960488261e-11
-7.824451715e-11
-6.788180468e-11
-5.851796694e-11
-4.993930702e-11
-4.169626018e-11
-3.186183129e-11
-5.258098188e-11
-7.65916276e-11
-1.165447306e-10
-1.61944307e-10
)


101
(
9.636669511e-28
-2.447845418e-18
1.402417995e-16
1.722729295e-15
1.02390675e-14
3.948782923e-14
1.130046137e-13
2.757731332e-13
5.825661938e-13
1.107973567e-12
1.940113196e-12
3.18568515e-12
4.943825805e-12
7.361283762e-12
1.05530117e-11
1.459335223e-11
1.954180517e-11
2.544152211e-11
3.218122654e-11
3.962199711e-11
4.756729708e-11
5.564379808e-11
6.342796594e-11
7.050270515e-11
7.640588951e-11
8.06326414e-11
8.269400847e-11
8.217452788e-11
7.874384069e-11
7.214305453e-11
6.219304499e-11
4.880813194e-11
3.202869745e-11
1.207414409e-11
-1.098032264e-11
-3.691439484e-11
-6.491776187e-11
-9.34528192e-11
-1.212119237e-10
-1.481965025e-10
-1.757951608e-10
-2.055996807e-10
-2.382443742e-10
-2.729330009e-10
-3.079933391e-10
-3.416989993e-10
-3.728721112e-10
-4.01207428e-10
-4.269570536e-10
-4.506561004e-10
-4.725820173e-10
-4.928104262e-10
-5.111060136e-10
-5.272633927e-10
-5.410893956e-10
-5.527808045e-10
-5.625733065e-10
-5.701871135e-10
-5.758245948e-10
-5.794950257e-10
-5.811340395e-10
-5.808240771e-10
-5.786709034e-10
-5.746883021e-10
-5.689699434e-10
-5.616752056e-10
-5.532127858e-10
-5.434665746e-10
-5.325511158e-10
-5.203244655e-10
-5.06850034e-10
-4.923466911e-10
-4.769854079e-10
-4.609673338e-10
-4.442956084e-10
-4.268395094e-10
-4.0862645e-10
-3.900122985e-10
-3.711600063e-10
-3.519858523e-10
-3.323184981e-10
-3.124807799e-10
-2.925790893e-10
-2.731528597e-10
-2.538017803e-10
-2.345467387e-10
-2.160042903e-10
-1.977765171e-10
-1.79813981e-10
-1.62688678e-10
-1.460557024e-10
-1.305207032e-10
-1.158662163e-10
-1.023231345e-10
-8.971887584e-11
-7.697145199e-11
-6.229133221e-11
-9.777546334e-11
-1.376098626e-10
-1.96241834e-10
-2.572090974e-10
)


101
(
9.635953058e-28
-4.031265921e-18
1.119196971e-16
1.534209723e-15
9.442410314e-15
3.694167535e-14
1.064239132e-13
2.606429157e-13
5.521914538e-13
1.052282115e-12
1.845626097e-12
3.034570481e-12
4.71669977e-12
7.030049116e-12
1.00925829e-11
1.398495229e-11
1.877033999e-11
2.44965219e-11
3.109003476e-11
3.841742803e-11
4.631058275e-11
5.444071238e-11
6.240282413e-11
6.978747125e-11
7.614155686e-11
8.097105983e-11
8.377804461e-11
8.411259836e-11
8.160206369e-11
7.59446514e-11
6.691561205e-11
5.436862188e-11
3.824987894e-11
1.869700225e-11
-4.224279787e-12
-3.037773287e-11
-5.926496798e-11
-8.971060915e-11
-1.202994091e-10
-1.503669889e-10
-1.804964424e-10
-2.120242103e-10
-2.460881052e-10
-2.827676893e-10
-3.210067815e-10
-3.591227234e-10
-3.955024449e-10
-4.292680173e-10
-4.603009603e-10
-4.890563313e-10
-5.159186091e-10
-5.410932635e-10
-5.644718056e-10
-5.857868697e-10
-6.046854107e-10
-6.214385432e-10
-6.360168135e-10
-6.484024143e-10
-6.585580461e-10
-6.666501576e-10
-6.725641055e-10
-6.762328642e-10
-6.778484361e-10
-6.77330038e-10
-6.747841674e-10
-6.702372297e-10
-6.640681857e-10
-6.565051796e-10
-6.47579319e-10
-6.371109769e-10
-6.250666759e-10
-6.115439126e-10
-5.968282512e-10
-5.810882042e-10
-5.644333341e-10
-5.466849947e-10
-5.279077941e-10
-5.083558409e-10
-4.879915265e-10
-4.672172361e-10
-4.458092007e-10
-4.23703786e-10
-4.011621948e-10
-3.787306082e-10
-3.562046732e-10
-3.333278085e-10
-3.107603598e-10
-2.8882118e-10
-2.668066854e-10
-2.451865012e-10
-2.238882687e-10
-2.037274395e-10
-1.842823236e-10
-1.659755757e-10
-1.488770365e-10
-1.312570882e-10
-1.110332957e-10
-1.644166629e-10
-2.234922611e-10
-3.038532731e-10
-3.865256002e-10
)


101
(
9.632839464e-28
-5.384774969e-18
8.599862693e-17
1.357937037e-15
8.689159816e-15
3.451887365e-14
1.001393659e-13
2.461607462e-13
5.230408882e-13
9.987510261e-13
1.754666407e-12
2.888942027e-12
4.49736527e-12
6.710142917e-12
9.646643705e-12
1.33931825e-11
1.80171399e-11
2.357096059e-11
3.001258517e-11
3.722061441e-11
4.505154798e-11
5.321740501e-11
6.13383606e-11
6.902049133e-11
7.581941135e-11
8.125341837e-11
8.482315933e-11
8.605290851e-11
8.452961453e-11
7.991026791e-11
7.192682668e-11
6.037981947e-11
4.513673286e-11
2.62470236e-11
3.737375082e-12
-2.230424924e-11
-5.15911965e-11
-8.329649915e-11
-1.161376578e-10
-1.491166398e-10
-1.821013946e-10
-2.158987712e-10
-2.516723156e-10
-2.901332382e-10
-3.309690399e-10
-3.729043149e-10
-4.142294103e-10
-4.535766363e-10
-4.903308631e-10
-5.246529956e-10
-5.568938717e-10
-5.873775358e-10
-6.161729944e-10
-6.430579282e-10
-6.677119419e-10
-6.901164948e-10
-7.101745801e-10
-7.279344581e-10
-7.433407617e-10
-7.565444945e-10
-7.675111303e-10
-7.760551231e-10
-7.822863566e-10
-7.86151294e-10
-7.87729392e-10
-7.870981234e-10
-7.84209629e-10
-7.795952152e-10
-7.733968282e-10
-7.654777179e-10
-7.558123105e-10
-7.443123709e-10
-7.310523833e-10
-7.163616383e-10
-7.004694231e-10
-6.833608341e-10
-6.648612231e-10
-6.450865328e-10
-6.241268856e-10
-6.023180182e-10
-5.796797618e-10
-5.559766863e-10
-5.314215657e-10
-5.063621702e-10
-4.811386213e-10
-4.552984568e-10
-4.289018551e-10
-4.031962897e-10
-3.774572761e-10
-3.512556741e-10
-3.252693145e-10
-3.004575474e-10
-2.761739478e-10
-2.526463053e-10
-2.305996839e-10
-2.08161169e-10
-1.830271379e-10
-2.567890295e-10
-3.371438829e-10
-4.386760489e-10
-5.446119781e-10
)


101
(
9.630680154e-28
-6.522340479e-18
6.237310683e-17
1.193458869e-15
7.977849631e-15
3.221546666e-14
9.414178579e-14
2.323072925e-13
4.950805201e-13
9.473192321e-13
1.66713613e-12
2.74863916e-12
4.285619697e-12
6.401212116e-12
9.214892497e-12
1.281784253e-11
1.728181029e-11
2.266397504e-11
2.894857641e-11
3.603021624e-11
4.378872602e-11
5.197357793e-11
6.023435243e-11
6.819742613e-11
7.543200314e-11
8.146921714e-11
8.581085232e-11
8.796392114e-11
8.748023733e-11
8.397891614e-11
7.715031318e-11
6.67432249e-11
5.255708031e-11
3.457135417e-11
1.275317957e-11
-1.285248961e-11
-4.209802858e-11
-7.445246747e-11
-1.088864439e-10
-1.443497352e-10
-1.802007129e-10
-2.166381403e-10
-2.545063915e-10
-2.94771655e-10
-3.377590745e-10
-3.828360861e-10
-4.285816937e-10
-4.73369042e-10
-5.160709904e-10
-5.564019813e-10
-5.944597978e-10
-6.306355758e-10
-6.65195636e-10
-6.980114758e-10
-7.288167672e-10
-7.572766886e-10
-7.835238955e-10
-8.073056325e-10
-8.287410327e-10
-8.477271812e-10
-8.644456319e-10
-8.786068157e-10
-8.902719506e-10
-8.994191495e-10
-9.060691682e-10
-9.102570665e-10
-9.118073106e-10
-9.11092343e-10
-9.083523927e-10
-9.037875941e-10
-8.972938891e-10
-8.887735162e-10
-8.779785798e-10
-8.652370308e-10
-8.508785983e-10
-8.350979629e-10
-8.177036371e-10
-7.98640722e-10
-7.779241224e-10
-7.5587197e-10
-7.325629668e-10
-7.080359283e-10
-6.820780431e-10
-6.549449866e-10
-6.275292291e-10
-5.994370497e-10
-5.698426205e-10
-5.404183769e-10
-5.110519947e-10
-4.810741803e-10
-4.504766974e-10
-4.210255859e-10
-3.920492428e-10
-3.635435383e-10
-3.362285681e-10
-3.090329206e-10
-2.797934891e-10
-3.753997297e-10
-4.771175319e-10
-5.928484841e-10
-7.112325279e-10
)


101
(
9.63092509e-28
-7.457670871e-18
4.093910986e-17
1.040330388e-15
7.307042719e-15
3.002759339e-14
8.842221267e-14
2.190637091e-13
4.682777807e-13
8.979286063e-13
1.582942244e-12
2.613511948e-12
4.081268521e-12
6.102932031e-12
8.797044224e-12
1.225877634e-11
1.656413122e-11
2.177505248e-11
2.789791542e-11
3.484540747e-11
4.252060539e-11
5.070768999e-11
5.908815394e-11
6.731074393e-11
7.496252878e-11
8.159110957e-11
8.670473638e-11
8.980129632e-11
9.04034629e-11
8.809257953e-11
8.251786277e-11
7.338307578e-11
6.04301857e-11
4.357521487e-11
2.272141954e-11
-2.134781948e-12
-3.094242589e-11
-6.340404388e-11
-9.877617429e-11
-1.361054817e-10
-1.745169528e-10
-2.137025548e-10
-2.54009449e-10
-2.962928533e-10
-3.412444666e-10
-3.888793149e-10
-4.383313886e-10
-4.880525019e-10
-5.365920524e-10
-5.831311145e-10
-6.273828582e-10
-6.696359072e-10
-7.102874536e-10
-7.493090154e-10
-7.865282612e-10
-8.215546776e-10
-8.544468578e-10
-8.849164448e-10
-9.129317285e-10
-9.383926897e-10
-9.615099201e-10
-9.819816263e-10
-9.997328112e-10
-1.014915567e-09
-1.027536501e-09
-1.037297861e-09
-1.044276964e-09
-1.048415043e-09
-1.05010372e-09
-1.049661556e-09
-1.047008225e-09
-1.042180997e-09
-1.034846474e-09
-1.025051918e-09
-1.01304585e-09
-9.991320026e-10
-9.835484813e-10
-9.65991491e-10
-9.462579558e-10
-9.247694021e-10
-9.014410664e-10
-8.766079125e-10
-8.500207009e-10
-8.215935967e-10
-7.921365457e-10
-7.621525874e-10
-7.304302472e-10
-6.977451241e-10
-6.649102883e-10
-6.318043734e-10
-5.970485781e-10
-5.63313404e-10
-5.292951016e-10
-4.963414226e-10
-4.639626939e-10
-4.325235782e-10
-3.993857019e-10
-5.122057015e-10
-6.299919759e-10
-7.519681118e-10
-8.815867733e-10
)


101
(
9.631169981e-28
-8.204195368e-18
2.159411042e-17
8.981132557e-16
6.675316763e-15
2.795142445e-14
8.297178991e-14
2.064112666e-13
4.426005607e-13
8.505230937e-13
1.501992034e-12
2.483415922e-12
3.884120216e-12
5.814976886e-12
8.39277886e-12
1.171576476e-11
1.586400401e-11
2.090409892e-11
2.686129481e-11
3.366722395e-11
4.124752785e-11
4.941882461e-11
5.789551851e-11
6.63522778e-11
7.439669503e-11
8.159525306e-11
8.747024015e-11
9.152038812e-11
9.324714245e-11
9.219253459e-11
8.796003184e-11
8.021672725e-11
6.866756513e-11
5.316112884e-11
3.353264612e-11
9.723846146e-12
-1.828715795e-11
-5.037352735e-11
-8.605339193e-11
-1.24539916e-10
-1.649676348e-10
-2.066945937e-10
-2.495761478e-10
-2.941272385e-10
-3.410996379e-10
-3.909346356e-10
-4.433772996e-10
-4.97309845e-10
-5.512047201e-10
-6.038026981e-10
-6.544719202e-10
-7.031579061e-10
-7.501459778e-10
-7.955995743e-10
-8.394737423e-10
-8.814072724e-10
-9.212423106e-10
-9.588322166e-10
-9.938908978e-10
-1.026378092e-09
-1.056336918e-09
-1.083716631e-09
-1.108224287e-09
-1.130084499e-09
-1.14921284e-09
-1.165296121e-09
-1.178432454e-09
-1.188355775e-09
-1.195475423e-09
-1.199828662e-09
-1.201637636e-09
-1.20102705e-09
-1.197775138e-09
-1.191807063e-09
-1.183049183e-09
-1.171648378e-09
-1.158179845e-09
-1.142469074e-09
-1.124547033e-09
-1.1041461e-09
-1.081389516e-09
-1.056660392e-09
-1.029881748e-09
-1.000875584e-09
-9.699491038e-10
-9.380977191e-10
-9.047387092e-10
-8.695418323e-10
-8.334407762e-10
-7.972585664e-10
-7.588594109e-10
-7.212755506e-10
-6.826248422e-10
-6.451569255e-10
-6.084148775e-10
-5.728899939e-10
-5.356432872e-10
-6.588777391e-10
-7.842853191e-10
-9.009661794e-10
-1.015522469e-09
)


101
(
9.631404128e-28
-8.775047824e-18
4.23723904e-18
7.663751147e-16
6.081272068e-15
2.598318216e-14
7.778176004e-14
1.94331368e-13
4.180169051e-13
8.050478862e-13
1.424194756e-12
2.358211646e-12
3.693992093e-12
5.537038324e-12
8.001772069e-12
1.118857571e-11
1.518135702e-11
2.005121385e-11
2.583954164e-11
3.249753904e-11
3.997111405e-11
4.810771723e-11
5.665429816e-11
6.53163432e-11
7.372427702e-11
8.146426151e-11
8.807994657e-11
9.307965399e-11
9.595269299e-11
9.620711063e-11
9.340021039e-11
8.715991597e-11
7.716336966e-11
6.320507579e-11
4.504940825e-11
2.257390445e-11
-4.30479427e-12
-3.557792498e-11
-7.097440319e-11
-1.099144159e-10
-1.516450085e-10
-1.954089105e-10
-2.407139901e-10
-2.876470505e-10
-3.367623135e-10
-3.886527936e-10
-4.435564296e-10
-5.009362456e-10
-5.594489916e-10
-6.176792824e-10
-6.746830757e-10
-7.299516001e-10
-7.834580112e-10
-8.35517787e-10
-8.861248925e-10
-9.349976376e-10
-9.819838125e-10
-1.026888755e-09
-1.069357997e-09
-1.109221486e-09
-1.146450169e-09
-1.181103863e-09
-1.212935708e-09
-1.241951729e-09
-1.267916914e-09
-1.290943666e-09
-1.310713559e-09
-1.327105973e-09
-1.340177616e-09
-1.349981345e-09
-1.356891435e-09
-1.360894833e-09
-1.362059203e-09
-1.360314482e-09
-1.355415707e-09
-1.347199922e-09
-1.335945653e-09
-1.32240817e-09
-1.306333732e-09
-1.287389805e-09
-1.265747394e-09
-1.241400992e-09
-1.214406205e-09
-1.185089045e-09
-1.153167895e-09
-1.119616985e-09
-1.084429552e-09
-1.047244755e-09
-1.008093443e-09
-9.686052189e-10
-9.270917909e-10
-8.85487425e-10
-8.432440644e-10
-8.011780312e-10
-7.604719633e-10
-7.212290122e-10
-6.813676123e-10
-8.053416444e-10
-9.271676464e-10
-1.026570788e-09
-1.114676536e-09
)


101
(
9.631645448e-28
-9.183162273e-18
-1.122251291e-17
6.446913685e-16
5.523550261e-15
2.411924692e-14
7.284374382e-14
1.828062686e-13
3.944963689e-13
7.614519659e-13
1.349468693e-12
2.237770933e-12
3.510717319e-12
5.268850133e-12
7.623753148e-12
1.067708067e-11
1.451616419e-11
1.921644154e-11
2.483296903e-11
3.133678285e-11
3.869154456e-11
4.677447791e-11
5.536423848e-11
6.420056607e-11
7.294050457e-11
8.119049348e-11
8.851839301e-11
9.444897954e-11
9.84694801e-11
1.000657165e-10
9.875892001e-11
9.413252371e-11
8.582390635e-11
7.35923463e-11
5.713860761e-11
3.626740412e-11
1.083664927e-11
-1.922230285e-11
-5.378936568e-11
-9.249303105e-11
-1.34743926e-10
-1.798601277e-10
-2.2713885e-10
-2.763027196e-10
-3.275812888e-10
-3.814906043e-10
-4.38530037e-10
-4.986439904e-10
-5.60949859e-10
-6.241331419e-10
-6.870089584e-10
-7.487034902e-10
-8.088042048e-10
-8.675162697e-10
-9.248700013e-10
-9.806451607e-10
-1.034772833e-09
-1.086973669e-09
-1.136957099e-09
-1.184386749e-09
-1.229197911e-09
-1.271307852e-09
-1.310702371e-09
-1.347074346e-09
-1.380187141e-09
-1.410346351e-09
-1.436998394e-09
-1.460086812e-09
-1.479437486e-09
-1.495218134e-09
-1.50759095e-09
-1.516428377e-09
-1.522103731e-09
-1.524496321e-09
-1.523458398e-09
-1.518791857e-09
-1.510279375e-09
-1.498716482e-09
-1.484126578e-09
-1.466635003e-09
-1.446092969e-09
-1.421989752e-09
-1.394864792e-09
-1.364951237e-09
-1.331875568e-09
-1.296564228e-09
-1.259236286e-09
-1.219890071e-09
-1.177930927e-09
-1.135004689e-09
-1.090633012e-09
-1.044856668e-09
-9.991214772e-10
-9.529406592e-10
-9.080990012e-10
-8.657695705e-10
-8.24206537e-10
-9.371149857e-10
-1.042566138e-09
-1.115827555e-09
-1.175920926e-09
)


101
(
9.631893943e-28
-9.441175796e-18
-2.489109901e-17
5.326430346e-16
5.000804539e-15
2.235601726e-14
6.814936461e-14
1.718181216e-13
3.720074994e-13
7.196835146e-13
1.277732871e-12
2.121964058e-12
3.334125819e-12
5.010157854e-12
7.258476747e-12
1.018122952e-11
1.386858382e-11
1.839999974e-11
2.384196959e-11
3.018431225e-11
3.740795451e-11
4.54182132e-11
5.402580559e-11
6.30040129e-11
7.204186825e-11
8.07677077e-11
8.877283597e-11
9.560376976e-11
1.007562826e-10
1.037082423e-10
1.039567741e-10
1.010406777e-10
9.454521264e-11
8.420064981e-11
6.966113758e-11
5.066252084e-11