/*--------------------------------*- C++ -*----------------------------------*\
| =========                 |                                                 |
| \\      /  F ield         | OpenFOAM: The Open Source CFD Toolbox           |
|  \\    /   O peration     | Version:  2.3.1                                 |
|   \\  /    A nd           | Web:      www.OpenFOAM.org                      |
|    \\/     M anipulation  |                                                 |
\*---------------------------------------------------------------------------*/
FoamFile
{
    version     2.0;
    format      ascii;
    class       dictionary;
    location    "constant";
    object      DPSI34;
}
// * * * * * * * * * * * * * * * * * * * * * * * * * * * * * * * * * * * * * //

DPSI34_table
101
(

101
(
1.460631464e-13
3.691132841e-11
1.048879355e-10
1.642391022e-10
2.09865142e-10
2.425491747e-10
2.603704614e-10
2.610490932e-10
2.439870682e-10
2.098497031e-10
1.551360126e-10
8.252074629e-11
-6.081843798e-12
-1.145246263e-10
-2.306455737e-10
-3.498622283e-10
-4.665197384e-10
-5.717759813e-10
-6.518625384e-10
-7.116718077e-10
-7.422994473e-10
-7.499165692e-10
-7.32007137e-10
-6.981514401e-10
-6.53583863e-10
-6.018827016e-10
-5.471161449e-10
-4.925209176e-10
-4.385935765e-10
-3.889741733e-10
-3.436149102e-10
-3.037632111e-10
-2.70707353e-10
-2.318089506e-10
-2.026885823e-10
-1.765015647e-10
-1.322999881e-10
-9.033472994e-11
-1.096348885e-10
-1.030109893e-10
-9.154909982e-11
-8.184383221e-11
-7.221302482e-11
-6.417625049e-11
-5.782942707e-11
-5.185042098e-11
-4.687785234e-11
-4.210927607e-11
-3.806954329e-11
-3.429590574e-11
-3.105408243e-11
-2.811317739e-11
-2.5453509e-11
-2.297942429e-11
-2.07460111e-11
-1.878357231e-11
-1.682202373e-11
-1.527868719e-11
-1.373442893e-11
-1.241428264e-11
-1.115738984e-11
-1.001398381e-11
-8.988814288e-12
-8.002274816e-12
-7.073160137e-12
-6.277821882e-12
-5.540182451e-12
-4.852847228e-12
-4.208346138e-12
-3.639785667e-12
-3.120763733e-12
-2.662008409e-12
-2.240809472e-12
-1.853811032e-12
-1.350136366e-12
-1.049389614e-12
-9.218593513e-13
-7.671408137e-13
-6.206372486e-13
-4.929335163e-13
-3.84077679e-13
-2.888979552e-13
-2.140671346e-13
-1.367393858e-13
-9.514995907e-14
-7.275331056e-14
-5.32380035e-14
-3.689016981e-14
-2.47685739e-14
-1.402541566e-14
-9.618579506e-15
-6.723086754e-15
-4.200861711e-15
-2.543812461e-15
-1.600357425e-15
-1.02158855e-15
-3.303483676e-16
-3.57940882e-16
-4.076201974e-16
-6.516290819e-16
-9.177910186e-16
)


101
(
1.460668076e-13
3.688983939e-11
1.048597726e-10
1.643276079e-10
2.099831709e-10
2.424822305e-10
2.598809244e-10
2.598604521e-10
2.417124245e-10
2.060456696e-10
1.494777526e-10
7.447364718e-11
-1.700379196e-11
-1.284917334e-10
-2.487187125e-10
-3.725921027e-10
-4.944024056e-10
-6.054440739e-10
-6.921375758e-10
-7.577895669e-10
-7.943084573e-10
-8.064827371e-10
-7.927167707e-10
-7.611138754e-10
-7.173594266e-10
-6.654281784e-10
-6.094248566e-10
-5.527624011e-10
-4.964548681e-10
-4.437680133e-10
-3.95259111e-10
-3.52154333e-10
-3.157150746e-10
-2.758454153e-10
-2.431706069e-10
-2.140738748e-10
-1.718740133e-10
-1.28623808e-10
-1.344100605e-10
-1.287809576e-10
-1.177152838e-10
-1.066952274e-10
-9.572732835e-11
-8.607727925e-11
-7.805390422e-11
-7.0760504e-11
-6.449789929e-11
-5.864979428e-11
-5.350022892e-11
-4.873186943e-11
-4.449337891e-11
-4.063737739e-11
-3.713695596e-11
-3.392140133e-11
-3.096813847e-11
-2.827980589e-11
-2.565766548e-11
-2.339670733e-11
-2.124097002e-11
-1.930512704e-11
-1.749660692e-11
-1.582426483e-11
-1.428983511e-11
-1.284769518e-11
-1.149797381e-11
-1.027859335e-11
-9.145663921e-12
-8.091767714e-12
-7.112928989e-12
-6.216609273e-12
-5.395147468e-12
-4.650810354e-12
-3.980002325e-12
-3.368933383e-12
-2.701265472e-12
-2.181548186e-12
-1.829502209e-12
-1.514475795e-12
-1.238041542e-12
-9.982272626e-13
-7.931492988e-13
-6.16965059e-13
-4.726640437e-13
-3.422336945e-13
-2.47956665e-13
-1.81540887e-13
-1.328922181e-13
-9.568670592e-14
-6.676524329e-14
-4.440280977e-14
-3.000153441e-14
-1.994077941e-14
-1.353371508e-14
-8.825930485e-15
-5.904085034e-15
-3.843147237e-15
-1.531027822e-15
-2.16790847e-15
-2.984772776e-15
-4.978579172e-15
-7.076769547e-15
)


101
(
1.460704691e-13
3.681957971e-11
1.046543702e-10
1.641555511e-10
2.096229835e-10
2.414816515e-10
2.577797096e-10
2.561714178e-10
2.357838845e-10
1.971591895e-10
1.372119623e-10
5.805678482e-11
-3.823325225e-11
-1.545000928e-10
-2.812046446e-10
-4.12465951e-10
-5.424963994e-10
-6.629632776e-10
-7.609600336e-10
-8.368868227e-10
-8.841560962e-10
-9.051294716e-10
-8.996572555e-10
-8.73332939e-10
-8.322103812e-10
-7.809759595e-10
-7.238092297e-10
-6.643477216e-10
-6.045231858e-10
-5.469953081e-10
-4.932175035e-10
-4.445197035e-10
-4.020954408e-10
-3.605158536e-10
-3.225704888e-10
-2.87582405e-10
-2.488923381e-10
-2.053521512e-10
-1.883425936e-10
-1.800659737e-10
-1.691327787e-10
-1.564367137e-10
-1.433506887e-10
-1.308942733e-10
-1.197894444e-10
-1.09932084e-10
-1.011993258e-10
-9.328463913e-11
-8.604910121e-11
-7.938434843e-11
-7.323676481e-11
-6.75908551e-11
-6.241270504e-11
-5.766226981e-11
-5.325484075e-11
-4.915721871e-11
-4.523217018e-11
-4.15767316e-11
-3.81719722e-11
-3.499223594e-11
-3.203859165e-11
-2.927937441e-11
-2.670334892e-11
-2.429614396e-11
-2.203509112e-11
-1.990871294e-11
-1.792366841e-11
-1.606261482e-11
-1.434226492e-11
-1.273669007e-11
-1.124232398e-11
-9.857556407e-12
-8.597493527e-12
-7.450449454e-12
-6.360047122e-12
-5.356642687e-12
-4.49342269e-12
-3.75284484e-12
-3.114512632e-12
-2.564636169e-12
-2.091677648e-12
-1.683001696e-12
-1.336026535e-12
-1.040400043e-12
-7.940125746e-13
-5.957360061e-13
-4.415389205e-13
-3.279574469e-13
-2.394687656e-13
-1.696206847e-13
-1.179220439e-13
-8.111858065e-14
-5.684355921e-14
-3.881668684e-14
-2.667041163e-14
-1.742819637e-14
-6.926841787e-15
-1.285990504e-14
-2.037058944e-14
-3.798310157e-14
-5.811906472e-14
)


101
(
1.460741305e-13
3.674896432e-11
1.044521447e-10
1.639994317e-10
2.093133881e-10
2.405924397e-10
2.558768668e-10
2.528039647e-10
2.303398175e-10
1.889597455e-10
1.258203578e-10
4.274429125e-11
-5.815641907e-11
-1.791005519e-10
-3.120265519e-10
-4.506379975e-10
-5.890062083e-10
-7.191109459e-10
-8.286736709e-10
-9.158093557e-10
-9.746063182e-10
-1.00572304e-09
-1.009633471e-09
-9.902226682e-10
-9.53280931e-10
-9.039926652e-10
-8.467658404e-10
-7.854559544e-10
-7.226933128e-10
-6.609621025e-10
-6.021102162e-10
-5.478475434e-10
-4.993856998e-10
-4.545046906e-10
-4.127794441e-10
-3.740728727e-10
-3.331207653e-10
-2.891439017e-10
-2.589957961e-10
-2.416783602e-10
-2.278669859e-10
-2.136269146e-10
-1.987243054e-10
-1.838376529e-10
-1.698338208e-10
-1.571543628e-10
-1.457535799e-10
-1.354902058e-10
-1.260549693e-10
-1.173500138e-10
-1.092085102e-10
-1.01624509e-10
-9.457940731e-11
-8.806129585e-11
-8.199472676e-11
-7.630472129e-11
-7.093858397e-11
-6.582501871e-11
-6.101131886e-11
-5.643739762e-11
-5.21426853e-11
-4.811730047e-11
-4.433295569e-11
-4.077594046e-11
-3.74120091e-11
-3.41977715e-11
-3.116026781e-11
-2.829513642e-11
-2.561320433e-11
-2.310593391e-11
-2.072572242e-11
-1.849181856e-11
-1.640721597e-11
-1.448914858e-11
-1.270457556e-11
-1.103875047e-11
-9.501251191e-12
-8.118697192e-12
-6.885235177e-12
-5.798111538e-12
-4.848367994e-12
-4.012984468e-12
-3.285739298e-12
-2.657053569e-12
-2.11569797e-12
-1.657188178e-12
-1.272988791e-12
-9.690272454e-13
-7.368644817e-13
-5.484812693e-13
-3.981187552e-13
-2.835676031e-13
-1.998039323e-13
-1.420309537e-13
-1.005406111e-13
-6.714070499e-14
-3.078835677e-14
-6.536918007e-14
-1.074793774e-13
-1.993722983e-13
-2.949038509e-13
)


101
(
1.460778055e-13
3.667793538e-11
1.042529652e-10
1.638589152e-10
2.090535307e-10
2.398129304e-10
2.541689178e-10
2.497481166e-10
2.253615465e-10
1.814158462e-10
1.152550277e-10
2.845786166e-11
-7.687758223e-11
-2.024245863e-10
-3.413712885e-10
-4.872927857e-10
-6.341188684e-10
-7.740848899e-10
-8.95510461e-10
-9.947070797e-10
-1.065889442e-09
-1.108442846e-09
-1.122981924e-09
-1.112104629e-09
-1.081038094e-09
-1.035164356e-09
-9.791486117e-10
-9.171065274e-10
-8.522145977e-10
-7.870366984e-10
-7.237041744e-10
-6.639758913e-10
-6.094247425e-10
-5.600186439e-10
-5.143319198e-10
-4.730129239e-10
-4.285897462e-10
-3.829807144e-10
-3.447900508e-10
-3.177862828e-10
-2.981297019e-10
-2.80888791e-10
-2.639265583e-10
-2.468692571e-10
-2.301881448e-10
-2.145651941e-10
-2.002554293e-10
-1.873421273e-10
-1.755359782e-10
-1.64625588e-10
-1.543722572e-10
-1.447008287e-10
-1.356081276e-10
-1.271364926e-10
-1.19233466e-10
-1.117587813e-10
-1.047315796e-10
-9.800804537e-11
-9.164701673e-11
-8.553562606e-11
-7.969956053e-11
-7.420809699e-11
-6.899425526e-11
-6.407881458e-11
-5.943431493e-11
-5.497650214e-11
-5.069712384e-11
-4.661224965e-11
-4.271394052e-11
-3.907500989e-11
-3.559112854e-11
-3.227208038e-11
-2.910646089e-11
-2.613779694e-11
-2.335698682e-11
-2.074939156e-11
-1.830459396e-11
-1.602862117e-11
-1.391447643e-11
-1.199261275e-11
-1.026611449e-11
-8.733938779e-12
-7.352838241e-12
-6.134058605e-12
-5.054847162e-12
-4.113177329e-12
-3.28644751e-12
-2.587324498e-12
-2.022727467e-12
-1.57318329e-12
-1.192107523e-12
-8.886013315e-13
-6.525625367e-13
-4.729510816e-13
-3.465753516e-13
-2.398161089e-13
-1.254351768e-13
-2.490039733e-13
-4.181905185e-13
-9.182972165e-13
-1.452524522e-12
)


101
(
1.460814537e-13
3.660642567e-11
1.040566574e-10
1.637336231e-10
2.088425414e-10
2.391414339e-10
2.526527299e-10
2.469955106e-10
2.208332173e-10
1.745019458e-10
1.054802147e-10
1.513360174e-11
-9.44729869e-11
-2.245724645e-10
-3.693837516e-10
-5.225618942e-10
-6.779725722e-10
-8.280252344e-10
-9.615903167e-10
-1.073625493e-09
-1.158097057e-09
-1.213336447e-09
-1.239818083e-09
-1.239102837e-09
-1.215649219e-09
-1.174837347e-09
-1.121515568e-09
-1.060014191e-09
-9.939801535e-10
-9.262082493e-10
-8.591336104e-10
-7.944570152e-10
-7.340264436e-10
-6.793224113e-10
-6.288849537e-10
-5.828433887e-10
-5.366167961e-10
-4.889829519e-10
-4.450884604e-10
-4.098586021e-10
-3.829804583e-10
-3.609635155e-10
-3.410029504e-10
-3.215779817e-10
-3.023580707e-10
-2.838466894e-10
-2.664888911e-10
-2.506944408e-10
-2.363056419e-10
-2.23023885e-10
-2.105646828e-10
-1.987179821e-10
-1.874538371e-10
-1.768423216e-10
-1.669410918e-10
-1.575750361e-10
-1.48685743e-10
-1.401773471e-10
-1.320726901e-10
-1.242826346e-10
-1.167953789e-10
-1.096703297e-10
-1.028554282e-10
-9.635012609e-11
-9.019459046e-11
-8.432160144e-11
-7.863723891e-11
-7.313245287e-11
-6.779879916e-11
-6.272885456e-11
-5.791534714e-11
-5.329967254e-11
-4.883847314e-11
-4.455129553e-11
-4.046467103e-11
-3.659216204e-11
-3.294923181e-11
-2.947742612e-11
-2.616990337e-11
-2.30707033e-11
-2.020055123e-11
-1.760883401e-11
-1.521545669e-11
-1.304076594e-11
-1.108269135e-11
-9.316323705e-12
-7.719847312e-12
-6.300315718e-12
-5.088016916e-12
-4.096755141e-12
-3.234482048e-12
-2.504011372e-12
-1.928989968e-12
-1.456950561e-12
-1.106732681e-12
-7.781381614e-13
-4.413288877e-13
-9.989875241e-13
-1.724828647e-12
-3.644283735e-12
-5.626440647e-12
)


101
(
1.460851147e-13
3.653435279e-11
1.038630997e-10
1.636232634e-10
2.086790292e-10
2.385735187e-10
2.513180896e-10
2.445289107e-10
2.167391529e-10
1.682017893e-10
9.647600267e-11
2.749080352e-12
-1.109713498e-10
-2.455566223e-10
-3.9609368e-10
-5.564461183e-10
-7.205051761e-10
-8.808267556e-10
-1.02677987e-09
-1.152330743e-09
-1.25098353e-09
-1.320107932e-09
-1.35984922e-09
-1.370904494e-09
-1.356828925e-09
-1.32282225e-09
-1.273852345e-09
-1.214383813e-09
-1.148430816e-09
-1.07908613e-09
-1.009050111e-09
-9.40283048e-10
-8.745229996e-10
-8.143248441e-10
-7.588007383e-10
-7.079726326e-10
-6.588179081e-10
-6.090356761e-10
-5.609972577e-10
-5.189817185e-10
-4.847292978e-10
-4.566274597e-10
-4.324594492e-10
-4.100456832e-10
-3.882109773e-10
-3.66956606e-10
-3.465707719e-10
-3.276691592e-10
-3.103780306e-10
-2.944891396e-10
-2.796816669e-10
-2.655885042e-10
-2.521221276e-10
-2.392963192e-10
-2.272144967e-10
-2.158050539e-10
-2.049958059e-10
-1.945955851e-10
-1.846077564e-10
-1.749671111e-10
-1.656794369e-10
-1.567505997e-10
-1.481810869e-10
-1.399442123e-10
-1.320730252e-10
-1.245801998e-10
-1.173258548e-10
-1.102846878e-10
-1.033886615e-10
-9.66731055e-11
-9.027892565e-11
-8.412247263e-11
-7.816080199e-11
-7.233809671e-11
-6.669141756e-11
-6.124019717e-11
-5.606320281e-11
-5.110116479e-11
-4.632363262e-11
-4.171163855e-11
-3.730148973e-11
-3.319186325e-11
-2.938241483e-11
-2.579294144e-11
-2.250771111e-11
-1.947337231e-11
-1.66695682e-11
-1.406843735e-11
-1.176654625e-11
-9.76588038e-12
-8.035056138e-12
-6.45153939e-12
-5.162651769e-12
-4.084596538e-12
-3.198305064e-12
-2.378122502e-12
-1.481216981e-12
-3.429044739e-12
-5.895153373e-12
-1.199468265e-11
-1.823130406e-11
)


101
(
1.46088776e-13
3.646164082e-11
1.036721264e-10
1.635274999e-10
2.085613864e-10
2.381031313e-10
2.501484472e-10
2.423175119e-10
2.130553577e-10
1.624898307e-10
8.82107579e-11
-8.740853102e-12
-1.264314563e-10
-2.654307802e-10
-4.215677288e-10
-5.889957674e-10
-7.617021881e-10
-9.324109009e-10
-1.090949692e-09
-1.230584883e-09
-1.344270485e-09
-1.428432299e-09
-1.482695247e-09
-1.507096661e-09
-1.504193341e-09
-1.478809503e-09
-1.435978843e-09
-1.380247829e-09
-1.315864091e-09
-1.24620452e-09
-1.174271741e-09
-1.102318296e-09
-1.032047726e-09
-9.666276835e-10
-9.058380575e-10
-8.500417922e-10
-7.972060664e-10
-7.448525219e-10
-6.935305019e-10
-6.460854406e-10
-6.050144301e-10
-5.703478509e-10
-5.409220563e-10
-5.146270757e-10
-4.897775474e-10
-4.657915456e-10
-4.425152431e-10
-4.204903823e-10
-4.001131379e-10
-3.813733798e-10
-3.639364186e-10
-3.474862416e-10
-3.317977307e-10
-3.166853399e-10
-3.023135835e-10
-2.887546993e-10
-2.759051282e-10
-2.635328564e-10
-2.51654895e-10
-2.401253015e-10
-2.289335743e-10
-2.180950642e-10
-2.075802801e-10
-1.974759347e-10
-1.877567688e-10
-1.785054223e-10
-1.69606839e-10
-1.6093714e-10
-1.523930531e-10
-1.4390066e-10
-1.356927135e-10
-1.277334258e-10
-1.201025514e-10
-1.126258545e-10
-1.05236369e-10
-9.797767186e-11
-9.095642521e-11
-8.419936273e-11
-7.765895273e-11
-7.12256188e-11
-6.495357746e-11
-5.890214417e-11
-5.325845597e-11
-4.780069609e-11
-4.268130797e-11
-3.781675351e-11
-3.332576331e-11
-2.897710444e-11
-2.501330192e-11
-2.140526711e-11
-1.818172405e-11
-1.514956663e-11
-1.259162365e-11
-1.038786438e-11
-8.44424215e-12
-6.687827833e-12
-4.518645651e-12
-9.960742828e-12
-1.672060041e-11
-3.249642524e-11
-4.934918735e-11
)


101
(
1.460924646e-13
3.638822883e-11
1.034835834e-10
1.634457521e-10
2.084884781e-10
2.377276868e-10
2.491359325e-10
2.403424264e-10
2.097640982e-10
1.573487105e-10
8.066893802e-11
-1.936364418e-11
-1.40884454e-10
-2.842237266e-10
-4.458345242e-10
-6.2022525e-10
-8.015358231e-10
-9.826882517e-10
-1.153948947e-09
-1.308129971e-09
-1.43763876e-09
-1.537959207e-09
-1.60797557e-09
-1.647304437e-09
-1.657463621e-09
-1.642679039e-09
-1.607906978e-09
-1.557739003e-09
-1.496571696e-09
-1.428011796e-09
-1.355363319e-09
-1.281224659e-09
-1.207399637e-09
-1.137386254e-09
-1.071390881e-09
-1.01044335e-09
-9.534289456e-10
-8.98102072e-10
-8.439239537e-10
-7.922064024e-10
-7.451977175e-10
-7.040089749e-10
-6.686785991e-10
-6.376581313e-10
-6.092005674e-10
-5.822826026e-10
-5.562130896e-10
-5.31259294e-10
-5.077738045e-10
-4.8599443e-10
-4.657507694e-10
-4.468787076e-10
-4.289477166e-10
-4.116111018e-10
-3.94966133e-10
-3.791052053e-10
-3.641046791e-10
-3.496221076e-10
-3.358163846e-10
-3.224623712e-10
-3.094106884e-10
-2.967066572e-10
-2.842483656e-10
-2.721717989e-10
-2.604865451e-10
-2.492908505e-10
-2.386149513e-10
-2.282038045e-10
-2.179639769e-10
-2.077256837e-10
-1.976492298e-10
-1.877964508e-10
-1.782452385e-10
-1.689479136e-10
-1.597391832e-10
-1.505923477e-10
-1.415112108e-10
-1.326816337e-10
-1.241455653e-10
-1.156572908e-10
-1.072148989e-10
-9.896637809e-11
-9.106225299e-11
-8.344326444e-11
-7.597600273e-11
-6.872247828e-11
-6.203236332e-11
-5.539895022e-11
-4.912266192e-11
-4.326859671e-11
-3.777094549e-11
-3.263000624e-11
-2.803100115e-11
-2.39640052e-11
-2.018671102e-11
-1.664149786e-11
-1.235793209e-11
-2.524384583e-11
-4.077394397e-11
-7.331154368e-11
-1.104347822e-10
)


101
(
1.460961258e-13
3.631399987e-11
1.032972007e-10
1.633768892e-10
2.084577942e-10
2.374444613e-10
2.482796478e-10
2.386025225e-10
2.068467963e-10
1.527497333e-10
7.383255164e-11
-2.912304497e-11
-1.543203789e-10
-3.019046207e-10
-4.688549855e-10
-6.500739981e-10
-8.398989938e-10
-1.031492736e-09
-1.2155447e-09
-1.384615616e-09
-1.53064507e-09
-1.648232204e-09
-1.735338043e-09
-1.791160066e-09
-1.816345063e-09
-1.814298353e-09
-1.789645875e-09
-1.746958488e-09
-1.690756151e-09
-1.624852741e-09
-1.55279652e-09
-1.477508841e-09
-1.401061662e-09
-1.327311743e-09
-1.256536382e-09
-1.19049632e-09
-1.129067381e-09
-1.070472897e-09
-1.01354075e-09
-9.583879479e-10
-9.064453967e-10
-8.591509432e-10
-8.177803731e-10
-7.815163514e-10
-7.489151637e-10
-7.187919574e-10
-6.899113148e-10
-6.62129882e-10
-6.355520429e-10
-6.106806329e-10
-5.875800863e-10
-5.661976484e-10
-5.460380223e-10
-5.266684712e-10
-5.077659406e-10
-4.896177089e-10
-4.724924962e-10
-4.559299357e-10
-4.401644938e-10
-4.250112846e-10
-4.101716092e-10
-3.956381198e-10
-3.8141322e-10
-3.674310112e-10
-3.537181567e-10
-3.403698128e-10
-3.277323395e-10
-3.155194531e-10
-3.036501564e-10
-2.918069712e-10
-2.799487832e-10
-2.681834159e-10
-2.566279073e-10
-2.453795709e-10
-2.34325948e-10
-2.232284346e-10
-2.12048811e-10
-2.010446452e-10
-1.902994809e-10
-1.796404708e-10
-1.688709455e-10
-1.582452651e-10
-1.477780624e-10
-1.377404992e-10
-1.276379164e-10
-1.175094568e-10
-1.080057995e-10
-9.869188464e-11
-8.95130318e-11
-8.087927267e-11
-7.237123035e-11
-6.438057387e-11
-5.692530499e-11
-5.015816722e-11
-4.373291558e-11
-3.722253416e-11
-2.946300427e-11
-5.630744886e-11
-8.724838953e-11
-1.424963245e-10
-1.995278613e-10
)


101
(
1.460995954e-13
3.623885866e-11
1.031127458e-10
1.633201565e-10
2.084672644e-10
2.372507462e-10
2.475785875e-10
2.370987895e-10
2.042860195e-10
1.486562202e-10
6.767770076e-11
-3.802696292e-11
-1.667270757e-10
-3.184366857e-10
-4.905804685e-10
-6.784723935e-10
-8.766696365e-10
-1.078631698e-09
-1.275477972e-09
-1.459675814e-09
-1.62280047e-09
-1.758693902e-09
-1.864337791e-09
-1.938187493e-09
-1.98036731e-09
-1.993264712e-09
-1.980889373e-09
-1.947720126e-09
-1.898394989e-09
-1.836913823e-09
-1.767012908e-09
-1.691843867e-09
-1.613795271e-09
-1.537318839e-09
-1.462573891e-09
-1.391806179e-09
-1.32583402e-09
-1.263609308e-09
-1.203784736e-09
-1.145722923e-09
-1.089910606e-09
-1.037439832e-09
-9.903421414e-10
-9.486854506e-10
-9.115533165e-10
-8.778960118e-10
-8.460871063e-10
-8.155091009e-10
-7.860059964e-10
-7.581624129e-10
-7.32154283e-10
-7.080964405e-10
-6.856551492e-10
-6.642655629e-10
-6.433181745e-10
-6.232838702e-10
-6.04054866e-10
-5.855482716e-10
-5.677812699e-10
-5.508761012e-10
-5.344319571e-10
-5.182158791e-10
-5.023270435e-10
-4.865813604e-10
-4.710555702e-10
-4.557126369e-10
-4.409278096e-10
-4.268614254e-10
-4.133444145e-10
-3.999549648e-10
-3.865046482e-10
-3.729462875e-10
-3.595028375e-10
-3.462851103e-10
-3.33311066e-10
-3.202864813e-10
-3.071606209e-10
-2.940798061e-10
-2.809383303e-10
-2.680079867e-10
-2.550076063e-10
-2.418720917e-10
-2.287831163e-10
-2.160818742e-10
-2.032709935e-10
-1.900054459e-10
-1.771488938e-10
-1.648872698e-10
-1.525738102e-10
-1.404673661e-10
-1.284280839e-10
-1.169825322e-10
-1.059552744e-10
-9.565543136e-11
-8.593238151e-11
-7.565411473e-11
-6.339564067e-11
-1.103426325e-10
-1.634193966e-10
-2.481608151e-10
-3.351170224e-10
)


101
(
1.461027727e-13
3.616274705e-11
1.029300551e-10
1.632752858e-10
2.085165189e-10
2.371464898e-10
2.470339359e-10
2.358311109e-10
2.02070154e-10
1.450495349e-10
6.219745584e-11
-4.608019229e-11
-1.780990076e-10
-3.337946269e-10
-5.109763909e-10
-7.053693198e-10
-9.117698398e-10
-1.123964349e-09
-1.333552119e-09
-1.533027134e-09
-1.713644493e-09
-1.868672935e-09
-1.99413591e-09
-2.087452739e-09
-2.148364858e-09
-2.178300248e-09
-2.180502159e-09
-2.159160966e-09
-2.118943757e-09
-2.063955271e-09
-1.99810559e-09
-1.924758706e-09
-1.846552386e-09
-1.768541254e-09
-1.690858383e-09
-1.616017521e-09
-1.545563409e-09
-1.479332559e-09
-1.416374297e-09
-1.355788582e-09
-1.297047409e-09
-1.240509786e-09
-1.188329881e-09
-1.141414896e-09
-1.099487388e-09
-1.061913004e-09
-1.027045349e-09
-9.938577509e-10
-9.617644587e-10
-9.312176569e-10
-9.024014382e-10
-8.75633229e-10
-8.508346988e-10
-8.274497496e-10
-8.048701112e-10
-7.83129763e-10
-7.620649272e-10
-7.416540525e-10
-7.220127008e-10
-7.03365596e-10
-6.854694201e-10
-6.678623629e-10
-6.505420031e-10
-6.333111609e-10
-6.162137688e-10
-5.993451549e-10
-5.825844049e-10
-5.665485176e-10
-5.512770026e-10
-5.363437434e-10
-5.215358769e-10
-5.065472973e-10
-4.913028604e-10
-4.761069177e-10
-4.611496683e-10
-4.463730586e-10
-4.314799506e-10
-4.164019559e-10
-4.01135925e-10
-3.858741259e-10
-3.705454797e-10
-3.549517481e-10
-3.392452092e-10
-3.236556164e-10
-3.082040321e-10
-2.920365202e-10
-2.754801689e-10
-2.598092226e-10
-2.442589695e-10
-2.282890577e-10
-2.123162339e-10
-1.971304597e-10
-1.821564405e-10
-1.675980618e-10
-1.539339526e-10
-1.394258169e-10
-1.225696288e-10
-1.960148177e-10
-2.772660789e-10
-3.941162889e-10
-5.152298504e-10
)


101
(
1.461060878e-13
3.608553508e-11
1.027488076e-10
1.632418098e-10
2.08604911e-10
2.371316673e-10
2.466502579e-10
2.348052219e-10
2.001774298e-10
1.418989702e-10
5.739353391e-11
-5.3280258e-11
-1.884248396e-10
-3.47930666e-10
-5.299718016e-10
-7.306781716e-10
-9.451357625e-10
-1.167436129e-09
-1.389665178e-09
-1.60445371e-09
-1.802708477e-09
-1.977360296e-09
-2.123581894e-09
-2.237730693e-09
-2.318978753e-09
-2.367934839e-09
-2.387103054e-09
-2.380147299e-09
-2.351581626e-09
-2.305469919e-09
-2.245863412e-09
-2.176383368e-09
-2.099890896e-09
-2.021853714e-09
-1.942477065e-09
-1.864473665e-09
-1.789913032e-09
-1.719540597e-09
-1.653223303e-09
-1.590286025e-09
-1.529347587e-09
-1.469850285e-09
-1.413557268e-09
-1.361802341e-09
-1.315001044e-09
-1.273191097e-09
-1.235081847e-09
-1.199450827e-09
-1.165180136e-09
-1.132418587e-09
-1.101090079e-09
-1.071750882e-09
-1.044702977e-09
-1.019451619e-09
-9.954127882e-10
-9.720390179e-10
-9.496801874e-10
-9.276910604e-10
-9.065760143e-10
-8.862935719e-10
-8.671092357e-10
-8.48312467e-10
-8.29844032e-10
-8.115339335e-10
-7.933208907e-10
-7.752125783e-10
-7.569738436e-10
-7.39149147e-10
-7.219654609e-10
-7.055114908e-10
-6.894046287e-10
-6.733105856e-10
-6.56643767e-10
-6.396746955e-10
-6.226902036e-10
-6.059636991e-10
-5.893470565e-10
-5.725620002e-10
-5.553428924e-10
-5.378734785e-10
-5.200769084e-10
-5.021069475e-10
-4.836851033e-10
-4.650026518e-10
-4.467930856e-10
-4.280112766e-10
-4.077803477e-10
-3.88153867e-10
-3.689423598e-10
-3.494080351e-10
-3.291582712e-10
-3.09882139e-10
-2.90592677e-10
-2.717143856e-10
-2.53506636e-10
-2.345011304e-10
-2.132273065e-10
-3.180002045e-10
-4.310838116e-10
-5.766539861e-10
-7.260959742e-10
)


101
(
1.461098036e-13
3.600712379e-11
1.025688304e-10
1.632194962e-10
2.087321861e-10
2.372059986e-10
2.464303858e-10
2.34027378e-10
1.985939937e-10
1.391718555e-10
5.326262264e-11
-5.962518373e-11
-1.976966798e-10
-3.608026515e-10
-5.474978727e-10
-7.543075136e-10
-9.766800981e-10
-1.208985541e-09
-1.443714026e-09
-1.673788349e-09
-1.889644603e-09
-2.084124039e-09
-2.251743511e-09
-2.38798292e-09
-2.491239267e-09
-2.561233653e-09
-2.599702876e-09
-2.609654263e-09
-2.59530742e-09
-2.560610898e-09
-2.50969012e-09
-2.446341668e-09
-2.373610748e-09
-2.297343427e-09
-2.217817554e-09
-2.137918673e-09
-2.060085881e-09
-1.985882359e-09
-1.916188485e-09
-1.850858366e-09
-1.7882032e-09
-1.726786084e-09
-1.667633171e-09
-1.611887103e-09
-1.560524602e-09
-1.514411443e-09
-1.47281959e-09
-1.434670168e-09
-1.398541163e-09
-1.364025056e-09
-1.330678233e-09
-1.299173362e-09
-1.270171726e-09
-1.243239465e-09
-1.21793964e-09
-1.193528364e-09
-1.170291394e-09
-1.14742543e-09
-1.125140801e-09
-1.103591924e-09
-1.083356079e-09
-1.063694346e-09
-1.044275858e-09
-1.025275363e-09
-1.006554993e-09
-9.874932344e-10
-9.683354766e-10
-9.49021707e-10
-9.302435172e-10
-9.122700601e-10
-8.947578643e-10
-8.775887501e-10
-8.599596022e-10
-8.417083387e-10
-8.228757939e-10
-8.038376343e-10
-7.852761742e-10
-7.667217464e-10
-7.476222205e-10
-7.281065195e-10
-7.077214122e-10
-6.870441408e-10
-6.658749441e-10
-6.440382473e-10
-6.222277761e-10
-6.005145439e-10
-5.771165429e-10
-5.530845262e-10
-5.296261999e-10
-5.065139556e-10
-4.816853368e-10
-4.581471039e-10
-4.334867965e-10
-4.102032681e-10
-3.871881314e-10
-3.636857944e-10
-3.372952114e-10
-4.720269773e-10
-6.155564247e-10
-7.878951195e-10
-9.776224978e-10
)


101
(
1.461135189e-13
3.592738607e-11
1.023898905e-10
1.632079643e-10
2.088983215e-10
2.373699266e-10
2.463735935e-10
2.335001418e-10
1.973200408e-10
1.368514299e-10
4.976769965e-11
-6.510647225e-11
-2.059123044e-10
-3.724135025e-10
-5.635539269e-10
-7.762336992e-10
-1.006289213e-09
-1.248402323e-09
-1.495378689e-09
-1.740471985e-09
-1.973848259e-09
-2.188325026e-09
-2.377959985e-09
-2.537371119e-09
-2.664183491e-09
-2.757215147e-09
-2.817268747e-09
-2.846567123e-09
-2.848940271e-09
-2.82824396e-09
-2.788667677e-09
-2.733984205e-09
-2.667217388e-09
-2.594732538e-09
-2.51689423e-09
-2.436763897e-09
-2.356983745e-09
-2.279730826e-09
-2.206914473e-09
-2.139149382e-09
-2.075040227e-09
-2.012501791e-09
-1.951751905e-09
-1.893299286e-09
-1.838250858e-09
-1.788167821e-09
-1.743023021e-09
-1.702281305e-09
-1.664387861e-09
-1.628437096e-09
-1.59381958e-09
-1.560862802e-09
-1.530253505e-09
-1.50200441e-09
-1.475852625e-09
-1.451043023e-09
-1.427422839e-09
-1.404401901e-09
-1.381553469e-09
-1.359255906e-09
-1.338050655e-09
-1.317937923e-09
-1.298099303e-09
-1.278931195e-09
-1.260017558e-09
-1.240608755e-09
-1.22098081e-09
-1.20082506e-09
-1.181074247e-09
-1.161595773e-09
-1.1426078e-09
-1.124195935e-09
-1.105638809e-09
-1.086627349e-09
-1.06652797e-09
-1.045199811e-09
-1.023965338e-09
-1.002857365e-09
-9.819680152e-10
-9.602065788e-10
-9.371691231e-10
-9.133331663e-10
-8.887907891e-10
-8.636185432e-10
-8.37741753e-10
-8.119249768e-10
-7.850112391e-10
-7.563297791e-10
-7.275498025e-10
-6.999079599e-10
-6.699057159e-10
-6.414158958e-10
-6.110032262e-10
-5.820898885e-10
-5.540490232e-10
-5.252000641e-10
-4.923721611e-10
-6.55063664e-10
-8.267785285e-10
-1.025567164e-09
-1.225274172e-09
)


101
(
1.461170711e-13
3.584615108e-11
1.022116521e-10
1.632067858e-10
2.091028744e-10
2.37623473e-10
2.464789126e-10
2.332265087e-10
1.963571689e-10
1.349245186e-10
4.685609643e-11
-6.971104193e-11
-2.130588785e-10
-3.827772506e-10
-5.781608363e-10
-7.964697442e-10
-1.033867901e-09
-1.285415372e-09
-1.544235434e-09
-1.803733183e-09
-2.054513212e-09
-2.289161869e-09
-2.501485337e-09
-2.685019362e-09
-2.836734673e-09
-2.954676399e-09
-3.038508392e-09
-3.089583134e-09
-3.111270336e-09
-3.107248743e-09
-3.081691564e-09
-3.038309469e-09
-2.979984077e-09
-2.913543248e-09
-2.839521626e-09
-2.761190043e-09
-2.681244259e-09
-2.602185373e-09
-2.526833666e-09
-2.456784691e-09
-2.391249755e-09
-2.328057237e-09
-2.266850709e-09
-2.207181425e-09
-2.149739807e-09
-2.096485052e-09
-2.048176221e-09
-2.005052886e-09
-1.965465146e-09
-1.928489952e-09
-1.893382757e-09
-1.85985082e-09
-1.828199925e-09
-1.799205812e-09
-1.772563325e-09
-1.747579497e-09
-1.724318643e-09
-1.701907405e-09
-1.67951389e-09
-1.657166694e-09
-1.635581923e-09
-1.615348194e-09
-1.595876821e-09
-1.577168822e-09
-1.558281039e-09
-1.539507666e-09
-1.519952554e-09
-1.499662778e-09
-1.479165456e-09
-1.45849911e-09
-1.438337873e-09
-1.418498562e-09
-1.398843652e-09
-1.379068683e-09
-1.358187192e-09
-1.335211e-09
-1.310600657e-09
-1.286408546e-09
-1.262556846e-09
-1.238134909e-09
-1.212607621e-09
-1.185197152e-09
-1.156050542e-09
-1.126719005e-09
-1.0961762e-09
-1.065123273e-09
-1.033076505e-09
-9.992721704e-10
-9.636339749e-10
-9.296158159e-10
-8.937101722e-10
-8.580884193e-10
-8.217864518e-10
-7.85477853e-10
-7.510926447e-10
-7.158635234e-10
-6.769035454e-10
-8.661494317e-10
-1.065689724e-09
-1.298323758e-09
-1.527146303e-09
)


101
(
1.461207321e-13
3.576337468e-11
1.020316691e-10
1.632161025e-10
2.093458883e-10
2.379659401e-10
2.467455704e-10
2.332099264e-10
1.957235663e-10
1.33396746e-10
4.448936349e-11
-7.344897259e-11
-2.191247392e-10
-3.91887601e-10
-5.91300632e-10
-8.149890133e-10
-1.059350651e-09
-1.319875015e-09
-1.590083256e-09
-1.863229646e-09
-2.131194279e-09
-2.386051052e-09
-2.621492151e-09
-2.829910089e-09
-3.007590818e-09
-3.152017697e-09
-3.261707638e-09
-3.337045013e-09
-3.38081891e-09
-3.39632829e-09
-3.387467293e-09
-3.357966774e-09
-3.31075809e-09
-3.252845985e-09
-3.185038285e-09
-3.110862662e-09
-3.032974014e-09
-2.953887236e-09
-2.877010524e-09
-2.805017909e-09
-2.738062371e-09
-2.674485051e-09
-2.613653259e-09
-2.554184471e-09
-2.49593626e-09
-2.440816905e-09
-2.390182341e-09
-2.345076002e-09
-2.304227831e-09
-2.266838577e-09
-2.231891997e-09
-2.198710169e-09
-2.167059131e-09
-2.138016926e-09
-2.111527493e-09
-2.086888951e-09
-2.064610565e-09
-2.043489689e-09
-2.022731516e-09
-2.001543402e-09
-1.980704117e-09
-1.96086377e-09
-1.942444285e-09
-1.92473515e-09
-1.906704747e-09
-1.889262124e-09
-1.870512018e-09
-1.850740986e-09
-1.830060026e-09
-1.809154935e-09
-1.788203683e-09
-1.766884499e-09
-1.745945164e-09
-1.724925464e-09
-1.703054537e-09
-1.679209429e-09
-1.65238318e-09
-1.624252429e-09
-1.595977364e-09
-1.568081205e-09
-1.539636796e-09
-1.507940355e-09
-1.473749262e-09
-1.438674253e-09
-1.402119764e-09
-1.364556959e-09
-1.325230986e-09
-1.28481879e-09
-1.240836391e-09
-1.198134211e-09
-1.15510549e-09
-1.109696805e-09
-1.065385674e-09
-1.020163879e-09
-9.766551403e-10
-9.33789291e-10
-8.877690915e-10
-1.106266182e-09
-1.338113862e-09
-1.62222268e-09
-1.924419581e-09
)


101
(
1.46124502e-13
3.567894384e-11
1.018520742e-10
1.632356618e-10
2.096270043e-10
2.383961918e-10
2.47172045e-10
2.33451402e-10
1.954605398e-10
1.3232684e-10
4.263743291e-11
-7.636411834e-11