/*--------------------------------*- C++ -*----------------------------------*\
| =========                 |                                                 |
| \\      /  F ield         | OpenFOAM: The Open Source CFD Toolbox           |
|  \\    /   O peration     | Version:  2.3.1                                 |
|   \\  /    A nd           | Web:      www.OpenFOAM.org                      |
|    \\/     M anipulation  |                                                 |
\*---------------------------------------------------------------------------*/
FoamFile
{
    version     2.0;
    format      ascii;
    class       dictionary;
    location    "constant";
    object      DPSI6;
}
// * * * * * * * * * * * * * * * * * * * * * * * * * * * * * * * * * * * * * //

DPSI6_table
101
(

101
(
7.381706975e-07
6.619037069e-07
5.59520824e-07
5.412316173e-07
5.692737833e-07
6.200365629e-07
6.827655751e-07
7.50546723e-07
8.17542211e-07
8.824554227e-07
9.442393819e-07
1.001961275e-06
1.056577768e-06
1.107997388e-06
1.154982997e-06
1.198895424e-06
1.240627155e-06
1.278282749e-06
1.314280258e-06
1.348497038e-06
1.378541182e-06
1.408281222e-06
1.437022014e-06
1.463226595e-06
1.487963489e-06
1.511613831e-06
1.534141193e-06
1.555875995e-06
1.576822034e-06
1.596865346e-06
1.616011375e-06
1.633511163e-06
1.652089152e-06
1.67051299e-06
1.686701163e-06
1.702504432e-06
1.717295147e-06
1.731955138e-06
1.747150779e-06
1.761949403e-06
1.77510204e-06
1.787782312e-06
1.800671428e-06
1.812497288e-06
1.824074186e-06
1.835442753e-06
1.8464574e-06
1.857230702e-06
1.867657031e-06
1.87775329e-06
1.887399575e-06
1.896863266e-06
1.905991969e-06
1.914771709e-06
1.923239369e-06
1.931826286e-06
1.939928306e-06
1.947687105e-06
1.955413111e-06
1.96280543e-06
1.970047663e-06
1.976954126e-06
1.983720465e-06
1.990307763e-06
1.99669893e-06
2.002895999e-06
2.008864246e-06
2.014728923e-06
2.020405928e-06
2.025869891e-06
2.031214116e-06
2.036466886e-06
2.041491988e-06
2.046178948e-06
2.050724695e-06
2.055361523e-06
2.059917113e-06
2.064157322e-06
2.068213475e-06
2.072128198e-06
2.075997069e-06
2.079727936e-06
2.0832538e-06
2.08675473e-06
2.090173106e-06
2.093412112e-06
2.096523179e-06
2.099539981e-06
2.102427253e-06
2.105298303e-06
2.108118714e-06
2.110756842e-06
2.113341449e-06
2.115869241e-06
2.118366529e-06
2.120249901e-06
1.06104527e-06
-8.229578809e-15
5.378466496e-24
1.766717162e-25
-1.194070651e-23
)


101
(
7.31956996e-07
6.572014172e-07
5.558208967e-07
5.365995291e-07
5.631129863e-07
6.123674345e-07
6.735910745e-07
7.401077169e-07
8.06239429e-07
8.705187717e-07
9.319312036e-07
9.896375591e-07
1.044225267e-06
1.095891295e-06
1.143628011e-06
1.188193752e-06
1.230485214e-06
1.269700704e-06
1.306422159e-06
1.341798777e-06
1.374310953e-06
1.40481044e-06
1.434765331e-06
1.463363133e-06
1.490169267e-06
1.515753225e-06
1.540391872e-06
1.564123408e-06
1.587204509e-06
1.609620563e-06
1.631289637e-06
1.652204717e-06
1.671391283e-06
1.691544978e-06
1.711927936e-06
1.73046965e-06
1.748523939e-06
1.765734584e-06
1.782290988e-06
1.799236384e-06
1.816683796e-06
1.832519565e-06
1.847446137e-06
1.862905529e-06
1.877330501e-06
1.891374765e-06
1.90517451e-06
1.918670214e-06
1.931948492e-06
1.944965513e-06
1.957740086e-06
1.969991561e-06
1.982087335e-06
1.993956945e-06
2.005476435e-06
2.016269067e-06
2.027536623e-06
2.038420442e-06
2.048746894e-06
2.059098658e-06
2.069086387e-06
2.07902639e-06
2.088571854e-06
2.097911474e-06
2.107081753e-06
2.116094772e-06
2.124932547e-06
2.133414511e-06
2.141840741e-06
2.150115814e-06
2.158080086e-06
2.165803039e-06
2.173499234e-06
2.181131823e-06
2.188551933e-06
2.195633636e-06
2.202548669e-06
2.209551496e-06
2.216344379e-06
2.222873702e-06
2.229102545e-06
2.23528741e-06
2.241377161e-06
2.247345548e-06
2.253266082e-06
2.258986069e-06
2.264476053e-06
2.269796324e-06
2.274846149e-06
2.279964602e-06
2.2849358e-06
2.289480607e-06
2.293947258e-06
2.298179697e-06
2.300120258e-06
2.298422316e-06
1.13255898e-06
-3.531457695e-08
-3.673229519e-08
-3.808039807e-08
-3.981817718e-08
)


101
(
7.257347799e-07
6.524827935e-07
5.521189461e-07
5.319935426e-07
5.569957376e-07
6.047438051e-07
6.644631821e-07
7.296931702e-07
7.94922672e-07
8.585265971e-07
9.19513185e-07
9.771259858e-07
1.031641078e-06
1.083455261e-06
1.131805302e-06
1.176959965e-06
1.219742905e-06
1.260235184e-06
1.29774305e-06
1.33406689e-06
1.368651133e-06
1.400158673e-06
1.431112e-06
1.461649603e-06
1.49042091e-06
1.51782886e-06
1.544371774e-06
1.569960459e-06
1.594960079e-06
1.619492839e-06
1.643450568e-06
1.667297673e-06
1.687877426e-06
1.709296302e-06
1.732694594e-06
1.754101419e-06
1.775101514e-06
1.794955981e-06
1.813245322e-06
1.831934797e-06
1.852487833e-06
1.871519843e-06
1.888819406e-06
1.907131095e-06
1.924401346e-06
1.941050794e-06
1.957427025e-06
1.973460754e-06
1.989333189e-06
2.005004812e-06
2.020575082e-06
2.035522933e-06
2.050315948e-06
2.06498089e-06
2.079339625e-06
2.092572276e-06
2.106441723e-06
2.120150634e-06
2.13311216e-06
2.14612072e-06
2.158726357e-06
2.171370431e-06
2.183587911e-06
2.195525645e-06
2.207284002e-06
2.218909769e-06
2.230398383e-06
2.241448271e-06
2.252429311e-06
2.263304926e-06
2.27383454e-06
2.284028923e-06
2.29418034e-06
2.304386788e-06
2.314458875e-06
2.324105852e-06
2.33344479e-06
2.342977099e-06
2.352393879e-06
2.361506271e-06
2.370218852e-06
2.378831181e-06
2.387384059e-06
2.395833048e-06
2.404203233e-06
2.412454523e-06
2.420483595e-06
2.42824684e-06
2.435540483e-06
2.442979883e-06
2.450144679e-06
2.456726666e-06
2.463269467e-06
2.469249616e-06
2.470336249e-06
2.464111759e-06
1.194828867e-06
-7.574651828e-08
-7.834684118e-08
-8.08218152e-08
-8.414333668e-08
)


101
(
7.195038927e-07
6.477475586e-07
5.484145109e-07
5.27413371e-07
5.509222979e-07
5.971667509e-07
6.553835057e-07
7.193069069e-07
7.835974735e-07
8.464860263e-07
9.069948912e-07
9.644402796e-07
1.018836968e-06
1.070711395e-06
1.11954405e-06
1.165215955e-06
1.208426667e-06
1.24995485e-06
1.28824873e-06
1.325369928e-06
1.361669099e-06
1.394298161e-06
1.426143605e-06
1.45824206e-06
1.488794902e-06
1.517912784e-06
1.5461871e-06
1.573483816e-06
1.600213362e-06
1.62662381e-06
1.652632943e-06
1.679017636e-06
1.701348558e-06
1.723980816e-06
1.749566331e-06
1.773534087e-06
1.797222257e-06
1.819656292e-06
1.839910859e-06
1.860261093e-06
1.883166788e-06
1.905003415e-06
1.924771137e-06
1.945595732e-06
1.9654694e-06
1.984620271e-06
2.003420634e-06
2.021822437e-06
2.040074538e-06
2.058163307e-06
2.076246492e-06
2.093701862e-06
2.110984812e-06
2.128182994e-06
2.145132164e-06
2.160788194e-06
2.177043728e-06
2.193258835e-06
2.208705505e-06
2.224187029e-06
2.239238618e-06
2.254359199e-06
2.269059068e-06
2.283435501e-06
2.297608751e-06
2.311659397e-06
2.325598214e-06
2.339079449e-06
2.352471977e-06
2.365761355e-06
2.378710446e-06
2.391304752e-06
2.403811188e-06
2.416392606e-06
2.42889532e-06
2.441001989e-06
2.452732119e-06
2.464683987e-06
2.47661369e-06
2.488259751e-06
2.499476812e-06
2.510526744e-06
2.521508609e-06
2.532426468e-06
2.543224683e-06
2.553960097e-06
2.564575846e-06
2.574950237e-06
2.584612438e-06
2.594458495e-06
2.603886856e-06
2.612521879e-06
2.621265826e-06
2.629102947e-06
2.628984307e-06
2.617326514e-06
1.248107604e-06
-1.209027673e-07
-1.244684945e-07
-1.278701468e-07
-1.326384036e-07
)


101
(
7.132641722e-07
6.429954298e-07
5.447071202e-07
5.228587077e-07
5.448929086e-07
5.896373222e-07
6.463536223e-07
7.089526244e-07
7.72269308e-07
8.344040986e-07
8.943857125e-07
9.515938024e-07
1.005824981e-06
1.057680388e-06
1.106872764e-06
1.152984721e-06
1.196561963e-06
1.238921064e-06
1.27795764e-06
1.315763051e-06
1.353465253e-06
1.38723085e-06
1.419915337e-06
1.453275622e-06
1.485388103e-06
1.516081312e-06
1.545934348e-06
1.574792269e-06
1.603082309e-06
1.631152758e-06
1.658978863e-06
1.687561685e-06
1.711749882e-06
1.735672778e-06
1.762937509e-06
1.789044877e-06
1.815119312e-06
1.839957536e-06
1.862260348e-06
1.884300076e-06
1.909143079e-06
1.933331156e-06
1.955433027e-06
1.978567642e-06
2.000797092e-06
2.022280515e-06
2.043358784e-06
2.063975693e-06
2.084423271e-06
2.10471767e-06
2.125068819e-06
2.144818485e-06
2.164395178e-06
2.183902027e-06
2.203199818e-06
2.221142404e-06
2.239633877e-06
2.258118174e-06
2.275842631e-06
2.293612611e-06
2.310936891e-06
2.328344051e-06
2.345339968e-06
2.361986522e-06
2.37840794e-06
2.39470752e-06
2.410909983e-06
2.426660917e-06
2.442322734e-06
2.45786848e-06
2.473079991e-06
2.487952849e-06
2.502708529e-06
2.517532084e-06
2.532308952e-06
2.546746569e-06
2.560773637e-06
2.575039473e-06
2.589364926e-06
2.603467956e-06
2.61718563e-06
2.630685946e-06
2.644090115e-06
2.657465907e-06
2.670686402e-06
2.683899346e-06
2.697059658e-06
2.710105337e-06
2.722304362e-06
2.734681596e-06
2.746439553e-06
2.757142039e-06
2.768172531e-06
2.777968461e-06
2.77628566e-06
2.758319796e-06
1.292739391e-06
-1.704282035e-07
-1.747574329e-07
-1.789024987e-07
-1.849994474e-07
)


101
(
7.070154545e-07
6.38226118e-07
5.409962895e-07
5.183292278e-07
5.389077884e-07
5.821565393e-07
6.37375079e-07
6.98633897e-07
7.609435794e-07
8.222877666e-07
8.816948996e-07
9.385995519e-07
9.92617322e-07
1.044381725e-06
1.093819055e-06
1.140290124e-06
1.184173627e-06
1.227188832e-06
1.266896941e-06
1.305293364e-06
1.344131544e-06
1.378980732e-06
1.412469152e-06
1.446863422e-06
1.480306388e-06
1.512418582e-06
1.543705038e-06
1.573983364e-06
1.603679777e-06
1.633214388e-06
1.662632581e-06
1.693111274e-06
1.719112842e-06
1.744405789e-06
1.773088608e-06
1.800936056e-06
1.829042121e-06
1.856043264e-06
1.880350849e-06
1.904105149e-06
1.930674212e-06
1.956847611e-06
1.981041281e-06
2.006287208e-06
2.03064966e-06
2.054269674e-06
2.077462812e-06
2.100145038e-06
2.122625542e-06
2.144938557e-06
2.167340448e-06
2.189171539e-06
2.210847464e-06
2.232463784e-06
2.253893975e-06
2.273945727e-06
2.294516784e-06
2.315080401e-06
2.334880861e-06
2.35474593e-06
2.37416444e-06
2.39368088e-06
2.412798826e-06
2.431553181e-06
2.450066441e-06
2.468451946e-06
2.486742995e-06
2.504595878e-06
2.52237961e-06
2.540039637e-06
2.557369375e-06
2.574388657e-06
2.591274708e-06
2.608218531e-06
2.625142272e-06
2.641801978e-06
2.658032965e-06
2.674510292e-06
2.691115764e-06
2.707567108e-06
2.723744873e-06
2.739710959e-06
2.755551811e-06
2.771390478e-06
2.787025708e-06
2.802717483e-06
2.818424475e-06
2.83411903e-06
2.848936487e-06
2.864023079e-06
2.878205896e-06
2.891020603e-06
2.904354947e-06
2.916169478e-06
2.912620029e-06
2.887512942e-06
1.329125951e-06
-2.240031503e-07
-2.289135145e-07
-2.336397218e-07
-2.409681808e-07
)


101
(
7.007575753e-07
6.334393312e-07
5.372815264e-07
5.138245915e-07
5.32967138e-07
5.747253998e-07
6.284493987e-07
6.883541836e-07
7.496256152e-07
8.101438972e-07
8.689315493e-07
9.254702148e-07
9.792263541e-07
1.030833915e-06
1.080409632e-06
1.127156652e-06
1.171286165e-06
1.214807762e-06
1.255099803e-06
1.294003656e-06
1.333750896e-06
1.369587576e-06
1.403842826e-06
1.43909911e-06
1.47365601e-06
1.507015727e-06
1.539589229e-06
1.571152286e-06
1.602114e-06
1.632938828e-06
1.663739095e-06
1.695837026e-06
1.723520466e-06
1.750212866e-06
1.780188937e-06
1.809479454e-06
1.839274095e-06
1.868147509e-06
1.894313756e-06
1.919751391e-06
1.947929556e-06
1.97582914e-06
2.001862204e-06
2.029005633e-06
2.055288611e-06
2.080842714e-06
2.105973927e-06
2.13056748e-06
2.154929715e-06
2.179094023e-06
2.203352246e-06
2.227061842e-06
2.250643165e-06
2.274181121e-06
2.297549771e-06
2.319533399e-06
2.342022373e-06
2.364494643e-06
2.386188621e-06
2.407959651e-06
2.429290649e-06
2.450739774e-06
2.471811359e-06
2.492517865e-06
2.512978949e-06
2.533305587e-06
2.553526676e-06
2.573318018e-06
2.593069938e-06
2.612705045e-06
2.632022565e-06
2.651065428e-06
2.669963704e-06
2.688908357e-06
2.707858952e-06
2.726637982e-06
2.744990528e-06
2.763598406e-06
2.782390335e-06
2.801079728e-06
2.819630396e-06
2.838042684e-06
2.856345754e-06
2.874675634e-06
2.892740368e-06
2.910916737e-06
2.929172702e-06
2.947503852e-06
2.96496441e-06
2.982887571e-06
2.999631025e-06
3.014627202e-06
3.030279062e-06
3.044161338e-06
3.038457571e-06
3.005401505e-06
1.357679936e-06
-2.813281491e-07
-2.866761739e-07
-2.91856209e-07
-3.003366903e-07
)


101
(
6.944903554e-07
6.286347652e-07
5.335623236e-07
5.093444348e-07
5.270711295e-07
5.67344867e-07
6.195780676e-07
6.781168095e-07
7.383206315e-07
7.979792543e-07
8.561045889e-07
9.122181463e-07
9.656645056e-07
1.017054556e-06
1.066670187e-06
1.113609204e-06
1.157923931e-06
1.20182263e-06
1.242602853e-06
1.281934804e-06
1.322398041e-06
1.359101144e-06
1.394074474e-06
1.430060819e-06
1.46553838e-06
1.499968896e-06
1.533678655e-06
1.566392021e-06
1.598487644e-06
1.630449044e-06
1.662442157e-06
1.695908657e-06
1.725090913e-06
1.75314581e-06
1.784349997e-06
1.814888791e-06
1.846083214e-06
1.87652997e-06
1.904341292e-06
1.931360831e-06
1.961050351e-06
1.990494705e-06
2.018148229e-06
2.046977934e-06
2.074976009e-06
2.102261175e-06
2.129143247e-06
2.15548651e-06
2.181585212e-06
2.207452822e-06
2.233395775e-06
2.258792228e-06
2.284086917e-06
2.309362877e-06
2.334487507e-06
2.358230902e-06
2.382483219e-06
2.406711183e-06
2.430134236e-06
2.453635793e-06
2.476701278e-06
2.499905851e-06
2.522761394e-06
2.545264867e-06
2.567537464e-06
2.589679041e-06
2.611695008e-06
2.633275037e-06
2.654841724e-06
2.676309738e-06
2.697488077e-06
2.718440257e-06
2.739243387e-06
2.76007937e-06
2.780942469e-06
2.801737602e-06
2.822131224e-06
2.842802268e-06
2.863708174e-06
2.884547632e-06
2.905378313e-06
2.926174986e-06
2.946937027e-06
2.967790508e-06
2.988316796e-06
3.009016073e-06
3.029840565e-06
3.05081033e-06
3.070890269e-06
3.091733525e-06
3.111180889e-06
3.12843568e-06
3.146442546e-06
3.162414063e-06
3.154325921e-06
3.112515835e-06
1.378761236e-06
-3.42163606e-07
-3.478185545e-07
-3.533353016e-07
-3.629036137e-07
)


101
(
6.88213624e-07
6.238121166e-07
5.298381653e-07
5.048883813e-07
5.212199212e-07
5.600158902e-07
6.107625622e-07
6.679249984e-07
7.270337609e-07
7.858005265e-07
8.432228255e-07
8.988554207e-07
9.519442546e-07
1.003060496e-06
1.05262537e-06
1.099672942e-06
1.144111275e-06
1.188274434e-06
1.229444441e-06
1.269126666e-06
1.31014125e-06
1.347577534e-06
1.383205145e-06
1.419815753e-06
1.456047265e-06
1.491375491e-06
1.526067138e-06
1.559795401e-06
1.592899374e-06
1.625860351e-06
1.6588786e-06
1.693489717e-06
1.723967057e-06
1.753286992e-06
1.785658196e-06
1.817322375e-06
1.849701143e-06
1.881453911e-06
1.910666695e-06
1.939103467e-06
1.970184119e-06
2.001027561e-06
2.030122142e-06
2.060447788e-06
2.089970591e-06
2.118792164e-06
2.147233661e-06
2.175153077e-06
2.202835872e-06
2.230269919e-06
2.257754267e-06
2.28467012e-06
2.311492128e-06
2.338321731e-06
2.36502498e-06
2.390360422e-06
2.416220872e-06
2.442061516e-06
2.46707258e-06
2.492151485e-06
2.516786895e-06
2.541574965e-06
2.566043471e-06
2.590182499e-06
2.614126888e-06
2.637966859e-06
2.661667212e-06
2.684912005e-06
2.708149749e-06
2.731302935e-06
2.754212402e-06
2.776966407e-06
2.799577742e-06
2.822208436e-06
2.844881268e-06
2.8675901e-06
2.889938299e-06
2.912607031e-06
2.935568323e-06
2.958486089e-06
2.981519229e-06
3.004632546e-06
3.027824505e-06
3.051216815e-06
3.074230618e-06
3.097501072e-06
3.120929639e-06
3.144558452e-06
3.167244544e-06
3.191043615e-06
3.213313038e-06
3.232912243e-06
3.253337026e-06
3.271406228e-06
3.260617188e-06
3.20940484e-06
1.392849058e-06
-4.063131605e-07
-4.12158036e-07
-4.179121153e-07
-4.285247249e-07
)


101
(
6.81927193e-07
6.189710657e-07
5.261085167e-07
5.004560265e-07
5.15413636e-07
5.527393756e-07
6.020043141e-07
6.577818423e-07
7.157700088e-07
7.736142792e-07
8.302948907e-07
8.853938024e-07
9.380780952e-07
9.888679672e-07
1.038298758e-06
1.085373021e-06
1.129872624e-06
1.174200792e-06
1.215663637e-06
1.255618875e-06
1.297042479e-06
1.335075985e-06
1.371280177e-06
1.4084237e-06
1.445267524e-06
1.481331253e-06
1.516850147e-06
1.551455768e-06
1.58544504e-06
1.619281209e-06
1.653178434e-06
1.688738103e-06
1.720304133e-06
1.750747619e-06
1.784201291e-06
1.816901407e-06
1.850314285e-06
1.883157257e-06
1.913536134e-06
1.943190413e-06
1.975505631e-06
2.007605437e-06
2.037986639e-06
2.069638598e-06
2.100514264e-06
2.130694599e-06
2.160511504e-06
2.189830052e-06
2.2189359e-06
2.247793209e-06
2.276686721e-06
2.304985961e-06
2.33317592e-06
2.361380122e-06
2.389483684e-06
2.416243006e-06
2.443553816e-06
2.470866742e-06
2.497338271e-06
2.523863101e-06
2.549927196e-06
2.576144433e-06
2.602060927e-06
2.627667747e-06
2.653131043e-06
2.678547438e-06
2.703834581e-06
2.728649756e-06
2.753444607e-06
2.778144157e-06
2.802645006e-06
2.827083489e-06
2.851409666e-06
2.875753178e-06
2.900150089e-06
2.924678037e-06
2.948886763e-06
2.973483264e-06
2.998453858e-06
3.023392651e-06
3.048554162e-06
3.073917812e-06
3.099505996e-06
3.125437692e-06
3.150946399e-06
3.176822888e-06
3.202917729e-06
3.229233213e-06
3.254525541e-06
3.281296e-06
3.306467541e-06
3.328506964e-06
3.351418258e-06
3.371590958e-06
3.35781864e-06
3.296570238e-06
1.400281285e-06
-4.735978175e-07
-4.795286228e-07
-4.854232299e-07
-4.97040915e-07
)


101
(
6.756308833e-07
6.141112988e-07
5.223728416e-07
4.960469576e-07
5.096523884e-07
5.455162186e-07
5.933047461e-07
6.476903556e-07
7.045343117e-07
7.614270142e-07
8.173293027e-07
8.71844792e-07
9.240784784e-07
9.744926728e-07
1.023712982e-06
1.070734519e-06
1.115232567e-06
1.15963669e-06
1.201299062e-06
1.241450947e-06
1.283159605e-06
1.321657127e-06
1.358348501e-06
1.395940143e-06
1.433275912e-06
1.469928169e-06
1.50612392e-06
1.541467797e-06
1.576218897e-06
1.610813747e-06
1.645461752e-06
1.681802237e-06
1.714263391e-06
1.745663512e-06
1.780082198e-06
1.813729306e-06
1.848067917e-06
1.881843962e-06
1.913189021e-06
1.943853331e-06
1.977216537e-06
2.010413625e-06
2.041934152e-06
2.074760171e-06
2.106836432e-06
2.138217149e-06
2.169237096e-06
2.199778903e-06
2.230143852e-06
2.260277702e-06
2.290446827e-06
2.320003591e-06
2.3494309e-06
2.37885827e-06
2.408191302e-06
2.436205299e-06
2.464804912e-06
2.493444685e-06
2.521251702e-06
2.549105616e-06
2.576478985e-06
2.603994068e-06
2.63121304e-06
2.658126767e-06
2.684944425e-06
2.711795452e-06
2.738566372e-06
2.764874425e-06
2.79114327e-06
2.817277397e-06
2.843235166e-06
2.869230949e-06
2.895169345e-06
2.921144657e-06
2.947191974e-06
2.973463021e-06
2.999445956e-06
3.025882832e-06
3.052808898e-06
3.079736543e-06
3.106966467e-06
3.13450337e-06
3.162442126e-06
3.190919278e-06
3.218925859e-06
3.247407559e-06
3.276235109e-06
3.305291797e-06
3.333189276e-06
3.362918408e-06
3.39106375e-06
3.415645782e-06
3.441102905e-06
3.463388298e-06
3.446373808e-06
3.374466038e-06
1.401371991e-06
-5.43855271e-07
-5.497775275e-07
-5.55753707e-07
-5.683808345e-07
)


101
(
6.693244997e-07
6.092324837e-07
5.186305798e-07
4.916607306e-07
5.039362545e-07
5.383472685e-07
5.846652321e-07
6.37653424e-07
6.933314688e-07
7.49245105e-07
8.043343973e-07
8.58219608e-07
9.099577517e-07
9.599497815e-07
1.008889708e-06
1.055782241e-06
1.100215702e-06
1.144615092e-06
1.186388474e-06
1.226661814e-06
1.268546532e-06
1.307381528e-06
1.344462843e-06
1.382418984e-06
1.420141859e-06
1.457252296e-06
1.493983333e-06
1.529927443e-06
1.565315292e-06
1.600555649e-06
1.635840074e-06
1.672818542e-06
1.706002525e-06
1.738186119e-06
1.773424568e-06
1.807912687e-06
1.843083916e-06
1.877679041e-06
1.909836198e-06
1.941325754e-06
1.975543148e-06
2.009656377e-06
2.042158726e-06
2.076011447e-06
2.109146264e-06
2.141589563e-06
2.173665925e-06
2.205265351e-06
2.236720053e-06
2.26797684e-06
2.299286586e-06
2.329980936e-06
2.360527345e-06
2.391051819e-06
2.421469094e-06
2.450578015e-06
2.480301369e-06
2.510113789e-06
2.539126971e-06
2.56819668e-06
2.596774499e-06
2.625478731e-06
2.653879389e-06
2.681960086e-06
2.709973236e-06
2.73809742e-06
2.766221356e-06
2.793938384e-06
2.821620155e-06
2.849114798e-06
2.876421212e-06
2.903843725e-06
2.931273338e-06
2.958788408e-06
2.986417696e-06
3.014373184e-06
3.04206289e-06
3.070252549e-06
3.099055762e-06
3.127939345e-06
3.157206557e-06
3.186838412e-06
3.217056346e-06
3.248072733e-06
3.278604894e-06
3.3096799e-06
3.341262088e-06
3.37315009e-06
3.403660247e-06
3.436328697e-06
3.467492647e-06
3.494687545e-06
3.522758062e-06
3.547166297e-06
3.526663433e-06
3.443509411e-06
1.396423231e-06
-6.169475892e-07
-6.227627364e-07
-6.287107943e-07
-6.423106347e-07
)


101
(
6.630078456e-07
6.043342839e-07
5.14881161e-07
4.87296883e-07
4.98265288e-07
5.312333492e-07
5.76087124e-07
6.276738417e-07
6.821661708e-07
7.370748232e-07
7.913183791e-07
8.445292247e-07
8.957282045e-07
9.452540587e-07
9.938496577e-07
1.040540582e-06
1.084846839e-06
1.129167112e-06
1.170968481e-06
1.211290195e-06
1.253253598e-06
1.292308431e-06
1.329678636e-06
1.367914274e-06
1.405930085e-06
1.443383767e-06
1.480520201e-06
1.516930996e-06
1.55282948e-06
1.588601912e-06
1.624416735e-06
1.661912467e-06
1.69567144e-06
1.728473008e-06
1.764370904e-06
1.799570385e-06
1.835473027e-06
1.87079652e-06
1.903658326e-06
1.935826046e-06
1.970714528e-06
2.0055532e-06
2.038865336e-06
2.073593367e-06
2.107649943e-06
2.141025913e-06
2.174027724e-06
2.206544993e-06
2.23893358e-06
2.271153503e-06
2.303457651e-06
2.335165152e-06
2.366722198e-06
2.39823412e-06
2.429613869e-06
2.459680567e-06
2.490372427e-06
2.521199061e-06
2.55127643e-06
2.581444258e-06
2.611126544e-06
2.640924577e-06
2.670409541e-06
2.699543924e-06
2.728614725e-06
2.757852666e-06
2.787173051e-06
2.816183265e-06
2.845211778e-06
2.8740179e-06
2.902602163e-06
2.931343475e-06
2.960136329e-06
2.989077842e-06
3.018209358e-06
3.047793116e-06
3.077137721e-06
3.107015514e-06
3.137612935e-06
3.168390186e-06
3.199676298e-06
3.231354905e-06
3.263754653e-06
3.297259991e-06
3.33036322e-06
3.364048849e-06
3.398356906e-06
3.433142291e-06
3.466320512e-06
3.50190088e-06
3.536097361e-06
3.565974928e-06
3.59671188e-06
3.623249788e-06
3.599004757e-06
3.504066207e-06
1.385724195e-06
-6.927404125e-07
-6.983486716e-07
-7.042017127e-07
-7.187955623e-07
)


101
(
6.566807162e-07
5.994163548e-07
5.111240011e-07
4.829549297e-07
4.926395155e-07
5.24175252e-07
5.675717422e-07
6.177543112e-07
6.71043e-07
7.249223178e-07
7.782892995e-07
8.307843653e-07
8.814020092e-07
9.304199308e-07
9.786126586e-07
1.025033442e-06
1.06915083e-06
1.113322738e-06
1.155074209e-06
1.195373729e-06
1.237328838e-06
1.276495503e-06
1.314052734e-06
1.352480856e-06
1.39070198e-06
1.428396916e-06
1.465821547e-06
1.502573341e-06
1.538857838e-06
1.575047635e-06
1.611289534e-06
1.649195826e-06
1.683407073e-06
1.716680832e-06
1.753076854e-06
1.788839464e-06
1.82535358e-06
1.861315561e-06
1.894800728e-06
1.927541267e-06
1.962953835e-06
1.998338228e-06
2.032273711e-06
2.067708258e-06
2.102545608e-06
2.13673123e-06
2.170543291e-06
2.203854496e-06
2.237036147e-06
2.27007112e-06
2.303223269e-06
2.335809182e-06
2.368261076e-06
2.400661038e-06
2.432900494e-06
2.46380871e-06
2.495335395e-06
2.527025077e-06
2.558017034e-06
2.589153902e-06
2.619833831e-06
2.650632597e-06
2.681118035e-06
2.711221053e-06
2.741242423e-06
2.77145284e-06
2.801806938e-06
2.831963101e-06
2.862241206e-06
2.892307574e-06
2.922128493e-06
2.952119097e-06
2.982163686e-06
3.012402126e-06
3.042925786e-06
3.074070123e-06
3.105029127e-06
3.136549618e-06
3.168869764e-06
3.201460577e-06
3.234732046e-06
3.268438806e-06
3.302938642e-06
3.338834045e-06
3.374515447e-06
3.410872258e-06
3.447884127e-06
3.485558612e-06
3.521490398e-06
3.559996928e-06
3.597184279e-06
3.62978699e-06
3.663238331e-06
3.691923092e-06
3.663717942e-06
3.556455182e-06
1.369500608e-06
-7.710945396e-07
-7.764075459e-07
-7.820623583e-07
-7.976281815e-07
)


101
(
6.503428981e-07
5.944783393e-07
5.073584973e-07
4.786343587e-07
4.870589313e-07
5.171737323e-07
5.59120372e-07
6.078974304e-07
6.599664106e-07
7.127936133e-07
7.652550431e-07
8.169955229e-07
8.669912172e-07
9.15461437e-07
9.631976889e-07
1.009284149e-06
1.053152447e-06
1.097110952e-06
1.138739719e-06
1.178949138e-06
1.220817208e-06
1.259997994e-06
1.297642944e-06
1.336174749e-06
1.374516721e-06
1.412360995e-06
1.449969639e-06
1.486947305e-06
1.523497375e-06
1.5599885e-06
1.596553919e-06
1.634773441e-06
1.669333027e-06
1.70295507e-06
1.739701106e-06
1.775872729e-06
1.812858389e-06
1.849350706e-06
1.883386052e-06
1.916630137e-06
1.952459258e-06
1.988236994e-06
2.022614485e-06
2.058573099e-06
2.094038618e-06
2.128906218e-06
2.163414222e-06
2.197415387e-06
2.231272971e-06
2.264981914e-06
2.298838051e-06
2.332170184e-06
2.365394906e-06
2.39857845e-06
2.43158603e-06
2.463238732e-06
2.495483562e-06
2.527901174e-06
2.559664036e-06
2.591631441e-06
2.62319259e-06
2.654893559e-06
2.68629513e-06
2.717292366e-06
2.74818569e-06
2.779263712e-06
2.810506666e-06
2.841646463e-06
2.873037989e-06
2.90428493e-06
2.935305507e-06
2.966509891e-06
2.997733892e-06
3.029149398e-06
3.060929424e-06
3.093529776e-06
3.126049161e-06
3.15918637e-06
3.19318489e-06
3.227502932e-06
3.262689851e-06
3.298414632e-06
3.334979411e-06
3.373151276e-06
3.411347551e-06
3.450441287e-06
3.49017933e-06
3.530694065e-06
3.569430018e-06
3.610902782e-06
3.651040112e-06
3.686386905e-06
3.722580077e-06
3.753422886e-06
3.721060516e-06
3.600949422e-06
1.347950473e-06
-8.519006511e-07
-8.568203142e-07
-8.621307978e-07
-8.786208884e-07
)


101
(
6.439941801e-07
5.895198791e-07
5.035840377e-07
4.743346403e-07
4.815235084e-07
5.102295244e-07
5.50734283e-07
5.981057185e-07
6.489407487e-07
7.006946461e-07
7.522233651e-07
8.031729563e-07
8.525077759e-07
9.003923599e-07
9.476230069e-07
9.933153407e-07
1.036876348e-06
1.08055992e-06
1.121997792e-06
1.162052275e-06
1.203761682e-06
1.242868898e-06
1.28050695e-06
1.319052995e-06
1.357432504e-06
1.395341262e-06
1.433041152e-06
1.470141509e-06
1.506844478e-06
1.543521893e-06
1.580304174e-06
1.618741692e-06
1.653560859e-06
1.68742968e-06
1.724397224e-06
1.760830681e-06
1.798137261e-06
1.835031209e-06
1.869529714e-06
1.903218768e-06
1.939397445e-06
1.975461007e-06
2.010122658e-06
2.046416628e-06
2.082334977e-06
2.117750041e-06
2.152844229e-06
2.187431793e-06
2.221864608e-06
2.256134361e-06
2.290556167e-06
2.324495674e-06
2.358371421e-06
2.392228468e-06
2.425913264e-06
2.458229839e-06
2.491095397e-06
2.524122239e-06
2.556519252e-06
2.589174587e-06
2.621493071e-06
2.653993267e-06
2.686221221e-06
2.718034862e-06
2.74973236e-06
2.781603241e-06
2.81362672e-06
2.845603099e-06
2.877948933e-06
2.910253328e-06
2.942411419e-06
2.97480373e-06
3.007174024e-06
3.039688177e-06
3.07259119e-06
3.106501332e-06
3.140483827e-06
3.175209966e-06
3.21087313e-06
3.246853535e-06
3.283858956e-06
3.32155508e-06
3.360183066e-06
3.40055799e-06
3.441147507e-06
3.482991817e-06
3.525522347e-06
3.568828844e-06
3.610364922e-06
3.65485765e-06
3.697911682e-06
3.736012933e-06
3.774970453e-06
3.807954685e-06
3.77126669e-06
3.637802937e-06
1.32124903e-06
-9.350519935e-07
-9.394907409e-07
-9.445945466e-07
-9.622571583e-07
)


101
(
6.376343478e-07
5.845406099e-07
4.997999976e-07
4.700552231e-07
4.760331935e-07
5.033433357e-07
5.424147214e-07
5.883816116e-07
6.379702434e-07
6.886312471e-07
7.39201871e-07
7.893267015e-07
8.379635137e-07
8.85226238e-07
9.319061779e-07
9.771489713e-07
1.020346837e-06
1.063697358e-06
1.104880264e-06
1.144717745e-06
1.186202973e-06
1.225158379e-06
1.262701669e-06
1.301173873e-06
1.339507502e-06
1.37739983e-06
1.415107298e-06
1.452239386e-06
1.488993533e-06
1.525746859e-06
1.562637536e-06
1.601195127e-06
1.636190693e-06
1.670223358e-06
1.707307792e-06
1.743873191e-06
1.78135062e-06
1.818500437e-06
1.853352434e-06
1.887422554e-06
1.923904546e-06
1.960186855e-06
1.995016961e-06
2.031477812e-06
2.067664294e-06
2.103466509e-06
2.139024912e-06
2.17410275e-06
2.209019656e-06
2.24375073e-06
2.278622589e-06
2.313037323e-06
2.347432917e-06
2.381850624e-06
2.416114761e-06
2.449018964e-06
2.48243223e-06
2.515968835e-06
2.548875167e-06
2.582079679e-06
2.615022272e-06
2.648207729e-06
2.681167339e-06
2.713714066e-06
2.746146245e-06
2.778749276e-06
2.811475297e-06
2.84417082e-06
2.877320673e-06
2.910532683e-06
2.943721228e-06
2.97725315e-06
3.010752961e-06
3.04433586e-06
3.078271079e-06
3.113335492e-06
3.148628585e-06
3.184865321e-06
3.222191955e-06
3.259822274e-06
3.298553221e-06
3.338120354e-06
3.378794447e-06
3.421345239e-06
3.464202018e-06
3.508740116e-06
3.554136486e-06
3.600220795e-06
3.644501768e-06
3.69207191e-06
3.738013461e-06
3.778857787e-06
3.820621218e-06
3.855702812e-06
3.814464893e-06
3.667218665e-06
1.289606354e-06
-1.020438766e-06
-1.024317878e-06
-1.028954269e-06
-1.047615872e-06
)


101
(
6.312631524e-07
5.795401243e-07
4.960057184e-07
4.657955222e-07
4.70587878e-07
4.965158103e-07
5.341628669e-07
5.787274052e-07
6.270589409e-07
6.766090793e-07
7.261979625e-07
7.754665063e-07
8.233700392e-07
8.699763128e-07
9.160639451e-07
9.608061817e-07
1.003587901e-06
1.046550228e-06
1.087418077e-06
1.126979383e-06
1.168179443e-06
1.206913559e-06
1.244282281e-06
1.282596026e-06
1.320801036e-06
1.358597495e-06
1.396234734e-06
1.433318141e-06
1.470034223e-06
1.506761906e-06
1.543653496e-06
1.582229259e-06
1.617317005e-06
1.65144109e-06
1.688559297e-06
1.725149547e-06
1.762663681e-06
1.799921425e-06
1.834992505e-06
1.86935387e-06
1.906091411e-06
1.942557332e-06
1.977491249e-06
2.013988202e-06
2.050262042e-06
2.08627189e-06
2.122155286e-06
2.157619089e-06
2.192934063e-06
2.228044327e-06
2.263264718e-06
2.298033404e-06
2.332821768e-06
2.367679312e-06
2.402422093e-06
2.435832792e-06
2.469723768e-06
2.503698609e-06
2.537015579e-06
2.570638069e-06
2.604063377e-06
2.637809231e-06
2.671397262e-06
2.704588246e-06
2.737680106e-06
2.770952017e-06
2.804320871e-06
2.837651673e-06
2.871478677e-06
2.905445659e-06
2.939523304e-06
2.97410148e-06
3.008693121e-06
3.043339374e-06
3.078280126e-06
3.11438963e-06
3.150808988e-06
3.188404129e-06
3.227352467e-06
3.266650606e-06
3.307066334e-06
3.348383487e-06
3.391032736e-06
3.435756125e-06
3.480786072e-06
3.527893801e-06
3.576197486e-06
3.625095537e-06
3.672044874e-06
3.722724868e-06
3.771537642e-06
3.815078786e-06
3.859698524e-06
3.896839032e-06
3.850845738e-06
3.6893925e-06
1.253137906e-06
-1.107990108e-06
-1.111230138e-06
-1.115338503e-06
-1.135010591e-06
)


101
(
6.248803655e-07
5.745180492e-07
4.922005414e-07
4.615549218e-07