/*--------------------------------*- C++ -*----------------------------------*\
| =========                 |                                                 |
| \\      /  F ield         | OpenFOAM: The Open Source CFD Toolbox           |
|  \\    /   O peration     | Version:  2.3.1                                 |
|   \\  /    A nd           | Web:      www.OpenFOAM.org                      |
|    \\/     M anipulation  |                                                 |
\*---------------------------------------------------------------------------*/
FoamFile
{
    version     2.0;
    format      ascii;
    class       dictionary;
    location    "constant";
    object      DPSI10;
}
// * * * * * * * * * * * * * * * * * * * * * * * * * * * * * * * * * * * * * //

DPSI10_table
101
(

101
(
-2.353321567e-10
-3.81602587e-10
-5.888590883e-10
-6.673819165e-10
-6.799798757e-10
-6.582226269e-10
-6.147003568e-10
-5.560463838e-10
-4.871600401e-10
-4.093033018e-10
-3.233705713e-10
-2.314690331e-10
-1.325709944e-10
-2.922070571e-11
7.239700462e-11
1.697975351e-10
2.583946453e-10
3.285302755e-10
3.792610429e-10
4.099707654e-10
4.194955759e-10
4.131649965e-10
3.945287645e-10
3.688684293e-10
3.394358112e-10
3.085843464e-10
2.780403225e-10
2.483474354e-10
2.202738284e-10
1.94466814e-10
1.711452784e-10
1.513047877e-10
1.315338138e-10
1.134026082e-10
9.905341721e-11
8.126124398e-11
6.231421305e-11
5.858375891e-11
5.867372649e-11
5.059727028e-11
4.431981182e-11
3.894184238e-11
3.39698718e-11
2.995605956e-11
2.639531002e-11
2.321996901e-11
2.046471462e-11
1.802811414e-11
1.592621274e-11
1.407429303e-11
1.248101279e-11
1.105764695e-11
9.804196726e-12
8.707861857e-12
7.757702986e-12
6.860380147e-12
6.086247033e-12
5.421169561e-12
4.803694154e-12
4.271659315e-12
3.788033831e-12
3.37104825e-12
2.991336622e-12
2.645429143e-12
2.345814008e-12
2.079390372e-12
1.837890055e-12
1.619476376e-12
1.426014456e-12
1.253458001e-12
1.098399345e-12
9.58567698e-13
8.296100628e-13
6.375070422e-13
4.953195655e-13
5.0836436e-13
4.922376863e-13
4.194048539e-13
3.583567e-13
3.041927053e-13
2.530432209e-13
2.068610637e-13
1.443847963e-13
1.087578988e-13
1.1324071e-13
9.99400504e-14
7.836769455e-14
5.999384469e-14
3.68173894e-14
2.709944859e-14
2.781040076e-14
1.851481515e-14
1.104037344e-14
6.811424844e-15
5.031903544e-15
4.074995912e-15
1.481210724e-15
-5.381884609e-22
1.761514056e-32
1.122898594e-32
-3.910728504e-32
)


101
(
-2.316608154e-10
-3.761872348e-10
-5.817518256e-10
-6.608808352e-10
-6.747143348e-10
-6.544822034e-10
-6.12771561e-10
-5.561969409e-10
-4.8958644e-10
-4.142377048e-10
-3.309939427e-10
-2.417586542e-10
-1.457818345e-10
-4.501144582e-11
5.506703124e-11
1.517550093e-10
2.408679612e-10
3.140254452e-10
3.685467116e-10
4.039210442e-10
4.190492465e-10
4.172779585e-10
4.025498934e-10
3.797522859e-10
3.521796737e-10
3.22408222e-10
2.923377573e-10
2.627921021e-10
2.34511919e-10
2.08173126e-10
1.841228832e-10
1.632063251e-10
1.433148051e-10
1.247243312e-10
1.090845004e-10
9.238198839e-11
7.424905921e-11
6.437974345e-11
6.11899716e-11
5.571142439e-11
4.940384583e-11
4.359122653e-11
3.824629726e-11
3.366196968e-11
2.969161223e-11
2.619526384e-11
2.314337091e-11
2.045825056e-11
1.811023211e-11
1.604730584e-11
1.42480887e-11
1.266156599e-11
1.126485197e-11
1.003477701e-11
8.947823781e-12
7.957451959e-12
7.074357997e-12
6.303231756e-12
5.612521797e-12
5.001130078e-12
4.454990123e-12
3.97232919e-12
3.542444898e-12
3.153978975e-12
2.803882579e-12
2.492182454e-12
2.215722532e-12
1.967254309e-12
1.742820103e-12
1.540214696e-12
1.359616348e-12
1.199308423e-12
1.057249069e-12
8.990983263e-13
7.35514236e-13
6.336908295e-13
5.764381395e-13
5.190553022e-13
4.586028838e-13
3.981730516e-13
3.402749323e-13
2.881644257e-13
2.338510612e-13
1.817524451e-13
1.488849631e-13
1.292906946e-13
1.105691303e-13
9.041182451e-14
6.951220149e-14
5.134913633e-14
3.897189551e-14
3.039045205e-14
2.267132881e-14
1.508516208e-14
1.03610655e-14
9.178953618e-15
4.148982089e-15
-1.04237356e-15
-2.453004211e-15
-3.820664428e-15
-3.969923462e-15
)


101
(
-2.28003677e-10
-3.70788228e-10
-5.746559893e-10
-6.543902352e-10
-6.694828731e-10
-6.508154665e-10
-6.109643078e-10
-5.565264206e-10
-4.922581375e-10
-4.194825799e-10
-3.389917236e-10
-2.524949063e-10
-1.594747098e-10
-6.139453507e-11
3.694740979e-11
1.327535112e-10
2.221597365e-10
2.979012819e-10
3.561076587e-10
3.960341118e-10
4.166873392e-10
4.1980699e-10
4.092851263e-10
3.897517612e-10
3.644279016e-10
3.360593947e-10
3.067318177e-10
2.77508235e-10
2.491921195e-10
2.224759247e-10
1.977888388e-10
1.759273748e-10
1.555588531e-10
1.366100573e-10
1.201102568e-10
1.035393869e-10
8.60569744e-11
7.301859352e-11
6.607379741e-11
6.053859151e-11
5.466247644e-11
4.874574095e-11
4.308305046e-11
3.803222344e-11
3.359379543e-11
2.969740024e-11
2.63049735e-11
2.333341388e-11
2.072506707e-11
1.842786981e-11
1.640879426e-11
1.462489226e-11
1.304995567e-11
1.166316948e-11
1.043767127e-11
9.334643676e-12
8.343051725e-12
7.459091087e-12
6.671216483e-12
5.970375969e-12
5.344319254e-12
4.789312151e-12
4.292609185e-12
3.843330547e-12
3.438162288e-12
3.077141433e-12
2.755801519e-12
2.465481978e-12
2.204091986e-12
1.967193997e-12
1.753508224e-12
1.561066251e-12
1.391081931e-12
1.231987717e-12
1.067502344e-12
9.16947702e-13
7.974796186e-13
7.049285668e-13
6.296984022e-13
5.601382983e-13
4.914180432e-13
4.268766367e-13
3.66858831e-13
3.087153286e-13
2.550984194e-13
2.102961717e-13
1.775197671e-13
1.522225018e-13
1.260928763e-13
1.023257973e-13
8.209240084e-14
6.296365111e-14
4.912914339e-14
3.776709309e-14
2.967808444e-14
3.176971704e-14
1.083082606e-14
-1.527070743e-14
-2.462689255e-14
-3.371778862e-14
-3.505435105e-14
)


101
(
-2.243608117e-10
-3.654055277e-10
-5.67571047e-10
-6.479082738e-10
-6.64281553e-10
-6.472159473e-10
-6.09269098e-10
-5.570219589e-10
-4.95158913e-10
-4.250201356e-10
-3.473459831e-10
-2.636593491e-10
-1.736373113e-10
-7.835210006e-11
1.805777453e-11
1.127935756e-10
2.022608668e-10
2.801697655e-10
3.418744732e-10
3.862288669e-10
4.123099309e-10
4.205648306e-10
4.145548418e-10
3.986781856e-10
3.7600833e-10
3.49393961e-10
3.211082169e-10
2.924236922e-10
2.642574688e-10
2.373403548e-10
2.121426904e-10
1.894597397e-10
1.684132504e-10
1.490134397e-10
1.320617527e-10
1.152330663e-10
9.794849822e-11
8.338430223e-11
7.330291957e-11
6.624017799e-11
6.020227046e-11
5.42704828e-11
4.843576901e-11
4.30363301e-11
3.814283247e-11
3.379634323e-11
3.000443859e-11
2.66982498e-11
2.380468556e-11
2.125376385e-11
1.900227212e-11
1.699972497e-11
1.522568698e-11
1.365886189e-11
1.226903961e-11
1.102916097e-11
9.921052395e-12
8.919396882e-12
8.021115511e-12
7.218509711e-12
6.496681699e-12
5.854581399e-12
5.279348113e-12
4.760281183e-12
4.292789521e-12
3.872650924e-12
3.49688205e-12
3.154494913e-12
2.842927253e-12
2.563442372e-12
2.310806247e-12
2.079731648e-12
1.871766436e-12
1.68692325e-12
1.510320117e-12
1.337766691e-12
1.176779533e-12
1.035552808e-12
9.185721172e-13
8.21266078e-13
7.34811409e-13
6.53414983e-13
5.767673465e-13
5.058205732e-13
4.38402513e-13
3.731515059e-13
3.133399422e-13
2.68107348e-13
2.334842521e-13
1.994886237e-13
1.660030146e-13
1.316496573e-13
1.059869529e-13
8.718257766e-14
7.666701054e-14
9.183802802e-14
2.061386636e-14
-7.154646456e-14
-1.044214857e-13
-1.379945836e-13
-1.44914045e-13
)


101
(
-2.207322987e-10
-3.600391033e-10
-5.604964815e-10
-6.414331462e-10
-6.591064907e-10
-6.436772776e-10
-6.076766709e-10
-5.576710776e-10
-4.982730068e-10
-4.3083329e-10
-3.560394062e-10
-2.752350638e-10
-1.882582908e-10
-9.586785709e-11
-1.583938595e-12
9.187873975e-11
1.81164694e-10
2.608326927e-10
3.257838924e-10
3.744184718e-10
4.058108214e-10
4.193622517e-10
4.181525884e-10
4.06314511e-10
3.867155488e-10
3.622420223e-10
3.353262122e-10
3.074317518e-10
2.796231784e-10
2.527069367e-10
2.271665408e-10
2.038100762e-10
1.820019055e-10
1.619726478e-10
1.443657547e-10
1.27512134e-10
1.105560425e-10
9.493419071e-11
8.253692414e-11
7.347477556e-11
6.649818837e-11
6.026767096e-11
5.426868588e-11
4.86258763e-11
4.335554648e-11
3.856298703e-11
3.433111402e-11
3.063579652e-11
2.741170217e-11
2.457670422e-11
2.207581946e-11
1.983961221e-11
1.784371205e-11
1.607331871e-11
1.45066126e-11
1.310222371e-11
1.184972346e-11
1.072239052e-11
9.706546858e-12
8.794438939e-12
7.962541049e-12
7.217804976e-12
6.547932037e-12
5.943030818e-12
5.404375427e-12
4.920014279e-12
4.478317604e-12
4.073439688e-12
3.702943794e-12
3.372969654e-12
3.075391264e-12
2.798535297e-12
2.544203835e-12
2.316418761e-12
2.109400924e-12
1.914249631e-12
1.723191943e-12
1.539667033e-12
1.37507627e-12
1.231940788e-12
1.111143211e-12
1.004092982e-12
9.032180283e-13
8.103455615e-13
7.236557014e-13
6.395672122e-13
5.543967769e-13
4.737786976e-13
4.133591936e-13
3.669412016e-13
3.201482581e-13
2.705004925e-13
2.197812664e-13
1.795358264e-13
1.689323512e-13
2.060565801e-13
1.96834122e-14
-2.134363702e-13
-2.827180681e-13
-3.474924328e-13
-3.568869677e-13
)


101
(
-2.171182193e-10
-3.54688932e-10
-5.534317933e-10
-6.349630819e-10
-6.539538606e-10
-6.401931875e-10
-6.061781944e-10
-5.584621584e-10
-5.015860049e-10
-4.369069985e-10
-3.650586048e-10
-2.872097771e-10
-2.033321454e-10
-1.139349307e-10
-2.196700697e-11
7.000622079e-11
1.588562169e-10
2.39884786e-10
3.077785289e-10
3.60507441e-10
3.970743311e-10
4.160154144e-10
4.198612063e-10
4.12431044e-10
3.963247707e-10
3.744023394e-10
3.492195165e-10
3.224050895e-10
2.951871422e-10
2.684693548e-10
2.4279822e-10
2.189741518e-10
1.964200137e-10
1.756732779e-10
1.574231905e-10
1.403195512e-10
1.235533998e-10
1.074568083e-10
9.342368003e-11
8.238133137e-11
7.398239545e-11
6.701539538e-11
6.06707117e-11
5.479684941e-11
4.923167704e-11
4.404104054e-11
3.935112881e-11
3.52081979e-11
3.160122079e-11
2.845022574e-11
2.568186375e-11
2.320054241e-11
2.096606637e-11
1.896457979e-11
1.719305745e-11
1.560896715e-11
1.419562876e-11
1.291866714e-11
1.17681953e-11
1.074244404e-11
9.792254009e-12
8.931493941e-12
8.15489728e-12
7.444344727e-12
6.813709603e-12
6.254427604e-12
5.745105456e-12
5.275723956e-12
4.83270083e-12
4.433857245e-12
4.083989073e-12
3.7600441e-12
3.457188427e-12
3.177692121e-12
2.923591929e-12
2.688181558e-12
2.463907712e-12
2.249529732e-12
2.042550699e-12
1.845405704e-12
1.669357736e-12
1.521201544e-12
1.389895227e-12
1.266787569e-12
1.151930607e-12
1.043975646e-12
9.361930229e-13
8.204171092e-13
7.15078626e-13
6.393851712e-13
5.726497155e-13
4.992504341e-13
4.267575954e-13
3.544530437e-13
3.334452511e-13
4.125295063e-13
2.939308517e-14
-4.610395632e-13
-7.290382346e-13
-9.912847349e-13
-1.02839654e-12
)


101
(
-2.135186651e-10
-3.493550039e-10
-5.463765028e-10
-6.284963451e-10
-6.488198926e-10
-6.367574836e-10
-6.047649331e-10
-5.593837508e-10
-5.050835448e-10
-4.432259758e-10
-3.743899834e-10
-2.995710162e-10
-2.188525514e-10
-1.325466947e-10
-4.308010841e-11
4.717658245e-11
1.353229933e-10
2.173190868e-10
2.878090738e-10
3.444014898e-10
3.859800762e-10
4.103415496e-10
4.194514555e-10
4.167791031e-10
4.045887508e-10
3.856439435e-10
3.62589019e-10
3.371881496e-10
3.108299301e-10
2.845406669e-10
2.589436157e-10
2.348662546e-10
2.116884704e-10
1.901971468e-10
1.712729098e-10
1.537653764e-10
1.3702583e-10
1.207416762e-10
1.056549486e-10
9.292481243e-11
8.292474892e-11
7.483820681e-11
6.784348715e-11
6.162078183e-11
5.577990647e-11
5.025024206e-11
4.512423002e-11
4.049927542e-11
3.645236325e-11
3.29312515e-11
2.986202097e-11
2.7124339e-11
2.464384336e-11
2.239108407e-11
2.03844259e-11
1.859845927e-11
1.700783437e-11
1.557031527e-11
1.426973936e-11
1.31041656e-11
1.202297953e-11
1.103896943e-11
1.014879734e-11
9.325488746e-12
8.581242349e-12
7.926829913e-12
7.34039536e-12
6.801795602e-12
6.290908186e-12
5.812734234e-12
5.384550111e-12
5.000316654e-12
4.64743919e-12
4.318038954e-12
4.010616263e-12
3.720059207e-12
3.449935329e-12
3.201714548e-12
2.958026826e-12
2.712597442e-12
2.473012261e-12
2.265036225e-12
2.089990285e-12
1.926417088e-12
1.775281757e-12
1.637254813e-12
1.502282207e-12
1.352055558e-12
1.192795169e-12
1.07126633e-12
9.792591243e-13
8.699998158e-13
7.593461511e-13
6.457187513e-13
6.322489365e-13
7.863088071e-13
-6.224222856e-14
-1.103243127e-12
-1.641163573e-12
-2.138969032e-12
-2.184725838e-12
)


101
(
-2.099337337e-10
-3.440373119e-10
-5.393301368e-10
-6.220312787e-10
-6.437011201e-10
-6.333646834e-10
-6.034292145e-10
-5.604246273e-10
-5.087508344e-10
-4.497753767e-10
-3.840204266e-10
-3.123074306e-10
-2.34813635e-10
-1.516980813e-10
-6.491402349e-11
2.339459186e-11
1.105586871e-10
1.931292036e-10
2.65833831e-10
3.260110835e-10
3.72406132e-10
4.021670755e-10
4.167004363e-10
4.191051792e-10
4.112489212e-10
3.957166101e-10
3.752030197e-10
3.515833851e-10
3.26392576e-10
3.007898915e-10
2.754909578e-10
2.513877263e-10
2.277672768e-10
2.055862896e-10
1.859645503e-10
1.679288182e-10
1.51054998e-10
1.34685447e-10
1.18975436e-10
1.049639624e-10
9.343849313e-11
8.400239037e-11
7.603743379e-11
6.924325018e-11
6.304494967e-11
5.719850758e-11
5.168919527e-11
4.659192296e-11
4.205858517e-11
3.810367372e-11
3.468441777e-11
3.165827939e-11
2.891460115e-11
2.640683442e-11
2.414702746e-11
2.211962671e-11
2.03257663e-11
1.87162031e-11
1.725819895e-11
1.594881558e-11
1.472528015e-11
1.360215558e-11
1.257872278e-11
1.162974236e-11
1.076133407e-11
9.99303396e-12
9.309616569e-12
8.689614538e-12
8.110019977e-12
7.552617783e-12
7.041006342e-12
6.582904703e-12
6.167930226e-12
5.784298091e-12
5.42294263e-12
5.072545597e-12
4.740176278e-12
4.44133273e-12
4.16044175e-12
3.880482699e-12
3.588196139e-12
3.305724469e-12
3.068281474e-12
2.855534214e-12
2.654559785e-12
2.4776119e-12
2.312174125e-12
2.125596167e-12
1.912462033e-12
1.722778751e-12
1.591658029e-12
1.45470454e-12
1.28674491e-12
1.121957157e-12
1.10754415e-12
1.358629265e-12
-3.073134418e-13
-2.338589143e-12
-3.50256421e-12
-4.562118446e-12
-4.635879754e-12
)


101
(
-2.063635309e-10
-3.387358658e-10
-5.32292249e-10
-6.155662764e-10
-6.385942701e-10
-6.300099495e-10
-6.021646497e-10
-5.615739982e-10
-5.125728021e-10
-4.565405833e-10
-3.939382857e-10
-3.254097815e-10
-2.512111654e-10
-1.713855192e-10
-8.746049859e-11
-1.333507129e-12
8.456203261e-11
1.673131809e-10
2.418208028e-10
3.052536641e-10
3.562292186e-10
3.913217819e-10
4.113840862e-10
4.191389371e-10
4.160212546e-10
4.043432917e-10
3.867986693e-10
3.653554287e-10
3.416788234e-10
3.170564048e-10
2.923030922e-10
2.684108975e-10
2.44566328e-10
2.218326247e-10
2.015521221e-10
1.829095995e-10
1.657456481e-10
1.492660564e-10
1.331983853e-10
1.183032281e-10
1.054789791e-10
9.465270759e-11
8.550033517e-11
7.788054104e-11
7.115035484e-11
6.492826963e-11
5.905727266e-11
5.351531339e-11
4.848465821e-11
4.405960859e-11
4.023158244e-11
3.685931336e-11
3.38380138e-11
3.106908571e-11
2.852915589e-11
2.623747814e-11
2.42168906e-11
2.24028925e-11
2.07636119e-11
1.929982219e-11
1.793133673e-11
1.667415814e-11
1.551303749e-11
1.44188335e-11
1.340369694e-11
1.24916861e-11
1.169352021e-11
1.098760173e-11
1.034672011e-11
9.720795985e-12
9.119757231e-12
8.561970208e-12
8.056419649e-12
7.618066693e-12
7.210489542e-12
6.80313779e-12
6.404854837e-12
6.042170525e-12
5.716580513e-12
5.399458308e-12
5.063257859e-12
4.70866851e-12
4.39494113e-12
4.12280982e-12
3.871598494e-12
3.63821998e-12
3.431456785e-12
3.214131946e-12
2.943829255e-12
2.688212959e-12
2.505570854e-12
2.312527736e-12
2.068540997e-12
1.846610248e-12
1.827891139e-12
2.268070967e-12
-8.283251458e-13
-4.64386201e-12
-7.084001428e-12
-9.412458452e-12
-9.665556534e-12
)


101
(
-2.028081649e-10
-3.334506769e-10
-5.252624182e-10
-6.090997723e-10
-6.334960537e-10
-6.266884017e-10
-6.009650915e-10
-5.628214955e-10
-5.165342677e-10
-4.635063359e-10
-4.041313459e-10
-3.388685899e-10
-2.680404516e-10
-1.916057233e-10
-1.10712159e-10
-2.700064783e-11
5.733435337e-11
1.398709827e-10
2.15745078e-10
2.820541769e-10
3.373246812e-10
3.776344996e-10
4.032752889e-10
4.165896311e-10
4.1858197e-10
4.11206622e-10
3.970872063e-10
3.782508643e-10
3.564759591e-10
3.331700298e-10
3.092435099e-10
2.858087829e-10
2.619707058e-10
2.388872852e-10
2.180609287e-10
1.987701768e-10
1.811656269e-10
1.644794998e-10
1.481842054e-10
1.327482356e-10
1.189606165e-10
1.068595575e-10
9.640502913e-11
8.77340246e-11
8.025054074e-11
7.352141336e-11
6.725499622e-11
6.129726396e-11
5.579448165e-11
5.086603213e-11
4.65580472e-11
4.277785232e-11
3.943870115e-11
3.639872812e-11
3.359596152e-11
3.101954398e-11
2.874124027e-11
2.669640025e-11
2.483238433e-11
2.319598951e-11
2.167466952e-11
2.027413842e-11
1.897877239e-11
1.774378109e-11
1.658216777e-11
1.550927615e-11
1.456476882e-11
1.374682985e-11
1.301946633e-11
1.232383689e-11
1.164636935e-11
1.10068254e-11
1.041052636e-11
9.883101888e-12
9.41144322e-12
8.960219947e-12
8.50754841e-12
8.064372122e-12
7.680371107e-12
7.340400039e-12
6.963055181e-12
6.539698815e-12
6.138463121e-12
5.800904705e-12
5.512348874e-12
5.201603616e-12
4.937531955e-12
4.695675823e-12
4.371231143e-12
4.050536275e-12
3.79776804e-12
3.535545953e-12
3.217817771e-12
2.926993308e-12
2.920369498e-12
3.558380976e-12
-1.993133067e-12
-8.745885428e-12
-1.338170102e-11
-1.82812197e-11
-1.925779156e-11
)


101
(
-1.99267764e-10
-3.281817835e-10
-5.182402885e-10
-6.026303577e-10
-6.284033501e-10
-6.233950553e-10
-5.998239571e-10
-5.64157963e-10
-5.206227869e-10
-4.706578268e-10
-4.145849767e-10
-3.526713678e-10
-2.852939191e-10
-2.123533846e-10
-1.34660409e-10
-5.359666536e-11
2.888235402e-11
1.108079069e-10
1.87592662e-10
2.563508232e-10
3.155682649e-10
3.609091822e-10
3.921251674e-10
4.111551209e-10
4.185791567e-10
4.159522176e-10
4.057443429e-10
3.899851781e-10
3.705383857e-10
3.489258434e-10
3.261565403e-10
3.034633227e-10
2.798631976e-10
2.566459872e-10
2.354505433e-10
2.155434174e-10
1.973863206e-10
1.803759763e-10
1.638811371e-10
1.48128576e-10
1.337088757e-10
1.205631967e-10
1.088282354e-10
9.896347136e-11
9.050622132e-11
8.309031809e-11
7.635493099e-11
6.998910879e-11
6.403020257e-11
5.857876894e-11
5.373920649e-11
4.947893094e-11
4.575812247e-11
4.24402938e-11
3.937639811e-11
3.64894842e-11
3.392652991e-11
3.16252264e-11
2.950937905e-11
2.766996605e-11
2.599107552e-11
2.443641381e-11
2.299839105e-11
2.164127448e-11
2.03527717e-11
1.910584207e-11
1.797225996e-11
1.699849529e-11
1.61613646e-11
1.540364197e-11
1.466846732e-11
1.394862919e-11
1.325205272e-11
1.262798872e-11
1.208928946e-11
1.15961357e-11
1.108760672e-11
1.057627589e-11
1.012810127e-11
9.750434851e-12
9.342477096e-12
8.868308802e-12
8.379093067e-12
7.962011468e-12
7.658072286e-12
7.290105104e-12
6.931036585e-12
6.651142414e-12
6.272377805e-12
5.899754317e-12
5.589419504e-12
5.229504696e-12
4.824036689e-12
4.445820218e-12
4.494906923e-12
5.477593699e-12
-4.313880928e-12
-1.604228261e-11
-2.383649105e-11
-3.115761231e-11
-3.185977942e-11
)


101
(
-1.957424536e-10
-3.229292221e-10
-5.11225503e-10
-5.961566307e-10
-6.233130515e-10
-6.20124931e-10
-5.987347004e-10
-5.655745603e-10
-5.248269285e-10
-4.779804029e-10
-4.252835916e-10
-3.66804423e-10
-3.029622282e-10
-2.336225308e-10
-1.592971865e-10
-8.110995794e-11
-7.824310747e-13
8.013297452e-11
1.573536874e-10
2.280913757e-10
2.90847008e-10
3.409510422e-10
3.776785109e-10
4.025240245e-10
4.156412637e-10
4.181996819e-10
4.124153572e-10
4.00233856e-10
3.835746853e-10
3.640693795e-10
3.428280924e-10
3.212047976e-10
2.980971583e-10
2.74971863e-10
2.536313404e-10
2.332303127e-10
2.144895759e-10
1.970366132e-10
1.802768174e-10
1.643048817e-10
1.495172926e-10
1.356194343e-10
1.227536044e-10
1.116606949e-10
1.020698467e-10
9.377734382e-11
8.644551575e-11
7.962664418e-11
7.321274135e-11
6.724263583e-11
6.184908863e-11
5.704404326e-11
5.28665909e-11
4.921471515e-11
4.584222863e-11
4.265545484e-11
3.982159975e-11
3.724652269e-11
3.484454095e-11
3.274097194e-11
3.087768371e-11
2.917233979e-11
2.759801692e-11
2.610719799e-11
2.468957408e-11
2.331456736e-11
2.199096909e-11
2.080577449e-11
1.981593426e-11
1.896215052e-11
1.817256803e-11
1.740419315e-11
1.66336918e-11
1.591410658e-11
1.528744251e-11
1.47286507e-11
1.415971828e-11
1.361550507e-11
1.312421335e-11
1.268256407e-11
1.225100859e-11
1.174853607e-11
1.117570486e-11
1.06793955e-11
1.037697401e-11
9.99429874e-12
9.511244242e-12
9.138708562e-12
8.760967126e-12
8.373709335e-12
7.962355302e-12
7.50538229e-12
7.02519988e-12
6.522280459e-12
6.617146964e-12
8.006337373e-12
-8.355961678e-12
-2.784983955e-11
-4.091173009e-11
-5.383754537e-11
-5.582506287e-11
)


101
(
-1.922323713e-10
-3.176930489e-10
-5.042177331e-10
-5.896772115e-10
-6.182220241e-10
-6.168728845e-10
-5.976906788e-10
-5.670633026e-10
-5.291360461e-10
-4.854585989e-10
-4.3621078e-10
-3.812537411e-10
-3.210348144e-10
-2.554060532e-10
-1.846141774e-10
-1.095301924e-10
-3.164809526e-11
4.785766089e-11
1.250233922e-10
1.972414132e-10
2.630786908e-10
3.176037666e-10
3.597105785e-10
3.904245146e-10
4.094384954e-10
4.175477283e-10
4.166644201e-10
4.085749627e-10
3.9520286e-10
3.782668591e-10
3.589636315e-10
3.387717585e-10
3.164589184e-10
2.936948684e-10
2.724747139e-10
2.517839119e-10
2.325296572e-10
2.145598301e-10
1.973977978e-10
1.811780302e-10
1.661984957e-10
1.518427291e-10
1.380956894e-10
1.258698678e-10
1.150760572e-10
1.057227686e-10
9.760526167e-11
9.023234878e-11
8.334506076e-11
7.687015621e-11
7.092227737e-11
6.552569829e-11
6.081022626e-11
5.673083882e-11
5.302330533e-11
4.953337944e-11
4.642428515e-11
4.357363121e-11
4.085901294e-11
3.844826786e-11
3.634296628e-11
3.445905664e-11
3.274120114e-11
3.113857149e-11
2.958277655e-11
2.807540418e-11
2.661003393e-11
2.520795984e-11
2.401982332e-11
2.302297788e-11
2.21382258e-11
2.134586424e-11
2.055459585e-11
1.976434014e-11
1.9027946e-11
1.837002144e-11
1.774930823e-11
1.716369797e-11
1.664845394e-11
1.619916865e-11
1.574531293e-11
1.521701375e-11
1.460623358e-11
1.400971033e-11
1.366430732e-11
1.336420035e-11
1.282699879e-11
1.230027256e-11
1.190265914e-11
1.155521187e-11
1.103258799e-11
1.044227732e-11
9.926567887e-12
9.305807512e-12
9.434849072e-12
1.125448102e-11
-1.545745039e-11
-4.692948267e-11
-6.706583663e-11
-8.621834236e-11
-8.869110075e-11
)


101
(
-1.887376669e-10
-3.124733327e-10
-4.97216663e-10
-5.831907429e-10
-6.13127135e-10
-6.136334427e-10
-5.966847089e-10
-5.686179199e-10
-5.33542487e-10
-4.930750338e-10
-4.473469433e-10
-3.960043921e-10
-3.394971655e-10
-2.776918515e-10
-2.106015412e-10
-1.388527436e-10
-6.371615393e-11
1.398448124e-11
9.060233038e-11
1.637917469e-10
2.322278888e-10
2.907634715e-10
3.380139215e-10
3.745536841e-10
3.99603238e-10
4.135723305e-10
4.18027172e-10
4.145361841e-10
4.049771477e-10
3.911220834e-10
3.742148833e-10
3.558499632e-10
3.346710632e-10
3.125878274e-10
2.918090467e-10
2.71105429e-10
2.514976996e-10
2.329991286e-10
2.152942945e-10
1.987122096e-10
1.835962147e-10
1.690147688e-10
1.54683432e-10
1.415422767e-10
1.295934762e-10
1.190582459e-10
1.099504827e-10
1.018532915e-10
9.441063447e-11
8.744135919e-11
8.097489123e-11
7.494820757e-11
6.961039667e-11
6.502593295e-11
6.09387627e-11
5.708910525e-11
5.367275383e-11
5.055483588e-11
4.752814229e-11
4.47777005e-11
4.237491363e-11
4.028991695e-11
3.839476267e-11
3.663426214e-11
3.49598204e-11
3.336584457e-11
3.177029168e-11
3.019501643e-11
2.878049961e-11
2.756036926e-11
2.652884396e-11
2.568812768e-11
2.492212574e-11
2.4137103e-11
2.335290735e-11
2.256961701e-11
2.180375954e-11
2.117984979e-11
2.068569782e-11
2.026359114e-11
1.982084804e-11
1.929273832e-11
1.870489083e-11
1.802105147e-11
1.757291308e-11
1.739805237e-11
1.693743719e-11
1.627111097e-11
1.576457856e-11
1.549372576e-11
1.493053576e-11
1.422987066e-11
1.364007054e-11
1.288103557e-11
1.307562819e-11
1.526570718e-11
-2.684658629e-11
-7.597569042e-11
-1.053245391e-10
-1.339665538e-10
-1.38776539e-10
)


101
(
-1.85258495e-10
-3.072701501e-10
-4.902219883e-10
-5.76695867e-10
-6.080252673e-10
-6.104011656e-10
-5.957094292e-10
-5.702320293e-10
-5.380397291e-10
-5.008129087e-10
-4.586714625e-10
-4.110410083e-10
-3.583340875e-10
-3.004663248e-10
-2.372475745e-10
-1.69070714e-10
-9.698824048e-11
-2.148537134e-11
5.408641995e-11
1.277307903e-10
1.982709272e-10
2.603513659e-10
3.124101194e-10
3.546173126e-10
3.857470163e-10
4.058218198e-10
4.160236321e-10
4.176384395e-10
4.124276598e-10
4.021774662e-10
3.881613875e-10
3.72081369e-10
3.52426351e-10
3.3137152e-10
3.11383386e-10
2.909948895e-10
2.712807981e-10
2.523370724e-10
2.340073359e-10
2.169164687e-10
2.016010796e-10
1.869101979e-10
1.722719707e-10
1.585208888e-10
1.455866106e-10
1.338546403e-10
1.236046638e-10
1.145800081e-10
1.064454248e-10
9.894446814e-11
9.195903285e-11
8.528145675e-11
7.926509356e-11
7.408226187e-11
6.95042808e-11
6.524384406e-11
6.148949473e-11
5.812258859e-11
5.481789994e-11
5.1684612e-11
4.891338464e-11
4.659175203e-11
4.448783214e-11
4.250586583e-11
4.071904682e-11
3.904263802e-11
3.73652339e-11
3.564152628e-11
3.398213478e-11
3.255215716e-11
3.131333562e-11
3.03379084e-11
2.955907313e-11
2.884470614e-11
2.814997902e-11
2.729688857e-11
2.635681249e-11
2.5618186e-11
2.509165152e-11
2.479391459e-11
2.448231333e-11
2.395983644e-11
2.339914758e-11
2.277536605e-11
2.224371953e-11
2.205901649e-11
2.18251973e-11
2.117582754e-11
2.043366921e-11
2.028906548e-11
1.973074226e-11
1.903658354e-11
1.844751474e-11
1.74050426e-11
1.762993233e-11
2.036563626e-11
-4.353094046e-11
-1.176762508e-10
-1.587176016e-10
-2.030206413e-10
-2.148065495e-10
)


101
(
-1.817950264e-10
-3.020835972e-10
-4.832334306e-10
-5.701912283e-10
-6.029132334e-10
-6.071706417e-10
-5.947573626e-10
-5.71899175e-10
-5.426222164e-10
-5.08658923e-10
-4.701614196e-10
-4.263439625e-10
-3.775330558e-10
-3.23719244e-10
-2.645424884e-10
-2.001695387e-10
-1.314473053e-10
-5.852974896e-11
1.551899884e-11
8.908223592e-11
1.611682084e-10
2.262492742e-10
2.826970618e-10
3.303310785e-10
3.674812813e-10
3.938243378e-10
4.101462348e-10
4.173687836e-10
4.170459917e-10
4.10922324e-10
4.00303231e-10
3.870281714e-10
3.693541612e-10
3.497121359e-10
3.308894689e-10
3.111781017e-10
2.9168043e-10
2.724809781e-10
2.535376216e-10
2.358065907e-10
2.201583992e-10
2.053637149e-10
1.905938899e-10
1.765272599e-10
1.628826257e-10
1.500833872e-10
1.386208802e-10
1.284903854e-10
1.19502141e-10
1.113380534e-10
1.037798865e-10
9.64770442e-11
8.974626514e-11
8.385267212e-11
7.866909489e-11
7.39059313e-11
6.974699076e-11
6.611096424e-11
6.256815388e-11
5.911269305e-11
5.591425679e-11
5.322136463e-11
5.082528998e-11
4.858748925e-11
4.668306021e-11
4.494550283e-11
4.318685168e-11
4.131267999e-11
3.947319895e-11
3.785349624e-11
3.63601822e-11
3.518311162e-11
3.428622097e-11
3.358899715e-11
3.313634289e-11
3.245410422e-11
3.142466367e-11
3.041272934e-11
2.975222469e-11
2.961456457e-11
2.951955938e-11
2.919490829e-11
2.869303491e-11
2.809867025e-11
2.76641825e-11
2.753316224e-11
2.751298373e-11
2.711905442e-11
2.618322532e-11
2.611962538e-11
2.567869977e-11
2.497551578e-11
2.449784679e-11
2.317419424e-11
2.338237041e-11
2.687420076e-11
-6.719081377e-11
-1.756289787e-10
-2.306019753e-10
-2.811930669e-10
-2.887092625e-10
)


101
(
-1.783474469e-10
-2.969137877e-10
-4.762507263e-10
-5.636755006e-10
-5.977878984e-10
-6.03936489e-10
-5.938207763e-10
-5.736126039e-10
-5.472851942e-10
-5.166024548e-10
-4.817926584e-10
-4.418898168e-10
-3.970829765e-10
-3.474432111e-10
-2.924783462e-10
-2.321316496e-10
-1.670604293e-10
-9.710713968e-11
-2.503322979e-11
4.788545742e-11
1.208818173e-10
1.883397298e-10
2.486742891e-10
3.014216448e-10
3.4442655e-10
3.771019265e-10
3.998584149e-10
4.13153029e-10
4.182467747e-10
4.16800646e-10
4.101246228e-10
4.001964736e-10
3.850004103e-10
3.671984823e-10
3.499292146e-10
3.312757923e-10
3.123871522e-10
2.932456099e-10
2.738143866e-10
2.553987748e-10
2.392777517e-10
2.242440273e-10
2.093812716e-10
1.952553724e-10
1.812206145e-10
1.675687434e-10
1.549212122e-10
1.435919961e-10
1.335923591e-10
1.24574974e-10
1.163309712e-10
1.084137996e-10
1.009557805e-10
9.42678937e-11
8.840758497e-11
8.298936107e-11
7.825600594e-11
7.429599311e-11
7.055988308e-11
6.681521015e-11
6.316565878e-11
5.998926783e-11
5.716717664e-11
5.469190877e-11
5.25693191e-11
5.067991146e-11
4.895048513e-11
4.700914784e-11
4.502545758e-11
4.317157007e-11
4.142118824e-11
4.001054348e-11
3.887898511e-11
3.810094732e-11
3.786270719e-11
3.766270171e-11
3.677377464e-11
3.552573705e-11
3.465545063e-11
3.442058428e-11
3.463397194e-11
3.488178942e-11
3.457888531e-11
3.403107094e-11
3.37998116e-11
3.386575456e-11
3.410784952e-11
3.422403519e-11
3.334514715e-11
3.317585871e-11
3.308858861e-11
3.244987688e-11
3.20758376e-11
3.066408232e-11
3.062485468e-11
3.466726634e-11
-9.931211583e-11
-2.527780072e-10
-3.257944267e-10
-3.963080262e-10
-4.105331565e-10
)


101
(
-1.749159341e-10
-2.917609874e-10
-4.692735924e-10
-5.571471658e-10
-5.926461592e-10
-6.006933823e-10
-5.928917213e-10
-5.753637354e-10
-5.520228174e-10
-5.246367332e-10
-4.935436966e-10
-4.576524867e-10
-4.169698749e-10
-3.716286038e-10
-3.210460058e-10
-2.649413427e-10
-2.037996865e-10
-1.37185794e-10
-6.750565932e-11
4.19140648e-12
7.738970007e-11
1.465415761e-10
2.101808306e-10
2.676533923e-10
3.162572483e-10
3.55194515e-10
3.845766552e-10
4.043326331e-10
4.153465433e-10
4.191674997e-10
4.170514321e-10
4.110420736e-10
3.98839936e-10
3.833455352e-10
3.680348548e-10
3.508228841e-10
3.329751833e-10
3.143266405e-10
2.947064684e-10
2.756689885e-10
2.589415101e-10
2.434844692e-10
2.284390278e-10
2.143600261e-10
2.002170233e-10
1.860171214e-10
1.72355352e-10
1.597921256e-10
1.486132937e-10
1.385672842e-10
1.295001159e-10
1.209043467e-10
1.127176508e-10
1.051724836e-10
9.852024478e-11
9.23220661e-11
8.687553951e-11
8.241705541e-11
7.839524209e-11
7.443182794e-11
7.039566419e-11
6.663749137e-11
6.324434062e-11
6.042388853e-11
5.798883964e-11
5.595347772e-11
5.424328489e-11
5.225544395e-11
5.010067575e-11
4.802568335e-11
4.616297054e-11
4.452717973e-11
4.309191005e-11
4.215061523e-11
4.195653809e-11
4.211286717e-11
4.184010087e-11
4.084968815e-11
3.966056437e-11
3.90763435e-11
3.963756648e-11
4.066615923e-11
4.085585728e-11
4.060065306e-11
4.068131451e-11
4.130164145e-11
4.189988919e-11
4.268106761e-11