/*--------------------------------*- C++ -*----------------------------------*\
| =========                 |                                                 |
| \\      /  F ield         | OpenFOAM: The Open Source CFD Toolbox           |
|  \\    /   O peration     | Version:  2.3.1                                 |
|   \\  /    A nd           | Web:      www.OpenFOAM.org                      |
|    \\/     M anipulation  |                                                 |
\*---------------------------------------------------------------------------*/
FoamFile
{
    version     2.0;
    format      ascii;
    class       dictionary;
    location    "constant";
    object      DPSI18;
}
// * * * * * * * * * * * * * * * * * * * * * * * * * * * * * * * * * * * * * //

DPSI18_table
101
(

101
(
-2.588039361e-12
-1.579619998e-11
-6.496525298e-11
-1.600251179e-10
-2.972481617e-10
-4.700458465e-10
-6.89763835e-10
-9.66453213e-10
-1.310676546e-09
-1.750072654e-09
-2.322714109e-09
-3.064983121e-09
-4.053675661e-09
-5.333415921e-09
-6.892288342e-09
-8.742139585e-09
-1.087168445e-08
-1.304838581e-08
-1.529113736e-08
-1.744794503e-08
-1.924289661e-08
-2.083365678e-08
-2.211841234e-08
-2.299905008e-08
-2.35501732e-08
-2.381651595e-08
-2.383706314e-08
-2.364762149e-08
-2.328427416e-08
-2.278119546e-08
-2.217261124e-08
-2.153069936e-08
-2.071913407e-08
-1.980957738e-08
-1.893991315e-08
-1.802419641e-08
-1.711887443e-08
-1.617393933e-08
-1.511890688e-08
-1.402028733e-08
-1.301743275e-08
-1.200826076e-08
-1.092886604e-08
-9.916336202e-09
-8.887002746e-09
-7.84183655e-09
-6.79582007e-09
-5.740402957e-09
-4.691283551e-09
-3.650509145e-09
-2.637727834e-09
-1.6200814e-09
-6.215128599e-10
3.510856489e-10
1.301497892e-09
2.297695605e-09
3.237459876e-09
4.143117692e-09
5.062432011e-09
5.94282431e-09
6.815768999e-09
7.646650198e-09
8.465733867e-09
9.266070465e-09
1.0043209e-08
1.0794808e-08
1.151488351e-08
1.222675554e-08
1.291078784e-08
1.356147917e-08
1.419613929e-08
1.481869534e-08
1.540390426e-08
1.593965008e-08
1.643510012e-08
1.692162112e-08
1.740669832e-08
1.78459286e-08
1.824728938e-08
1.862234182e-08
1.899136216e-08
1.933346184e-08
1.964418808e-08
1.99239679e-08
2.016503974e-08
2.039214978e-08
2.060064732e-08
2.078983903e-08
2.096648999e-08
2.110757351e-08
2.122113988e-08
2.133634776e-08
2.14323916e-08
2.151078304e-08
2.157099599e-08
2.160542057e-08
1.081541765e-08
-1.15844217e-16
6.185927179e-26
6.958910955e-27
-1.373334593e-25
)


101
(
-2.412335757e-12
-1.518168012e-11
-6.285016799e-11
-1.551581545e-10
-2.884763072e-10
-4.562847202e-10
-6.688317015e-10
-9.358030958e-10
-1.266803994e-09
-1.687229015e-09
-2.232573943e-09
-2.938050039e-09
-3.873554683e-09
-5.087496911e-09
-6.57614996e-09
-8.349589289e-09
-1.040171789e-08
-1.254982393e-08
-1.476122878e-08
-1.693182664e-08
-1.881847555e-08
-2.047024774e-08
-2.185097966e-08
-2.287405128e-08
-2.355829489e-08
-2.394939593e-08
-2.408887035e-08
-2.400868844e-08
-2.374564524e-08
-2.33339026e-08
-2.280533975e-08
-2.222415485e-08
-2.1492524e-08
-2.065425325e-08
-1.982049389e-08
-1.894499969e-08
-1.806306534e-08
-1.715131558e-08
-1.615341355e-08
-1.509575904e-08
-1.407872355e-08
-1.307346714e-08
-1.202404462e-08
-1.099321882e-08
-9.962385425e-09
-8.917718073e-09
-7.865430549e-09
-6.802967024e-09
-5.73842657e-09
-4.676170302e-09
-3.62890831e-09
-2.586026838e-09
-1.551178074e-09
-5.327756023e-10
4.66448644e-10
1.477204436e-09
2.476555854e-09
3.446018199e-09
4.406307566e-09
5.34918423e-09
6.276291233e-09
7.179184735e-09
8.060509663e-09
8.924541072e-09
9.769478184e-09
1.059275301e-08
1.139018411e-08
1.216780996e-08
1.292626025e-08
1.365828095e-08
1.436523806e-08
1.505212596e-08
1.571395942e-08
1.634141917e-08
1.693325131e-08
1.749942273e-08
1.804964641e-08
1.857253508e-08
1.905913904e-08
1.951511627e-08
1.995030994e-08
2.036323985e-08
2.074905439e-08
2.110807051e-08
2.143408605e-08
2.17289604e-08
2.199949392e-08
2.224866408e-08
2.24773519e-08
2.26867944e-08
2.286645929e-08
2.301960214e-08
2.316157915e-08
2.328484651e-08
2.336219832e-08
2.336777757e-08
1.084379331e-08
-1.790852766e-09
-1.980629654e-09
-2.165393446e-09
-2.264242525e-09
)


101
(
-2.243033595e-12
-1.458325072e-11
-6.078125682e-11
-1.503901808e-10
-2.798818055e-10
-4.428168853e-10
-6.484169871e-10
-9.059926532e-10
-1.224289554e-09
-1.626583969e-09
-2.14589052e-09
-2.81608243e-09
-3.700786104e-09
-4.850645814e-09
-6.269355376e-09
-7.966252255e-09
-9.939301773e-09
-1.204705008e-08
-1.422446345e-08
-1.639533669e-08
-1.835283662e-08
-2.006799605e-08
-2.153361819e-08
-2.268363645e-08
-2.349953578e-08
-2.401604041e-08
-2.427501962e-08
-2.430615745e-08
-2.414581591e-08
-2.382820532e-08
-2.338361205e-08
-2.287064115e-08
-2.22130141e-08
-2.14486501e-08
-2.066600377e-08
-1.983374804e-08
-1.898383501e-08
-1.810380018e-08
-1.715320721e-08
-1.614247553e-08
-1.513950153e-08
-1.413969321e-08
-1.311117162e-08
-1.208450486e-08
-1.105307522e-08
-1.001067788e-08
-8.958204905e-09
-7.893622965e-09
-6.821942196e-09
-5.746910151e-09
-4.677739295e-09
-3.612418163e-09
-2.551389331e-09
-1.498881975e-09
-4.594524586e-10
5.785221135e-10
1.614285403e-09
2.633968007e-09
3.639766429e-09
4.632042984e-09
5.609977659e-09
6.570467281e-09
7.51100783e-09
8.43381806e-09
9.339522975e-09
1.022681713e-08
1.109272404e-08
1.193690435e-08
1.276267283e-08
1.356720229e-08
1.434707098e-08
1.510241909e-08
1.583297385e-08
1.653566165e-08
1.721015044e-08
1.78597449e-08
1.848741142e-08
1.908909225e-08
1.965658292e-08
2.019251113e-08
2.070328447e-08
2.118906844e-08
2.164715705e-08
2.208026844e-08
2.248679983e-08
2.286229679e-08
2.320575155e-08
2.352150362e-08
2.381076984e-08
2.408062232e-08
2.432649381e-08
2.454043619e-08
2.473091824e-08
2.490129158e-08
2.499056188e-08
2.49466263e-08
1.064390034e-08
-3.8406703e-09
-4.221436026e-09
-4.590253789e-09
-4.778907118e-09
)


101
(
-2.08004099e-12
-1.400072036e-11
-5.875800428e-11
-1.457199718e-10
-2.714618674e-10
-4.296360701e-10
-6.28504759e-10
-8.769956344e-10
-1.183084084e-09
-1.568055342e-09
-2.06254447e-09
-2.698959673e-09
-3.535211661e-09
-4.6229194e-09
-5.972317735e-09
-7.592825274e-09
-9.485632258e-09
-1.154326966e-08
-1.368241634e-08
-1.584242935e-08
-1.785131016e-08
-1.962710324e-08
-2.116929627e-08
-2.243196574e-08
-2.337432935e-08
-2.40156487e-08
-2.439445201e-08
-2.453839992e-08
-2.448289943e-08
-2.426197486e-08
-2.390480027e-08
-2.346608349e-08
-2.288094469e-08
-2.219043596e-08
-2.14684796e-08
-2.068585529e-08
-1.987543734e-08
-1.90295622e-08
-1.81206985e-08
-1.715666637e-08
-1.618428316e-08
-1.520011081e-08
-1.419022006e-08
-1.317756782e-08
-1.215289749e-08
-1.111586393e-08
-1.006761277e-08
-9.005623819e-09
-7.933266311e-09
-6.852962302e-09
-5.771774401e-09
-4.690549192e-09
-3.610834331e-09
-2.534291232e-09
-1.46447763e-09
-3.984578431e-10
6.659015027e-10
1.722475884e-09
2.768600311e-09
3.803294851e-09
4.825879596e-09
5.83492196e-09
6.827343297e-09
7.803248897e-09
8.763405859e-09
9.70767491e-09
1.063419793e-08
1.154054033e-08
1.242898379e-08
1.32986989e-08
1.414632414e-08
1.496924006e-08
1.576649628e-08
1.653750857e-08
1.728423671e-08
1.800987628e-08
1.871468008e-08
1.93947131e-08
2.004191487e-08
2.065727405e-08
2.124566366e-08
2.180685878e-08
2.233871401e-08
2.284492997e-08
2.332648508e-08
2.378155535e-08
2.420584961e-08
2.459751891e-08
2.495421042e-08
2.528888264e-08
2.559804163e-08
2.587665627e-08
2.612856941e-08
2.634647889e-08
2.644092815e-08
2.633367283e-08
1.021796162e-08
-6.131673701e-09
-6.706566087e-09
-7.261003013e-09
-7.531687881e-09
)


101
(
-1.923266176e-12
-1.343389793e-11
-5.67799012e-11
-1.411463366e-10
-2.632138071e-10
-4.167362614e-10
-6.090807036e-10
-8.487867206e-10
-1.143140152e-09
-1.511562333e-09
-1.98241503e-09
-2.586550683e-09
-3.376658063e-09
-4.404316787e-09
-5.685370849e-09
-7.229930023e-09
-9.041796581e-09
-1.104134768e-08
-1.313704129e-08
-1.527663376e-08
-1.731910137e-08
-1.914905065e-08
-2.076049714e-08
-2.21230077e-08
-2.318424622e-08
-2.394801965e-08
-2.444633077e-08
-2.470404055e-08
-2.475516069e-08
-2.463320706e-08
-2.436648613e-08
-2.400698137e-08
-2.349524494e-08
-2.287821196e-08
-2.222310597e-08
-2.149617376e-08
-2.073161941e-08
-1.99249402e-08
-1.905616783e-08
-1.813697211e-08
-1.720356665e-08
-1.624557899e-08
-1.525754766e-08
-1.42645653e-08
-1.325389056e-08
-1.222721211e-08
-1.118745424e-08
-1.013241645e-08
-9.064813278e-09
-7.985753733e-09
-6.900653125e-09
-5.810775907e-09
-4.719252903e-09
-3.62703713e-09
-2.536238882e-09
-1.446956784e-09
-3.591382585e-10
7.249660147e-10
1.803264999e-09
2.87323525e-09
3.933837708e-09
4.984003146e-09
6.020938164e-09
7.043492669e-09
8.051753718e-09
9.04613939e-09
1.002587399e-08
1.09882215e-08
1.193421845e-08
1.286311006e-08
1.377225683e-08
1.465826765e-08
1.551887589e-08
1.635404173e-08
1.716711611e-08
1.79620435e-08
1.873842818e-08
1.949277658e-08
2.021694145e-08
2.091079819e-08
2.157768972e-08
2.221535363e-08
2.282209393e-08
2.340237311e-08
2.39575133e-08
2.448868504e-08
2.499292826e-08
2.546680749e-08
2.589969735e-08
2.63045485e-08
2.667889286e-08
2.702014927e-08
2.733924743e-08
2.761258167e-08
2.770464367e-08
2.752039877e-08
9.572641994e-09
-8.6482672e-09
-9.420008648e-09
-1.01618134e-08
-1.050825733e-08
)


101
(
-1.772616589e-12
-1.288259231e-11
-5.48464438e-11
-1.36668112e-10
-2.55135033e-10
-4.041116977e-10
-5.901311151e-10
-8.213415451e-10
-1.104412106e-09
-1.457025896e-09
-1.905381337e-09
-2.478715651e-09
-3.224938463e-09
-4.194786062e-09
-5.408769661e-09
-6.87811142e-09
-8.608776929e-09
-1.054383707e-08
-1.259052235e-08
-1.470121661e-08
-1.676122123e-08
-1.863630248e-08
-2.030962615e-08
-2.176047371e-08
-2.293162565e-08
-2.381368295e-08
-2.443018969e-08
-2.48019717e-08
-2.496104717e-08
-2.494006451e-08
-2.476645272e-08
-2.449026441e-08
-2.405410713e-08
-2.351059102e-08
-2.292543586e-08
-2.225987783e-08
-2.154760335e-08
-2.07853519e-08
-1.995797039e-08
-1.908252617e-08
-1.819185757e-08
-1.726802148e-08
-1.63073864e-08
-1.533905877e-08
-1.434855219e-08
-1.333785481e-08
-1.231131976e-08
-1.126757626e-08
-1.020950774e-08
-9.137389868e-09
-8.055337226e-09
-6.963892408e-09
-5.867218721e-09
-4.7665186e-09
-3.662965919e-09
-2.557185652e-09
-1.451595435e-09
-3.472239232e-10
7.55212047e-10
1.852715076e-09
2.94413612e-09
4.028250192e-09
5.102570294e-09
6.165238484e-09
7.215382858e-09
8.253249358e-09
9.278873548e-09
1.029019294e-08
1.128781194e-08
1.227027828e-08
1.323498637e-08
1.417839708e-08
1.509734633e-08
1.599184132e-08
1.686637097e-08
1.772574726e-08
1.856840032e-08
1.939106328e-08
2.018693591e-08
2.09558921e-08
2.170075644e-08
2.241568135e-08
2.309765232e-08
2.375252892e-08
2.438118515e-08
2.498659395e-08
2.556826878e-08
2.612372984e-08
2.663830149e-08
2.712089065e-08
2.756417446e-08
2.796910966e-08
2.835496073e-08
2.868822487e-08
2.877381066e-08
2.849671542e-08
8.71043135e-09
-1.137461522e-08
-1.234105011e-08
-1.326700023e-08
-1.368311094e-08
)


101
(
-1.627999552e-12
-1.23466131e-11
-5.295713463e-11
-1.322841644e-10
-2.472230501e-10
-3.917568702e-10
-5.71642882e-10
-7.946366814e-10
-1.066856059e-09
-1.404368917e-09
-1.831322736e-09
-2.375307664e-09
-3.079853555e-09
-3.994228657e-09
-5.142691849e-09
-6.537829999e-09
-8.18744439e-09
-1.005299773e-08
-1.20451581e-08
-1.411927392e-08
-1.618242971e-08
-1.809204969e-08
-1.981927866e-08
-2.134787594e-08
-2.26192944e-08
-2.361387611e-08
-2.434605281e-08
-2.483142216e-08
-2.509923825e-08
-2.518082465e-08
-2.51026517e-08
-2.491327157e-08
-2.455543095e-08
-2.408622778e-08
-2.357280067e-08
-2.297269007e-08
-2.231824467e-08
-2.160593745e-08
-2.082308862e-08
-1.999180612e-08
-1.914569944e-08
-1.826130482e-08
-1.733362564e-08
-1.639490852e-08
-1.54300506e-08
-1.44409035e-08
-1.34325951e-08
-1.240459063e-08
-1.13604903e-08
-1.030039223e-08
-9.227533129e-09
-8.14119236e-09
-7.045908152e-09
-5.943334744e-09
-4.834258402e-09
-3.718866966e-09
-2.601676289e-09
-1.48362784e-09
-3.643816443e-10
7.529449613e-10
1.867594726e-09
2.978190101e-09
4.08264666e-09
5.178747031e-09
6.264663611e-09
7.33981446e-09
8.404384415e-09
9.457327466e-09
1.049962138e-08
1.15295473e-08
1.25441084e-08
1.353928216e-08
1.451100075e-08
1.545916503e-08
1.638953443e-08
1.730833175e-08
1.821269072e-08
1.909842672e-08
1.995999964e-08
2.079850796e-08
2.161773827e-08
2.240901416e-08
2.316640937e-08
2.389602101e-08
2.459833905e-08
2.527702789e-08
2.593351716e-08
2.656791352e-08
2.716550304e-08
2.773096002e-08
2.824769521e-08
2.871901507e-08
2.917088014e-08
2.956627449e-08
2.964082586e-08
2.925507388e-08
7.63901476e-09
-1.428891855e-08
-1.54535669e-08
-1.656713596e-08
-1.704920492e-08
)


101
(
-1.489322183e-12
-1.182576904e-11
-5.111147805e-11
-1.279933796e-10
-2.394754435e-10
-3.796665015e-10
-5.53603464e-10
-7.686495931e-10
-1.030429832e-09
-1.353516474e-09
-1.760119517e-09
-2.27617424e-09
-2.941193041e-09
-3.802503257e-09
-4.887239946e-09
-6.209459944e-09
-7.778557042e-09
-9.570807704e-09
-1.150325826e-08
-1.353378674e-08
-1.558723517e-08
-1.75199714e-08
-1.929234808e-08
-2.088862634e-08
-2.22503854e-08
-2.335046841e-08
-2.419451311e-08
-2.479203939e-08
-2.51687215e-08
-2.535400784e-08
-2.537320646e-08
-2.527357828e-08
-2.499698844e-08
-2.460359515e-08
-2.416319281e-08
-2.363129243e-08
-2.303905328e-08
-2.238185552e-08
-2.164764975e-08
-2.086238512e-08
-2.006232073e-08
-1.922082928e-08
-1.833076553e-08
-1.742631056e-08
-1.64920576e-08
-1.5529762e-08
-1.454479184e-08
-1.35371023e-08
-1.251118573e-08
-1.146754582e-08
-1.040923745e-08
-9.334280033e-09
-8.246856588e-09
-7.148784309e-09
-6.040858851e-09
-4.922574358e-09
-3.799865228e-09
-2.674186523e-09
-1.544856292e-09
-4.149947218e-10
7.152646906e-10
1.844590477e-09
2.971539594e-09
4.093988236e-09
5.209428876e-09
6.316061361e-09
7.413319615e-09
8.500740161e-09
9.580231604e-09
1.065067398e-08
1.170884858e-08
1.275002337e-08
1.376903086e-08
1.476516257e-08
1.574519564e-08
1.671744432e-08
1.767856462e-08
1.862268511e-08
1.954422519e-08
2.044603127e-08
2.13341715e-08
2.219837488e-08
2.302970293e-08
2.38333449e-08
2.46090255e-08
2.536111275e-08
2.609074679e-08
2.680102179e-08
2.747889597e-08
2.81301082e-08
2.872492604e-08
2.926395375e-08
2.978189536e-08
3.023973447e-08
3.029985826e-08
2.97910384e-08
6.361671028e-09
-1.737809009e-08
-1.873599628e-08
-2.003266306e-08
-2.057751392e-08
)


101
(
-1.356490959e-12
-1.131986953e-11
-4.930898536e-11
-1.237946732e-10
-2.318898923e-10
-3.678355662e-10
-5.360009256e-10
-7.433586978e-10
-9.950930959e-10
-1.304396159e-09
-1.691653938e-09
-2.181159216e-09
-2.80873795e-09
-3.619431459e-09
-4.642445124e-09
-5.89329024e-09
-7.382760644e-09
-9.098991474e-09
-1.096707046e-08
-1.294762729e-08
-1.497992594e-08
-1.692407813e-08
-1.873208181e-08
-2.038617104e-08
-2.18282534e-08
-2.302585992e-08
-2.397674473e-08
-2.468395596e-08
-2.516885025e-08
-2.545840105e-08
-2.557645461e-08
-2.556901445e-08
-2.537654301e-08
-2.506096041e-08
-2.469488449e-08
-2.423312175e-08
-2.370629837e-08
-2.31085688e-08
-2.242736541e-08
-2.169108109e-08
-2.093898456e-08
-2.014299282e-08
-1.929419225e-08
-1.842802317e-08
-1.752872579e-08
-1.659810696e-08
-1.564149941e-08
-1.465891576e-08
-1.365553621e-08
-1.263238247e-08
-1.159301534e-08
-1.053488083e-08
-9.461563196e-09
-8.374375333e-09
-7.274026977e-09
-6.159350448e-09
-5.037326345e-09
-3.90986551e-09
-2.776413965e-09
-1.640545515e-09
-5.018789182e-10
6.384794574e-10
1.779965528e-09
2.921031219e-09
4.059132178e-09
5.191387965e-09
6.315772812e-09
7.431338479e-09
8.540555023e-09
9.643706534e-09
1.073844776e-08
1.181956103e-08
1.288038532e-08
1.391898756e-08
1.494258045e-08
1.596162765e-08
1.697345804e-08
1.797085881e-08
1.894695451e-08
1.990554953e-08
2.085625528e-08
2.178862973e-08
2.269094723e-08
2.356663191e-08
2.4413879e-08
2.523895768e-08
2.604023998e-08
2.682365617e-08
2.757851908e-08
2.831485917e-08
2.899130507e-08
2.959913304e-08
3.018339802e-08
3.0703019e-08
3.074281851e-08
3.009862852e-08
4.886241716e-09
-2.062211685e-08
-2.215954976e-08
-2.362599149e-08
-2.423026289e-08
)


101
(
-1.229411752e-12
-1.082872291e-11
-4.754916788e-11
-1.196869742e-10
-2.24464138e-10
-3.562592246e-10
-5.188238206e-10
-7.187432487e-10
-9.608072148e-10
-1.256938013e-09
-1.625810343e-09
-2.090103751e-09
-2.682262306e-09
-3.444802919e-09
-4.40827117e-09
-5.589523748e-09
-7.000589356e-09
-8.639027642e-09
-1.043873403e-08
-1.236356289e-08
-1.436454483e-08
-1.630856659e-08
-1.814209086e-08
-1.984408161e-08
-2.135644038e-08
-2.264290757e-08
-2.369448833e-08
-2.450781465e-08
-2.509938445e-08
-2.549309562e-08
-2.571095977e-08
-2.579762802e-08
-2.56919191e-08
-2.545642084e-08
-2.51661919e-08
-2.477616036e-08
-2.431708764e-08
-2.378224684e-08
-2.315805744e-08
-2.247419727e-08
-2.177254864e-08
-2.102446349e-08
-2.021995314e-08
-1.939553557e-08
-1.853496274e-08
-1.764021517e-08
-1.671659664e-08
-1.57638299e-08
-1.478746457e-08
-1.378897332e-08
-1.277255895e-08
-1.173559577e-08
-1.068169375e-08
-9.611556262e-09
-8.525153304e-09
-7.420556812e-09
-6.305550036e-09
-5.182163749e-09
-4.05020786e-09
-2.914162925e-09
-1.773479451e-09
-6.291837378e-10
5.18988585e-10
1.67041677e-09
2.823356431e-09
3.974661186e-09
5.120707972e-09
6.259043309e-09
7.391566072e-09
8.519647989e-09
9.642856382e-09
1.075667468e-08
1.185335122e-08
1.292918524e-08
1.399074432e-08
1.504989754e-08
1.610535127e-08
1.715008617e-08
1.817560484e-08
1.918459292e-08
2.019033881e-08
2.118475682e-08
2.215438863e-08
2.309927434e-08
2.401462603e-08
2.491058575e-08
2.578276721e-08
2.66360745e-08
2.746412548e-08
2.8283487e-08
2.904278424e-08
2.972062977e-08
3.037040992e-08
3.095023956e-08
3.096369604e-08
3.017359885e-08
3.224700641e-09
-2.399429008e-08
-2.568645309e-08
-2.729129709e-08
-2.794393823e-08
)


101
(
-1.10799058e-12
-1.035213821e-11
-4.583154404e-11
-1.156692425e-10
-2.17196016e-10
-3.449328675e-10
-5.020612371e-10
-6.947834575e-10
-9.275354989e-10
-1.211074988e-09
-1.562476079e-09
-2.00284794e-09
-2.561534412e-09
-3.278379457e-09
-4.184620659e-09
-5.298279859e-09
-6.632467157e-09
-8.192166869e-09
-9.920224952e-09
-1.178423351e-08
-1.374493436e-08
-1.567773622e-08
-1.752629486e-08
-1.926611456e-08
-2.08386729e-08
-2.220485355e-08
-2.335002704e-08
-2.42648049e-08
-2.496055289e-08
-2.545756548e-08
-2.577558144e-08
-2.595770613e-08
-2.594105792e-08
-2.578801076e-08
-2.557539561e-08
-2.525865987e-08
-2.486915159e-08
-2.439971897e-08
-2.383586748e-08
-2.320791663e-08
-2.255964246e-08
-2.186202765e-08
-2.110453835e-08
-2.032485815e-08
-1.950623558e-08
-1.865093298e-08
-1.776441168e-08
-1.684594947e-08
-1.590105417e-08
-1.493143754e-08
-1.394195679e-08
-1.29301427e-08
-1.189997892e-08
-1.085203854e-08
-9.78564495e-09
-8.697593846e-09
-7.596050538e-09
-6.4828268e-09
-5.357972456e-09
-4.227167676e-09
-3.090117437e-09
-1.948151948e-09
-8.004243162e-10
3.532980519e-10
1.512517824e-09
2.675038281e-09
3.836572738e-09
4.992625524e-09
6.14311936e-09
7.28935629e-09
8.432836837e-09
9.571128797e-09
1.069660027e-08
1.180387338e-08
1.289799853e-08
1.399127116e-08
1.508334798e-08
1.616799424e-08
1.723691086e-08
1.829093915e-08
1.934415132e-08
2.039246813e-08
2.142405592e-08
2.24355144e-08
2.341504285e-08
2.43769238e-08
2.531896891e-08
2.62398228e-08
2.713589373e-08
2.803350999e-08
2.887601106e-08
2.962609385e-08
3.033903047e-08
3.097643612e-08
3.095748154e-08
3.00097954e-08
1.395321526e-09
-2.745179172e-08
-2.926516215e-08
-3.100332838e-08
-3.173029202e-08
)


101
(
-9.921322695e-13
-9.889922996e-12
-4.415563089e-11
-1.117404468e-10
-2.100834132e-10
-3.338520495e-10
-4.857027025e-10
-6.71460311e-10
-8.952429134e-10
-1.166742753e-09
-1.501541584e-09
-1.919232135e-09
-2.446318816e-09
-3.119899137e-09
-3.971340095e-09
-5.019597194e-09
-6.278706993e-09
-7.759450923e-09
-9.413336176e-09
-1.12121198e-08
-1.312470649e-08
-1.503588344e-08
-1.688887123e-08
-1.865625223e-08
-2.027885091e-08
-2.171524145e-08
-2.294612249e-08
-2.395667324e-08
-2.475310854e-08
-2.53517308e-08
-2.576957062e-08
-2.604788803e-08
-2.612213477e-08
-2.605379496e-08
-2.592070573e-08
-2.567891773e-08
-2.536055504e-08
-2.495845993e-08
-2.445757024e-08
-2.388862435e-08
-2.32967211e-08
-2.265236819e-08
-2.194462372e-08
-2.121243382e-08
-2.043866765e-08
-1.962581628e-08
-1.877972534e-08
-1.789960233e-08
-1.699060826e-08
-1.605415685e-08
-1.509555558e-08
-1.41126251e-08
-1.311006518e-08
-1.208860559e-08
-1.104737826e-08
-9.981848891e-09
-8.900218465e-09
-7.803551672e-09
-6.691625205e-09
-5.571481361e-09
-4.443283997e-09
-3.309081861e-09
-2.167943894e-09
-1.019169662e-09
1.379266082e-10
1.302817519e-09
2.472102893e-09
3.640094224e-09
4.80384605e-09
5.962967483e-09
7.119609017e-09
8.273706865e-09
9.419510488e-09
1.055125841e-08
1.16723253e-08
1.279441091e-08
1.391702024e-08
1.503391112e-08
1.613848883e-08
1.723190181e-08
1.832619351e-08
1.941919994e-08
2.050478442e-08
2.157901553e-08
2.262018468e-08
2.364198202e-08
2.464982643e-08
2.563789396e-08
2.659591119e-08
2.756503924e-08
2.849014325e-08
2.931274467e-08
3.008565599e-08
3.077759592e-08
3.07210684e-08
2.960632214e-08
-5.780662887e-10
-3.094394432e-08
-3.281276779e-08
-3.459507115e-08
-3.536326533e-08
)


101
(
-8.817412363e-13
-9.44188444e-12
-4.25209486e-11
-1.07899575e-10
-2.031242862e-10
-3.230125134e-10
-4.697382144e-10
-6.487556329e-10
-8.638961219e-10
-1.12387984e-09
-1.44290108e-09
-1.839098345e-09
-2.336379006e-09
-2.969081633e-09
-3.768225555e-09
-4.753437633e-09
-5.939521086e-09
-7.341718478e-09
-8.919660345e-09
-1.064953532e-08
-1.250722099e-08
-1.438719652e-08
-1.623414364e-08
-1.80186662e-08
-1.968103133e-08
-2.117788166e-08
-2.248599942e-08
-2.358575161e-08
-2.447838934e-08
-2.5176024e-08
-2.569262663e-08
-2.606724989e-08
-2.623366637e-08
-2.625196622e-08
-2.620029985e-08
-2.603521366e-08
-2.578956019e-08
-2.545641102e-08
-2.502051884e-08
-2.45131367e-08
-2.398039114e-08
-2.339213342e-08
-2.273689919e-08
-2.205481387e-08
-2.132856865e-08
-2.056096789e-08
-1.975825429e-08
-1.891972448e-08
-1.805048246e-08
-1.715145668e-08
-1.622789157e-08
-1.527765368e-08
-1.43062181e-08
-1.331496299e-08
-1.230311028e-08
-1.126517032e-08
-1.020944193e-08
-9.135767448e-09
-8.043033724e-09
-6.939145777e-09
-5.824948782e-09
-4.703532821e-09
-3.574223858e-09
-2.436472142e-09
-1.288970893e-09
-1.305100896e-10
1.037559325e-09
2.21003478e-09
3.381737291e-09
4.549335734e-09
5.713678572e-09
6.875965061e-09
8.033097802e-09
9.180846135e-09
1.032214858e-08
1.146755253e-08
1.261532272e-08
1.375819072e-08
1.489046918e-08
1.601567486e-08
1.714522695e-08
1.827496785e-08
1.940394e-08
2.053411427e-08
2.163579671e-08
2.271279442e-08
2.377858536e-08
2.483200844e-08
2.58487987e-08
2.688083653e-08
2.788530348e-08
2.878106158e-08
2.96101144e-08
3.03519946e-08
3.02525138e-08
2.896404314e-08
-2.650771625e-09
-3.438455186e-08
-3.624113031e-08
-3.803164283e-08
-3.886631833e-08
)


101
(
-7.767214949e-13
-9.007828932e-12
-4.092701859e-11
-1.041456301e-10
-1.963166518e-10
-3.124101702e-10
-4.541581989e-10
-6.266520525e-10
-8.334634827e-10
-1.082427588e-09
-1.386452737e-09
-1.762291197e-09
-2.231478716e-09
-2.825632434e-09
-3.575028311e-09
-4.499691524e-09
-5.615023563e-09
-6.93963187e-09
-8.440574273e-09
-1.009858295e-08
-1.189559957e-08
-1.373570767e-08
-1.556650309e-08
-1.735774882e-08
-1.904950977e-08
-2.059684762e-08
-2.197324976e-08
-2.315487427e-08
-2.413829962e-08
-2.493141358e-08
-2.554490282e-08
-2.6015265e-08
-2.627454978e-08
-2.638098508e-08
-2.641242668e-08
-2.632579449e-08
-2.615447688e-08
-2.58918183e-08
-2.552262562e-08
-2.507882634e-08
-2.460753104e-08
-2.407797536e-08
-2.347806321e-08
-2.284874852e-08
-2.217257089e-08
-2.145278673e-08
-2.069603997e-08
-1.990195496e-08
-1.90758007e-08
-1.821790499e-08
-1.733330255e-08
-1.641976614e-08
-1.548315389e-08
-1.452541319e-08
-1.354643837e-08
-1.254035675e-08
-1.151560623e-08
-1.047089257e-08
-9.403720872e-09
-8.322036944e-09
-7.227251771e-09
-6.123594858e-09
-5.01086556e-09
-3.889059747e-09
-2.757182197e-09
-1.613006718e-09
-4.553339396e-10
7.127569614e-10
1.88553178e-09
3.056840662e-09
4.224691065e-09
5.389485137e-09
6.549879122e-09
7.704226068e-09
8.857041321e-09
1.00192744e-08
1.118752315e-08
1.235126236e-08
1.350415115e-08
1.465285205e-08
1.581106964e-08
1.697110811e-08
1.81330323e-08
1.930866846e-08
2.046770953e-08
2.159819481e-08
2.271398731e-08
2.38261026e-08
2.490099659e-08
2.598912166e-08
2.706468798e-08
2.803143205e-08
2.89145362e-08
2.970234336e-08
2.955447442e-08
2.808859989e-08
-4.77554706e-09
-3.768018245e-08
-3.944695376e-08
-4.113499067e-08
-4.198754363e-08
)


101
(
-6.769759973e-13
-8.587561727e-12
-3.937336234e-11
-1.004776257e-10
-1.89658579e-10
-3.020410894e-10
-4.389534902e-10
-6.051329082e-10
-8.039148964e-10
-1.04233018e-09
-1.332098874e-09
-1.688659087e-09
-2.13138402e-09
-2.689246215e-09
-3.391461334e-09
-4.258182497e-09
-5.30523159e-09
-6.553681459e-09
-7.977249632e-09
-9.561157867e-09
-1.129269786e-08
-1.30852525e-08
-1.489034711e-08
-1.667804743e-08
-1.83887948e-08
-1.997647184e-08
-2.141181042e-08
-2.266731613e-08
-2.373525752e-08
-2.46194095e-08
-2.532705801e-08
-2.589183475e-08
-2.624403352e-08
-2.643960994e-08
-2.655554912e-08
-2.654900645e-08
-2.645367246e-08
-2.626310697e-08
-2.596216608e-08
-2.558353912e-08
-2.517551371e-08
-2.470690086e-08
-2.416492947e-08
-2.359101897e-08
-2.296739251e-08
-2.229788795e-08
-2.158960451e-08
-2.084238123e-08
-2.006200221e-08
-1.924857265e-08
-1.84066044e-08
-1.753350533e-08
-1.663545337e-08
-1.571464541e-08
-1.477170202e-08
-1.380092872e-08
-1.281140836e-08
-1.180078378e-08
-1.076503823e-08
-9.711684644e-09
-8.641983925e-09
-7.56123929e-09
-6.469830679e-09
-5.36840698e-09
-4.256873286e-09
-3.133084798e-09
-1.993961119e-09
-8.395592811e-10
3.257836762e-10
1.494655968e-09
2.661892246e-09
3.825254275e-09
4.983159623e-09
6.135553412e-09
7.289796222e-09
8.460145542e-09
9.643121571e-09
1.082400484e-08
1.199273997e-08
1.315665155e-08
1.433497096e-08
1.551986066e-08
1.67072805e-08
1.791553499e-08
1.912399016e-08
2.030858089e-08
2.146893022e-08
2.262981431e-08
2.376132033e-08
2.489941651e-08
2.603770147e-08
2.70707216e-08
2.800301754e-08
2.883382381e-08
2.863500877e-08
2.698567908e-08
-6.906570795e-09
-4.073794593e-08
-4.234647608e-08
-4.376304717e-08
-4.451206934e-08
)


101
(
-5.824071527e-13
-8.18088772e-12
-3.785950418e-11
-9.689459313e-11
-1.831481995e-10
-2.91901514e-10
-4.241153473e-10
-5.841822688e-10
-7.752217894e-10
-1.003534812e-09
-1.279746285e-09
-1.618054788e-09
-2.035865231e-09
-2.559611978e-09
-3.217207028e-09
-4.028672281e-09
-5.01007059e-09
-6.184191985e-09
-7.530627351e-09
-9.038918566e-09
-1.070112253e-08
-1.243946908e-08
-1.421002645e-08
-1.598420297e-08
-1.770357644e-08
-1.93213333e-08
-2.080593777e-08
-2.212677558e-08
-2.327219877e-08
-2.424208125e-08
-2.504029261e-08
-2.569733859e-08
-2.614180099e-08
-2.64269735e-08
-2.662840138e-08
-2.67033537e-08
-2.668555581e-08
-2.656870506e-08
-2.633759415e-08
-2.602559572e-08
-2.568220774e-08
-2.52762144e-08
-2.479445604e-08
-2.427855042e-08
-2.371005093e-08
-2.309309466e-08
-2.243552705e-08
-2.173754538e-08
-2.100523491e-08
-2.023887934e-08
-1.944285333e-08
-1.861375258e-08
-1.77577764e-08
-1.687740782e-08
-1.597354004e-08
-1.504091656e-08
-1.409003928e-08
-1.311779139e-08
-1.211872765e-08
-1.109953987e-08
-1.006060925e-08
-9.008011126e-09
-7.942772952e-09
-6.866136288e-09
-5.779030728e-09
-4.680201387e-09
-3.565862501e-09
-2.433374113e-09
-1.284609569e-09
-1.26047632e-10
1.035379917e-09
2.193884434e-09
3.345887352e-09
4.490679534e-09
5.636914707e-09
6.804237302e-09
7.993538458e-09
9.188146425e-09
1.037023544e-08
1.154337624e-08
1.273291643e-08
1.393481981e-08
1.514254446e-08
1.637422203e-08
1.761926968e-08
1.885438711e-08
2.005851315e-08
2.125765216e-08
2.244011351e-08
2.362428777e-08
2.481550626e-08
2.591240007e-08
2.68889024e-08
2.775521276e-08
2.750428716e-08
2.567023516e-08
-8.984351556e-09
-4.346018031e-08
-4.48885123e-08
-4.629942608e-08
-4.722848707e-08
)


101
(
-4.929167631e-13
-7.787611002e-12
-3.638496964e-11
-9.339557637e-11
-1.767836988e-10
-2.819878443e-10
-4.096354221e-10
-5.63784882e-10
-7.473570158e-10
-9.65991528e-10
-1.22930623e-09
-1.550336182e-09
-1.944698242e-09
-2.436416344e-09
-3.051922678e-09
-3.810868985e-09
-4.729378329e-09
-5.831343868e-09
-7.101440087e-09
-8.533279417e-09
-1.012319973e-08
-1.180172827e-08
-1.352976474e-08
-1.528089972e-08
-1.699868541e-08
-1.863621249e-08
-2.016017466e-08
-2.153736412e-08
-2.275259421e-08
-2.380205724e-08
-2.468632459e-08
-2.543265516e-08
-2.596798798e-08
-2.634261102e-08
-2.663008577e-08
-2.678762521e-08
-2.684869787e-08
-2.680708658e-08
-2.664743887e-08
-2.640348764e-08
-2.612587293e-08
-2.578380251e-08
-2.536402527e-08
-2.490831212e-08
-2.439742105e-08
-2.383544365e-08
-2.323081555e-08
-2.258414733e-08
-2.190200072e-08
-2.118501684e-08
-2.043752242e-08
-1.965549145e-08
-1.884501226e-08
-1.800840481e-08
-1.714667712e-08
-1.625487005e-08
-1.534519074e-08
-1.441466487e-08
-1.34566862e-08
-1.247691176e-08
-1.147429718e-08
-1.045508516e-08
-9.420795473e-09
-8.373340304e-09
-7.314530613e-09
-6.244252994e-09
-5.159233737e-09
-4.055155701e-09
-2.931178589e-09
-1.791337432e-09
-6.426074859e-10
5.067684715e-10
1.650548548e-09
2.785163305e-09
3.917549149e-09
5.070713312e-09
6.255098493e-09
7.456667418e-09
8.650425614e-09
9.832101017e-09
1.102538834e-08
1.22335028e-08
1.345582148e-08
1.470425221e-08
1.597335903e-08
1.725115672e-08
1.849919709e-08
1.97283081e-08
2.095128049e-08
2.218135922e-08
2.341332592e-08
2.456935792e-08
2.558948526e-08
2.647880003e-08
2.617985011e-08
2.417793245e-08
-1.097162728e-08
-4.581653375e-08
-4.705256086e-08
-4.821199271e-08
-4.90612352e-08
)


101
(
-4.084053877e-13
-7.407526207e-12
-3.494927768e-11
-8.997962047e-11
-1.705632811e-10
-2.722965812e-10
-3.955056682e-10
-5.439260011e-10
-7.202945945e-10
-9.296529368e-10
-1.180694329e-09
-1.485366472e-09
-1.857665093e-09
-2.319346018e-09
-2.895243804e-09
-3.604432859e-09
-4.462917411e-09
-5.495182407e-09
-6.690230116e-09
-8.045427705e-09
-9.560958872e-09
-1.117508629e-08
-1.285356714e-08
-1.457276336e-08
-1.62790306e-08
-1.792605958e-08
-1.947933573e-08
-2.090357262e-08
-2.218040825e-08
-2.330254644e-08
-2.426744722e-08
-2.509919324e-08
-2.572321435e-08
-2.618647796e-08
-2.656006866e-08
-2.680092968e-08
-2.694191604e-08
-2.697681827e-08