/*--------------------------------*- C++ -*----------------------------------*\
| =========                 |                                                 |
| \\      /  F ield         | OpenFOAM: The Open Source CFD Toolbox           |
|  \\    /   O peration     | Version:  2.3.1                                 |
|   \\  /    A nd           | Web:      www.OpenFOAM.org                      |
|    \\/     M anipulation  |                                                 |
\*---------------------------------------------------------------------------*/
FoamFile
{
    version     2.0;
    format      ascii;
    class       dictionary;
    location    "constant";
    object      DPSI20;
}
// * * * * * * * * * * * * * * * * * * * * * * * * * * * * * * * * * * * * * //

DPSI20_table
101
(

101
(
-1.088084498e-15
-1.210269715e-13
-2.477814276e-12
-1.863620212e-11
-7.688527873e-11
-2.153868973e-10
-4.917910599e-10
-9.541536763e-10
-1.629557336e-09
-2.532054209e-09
-3.655047828e-09
-4.954601648e-09
-6.42038384e-09
-7.995089832e-09
-9.578911848e-09
-1.115405337e-08
-1.270270376e-08
-1.410668276e-08
-1.542573656e-08
-1.663479723e-08
-1.762959985e-08
-1.853933544e-08
-1.933206458e-08
-1.995871626e-08
-2.045549444e-08
-2.083546788e-08
-2.110255718e-08
-2.126333949e-08
-2.132158839e-08
-2.128022001e-08
-2.114764289e-08
-2.095364712e-08
-2.063368562e-08
-2.020958557e-08
-1.974454342e-08
-1.920559381e-08
-1.862849831e-08
-1.798805238e-08
-1.722362647e-08
-1.637261053e-08
-1.555582132e-08
-1.469627448e-08
-1.374208788e-08
-1.281536155e-08
-1.184321142e-08
-1.0829619e-08
-9.787399811e-09
-8.711338814e-09
-7.616793238e-09
-6.509724265e-09
-5.412459026e-09
-4.291585992e-09
-3.175063776e-09
-2.072477151e-09
-9.811407724e-10
1.772410163e-10
1.281212695e-09
2.356874262e-09
3.458318826e-09
4.522730531e-09
5.586223203e-09
6.606033298e-09
7.618343133e-09
8.613837387e-09
9.586411394e-09
1.053218505e-08
1.144302641e-08
1.234744684e-08
1.321938527e-08
1.405139195e-08
1.486512134e-08
1.566539592e-08
1.641848247e-08
1.710032095e-08
1.774014069e-08
1.838988413e-08
1.903070463e-08
1.960088661e-08
2.012168755e-08
2.060750093e-08
2.108422389e-08
2.152361542e-08
2.191414503e-08
2.228114484e-08
2.261011258e-08
2.290480238e-08
2.316911988e-08
2.340565244e-08
2.361510308e-08
2.379909144e-08
2.3956718e-08
2.408963444e-08
2.420369308e-08
2.429741258e-08
2.437390544e-08
2.442300795e-08
1.222546328e-08
-1.509858746e-16
6.99721871e-26
7.82084942e-27
-1.553449019e-25
)


101
(
2.730645305e-15
-7.832307497e-14
-2.146316868e-12
-1.708300471e-11
-7.17644516e-11
-2.025919174e-10
-4.644636261e-10
-9.043113843e-10
-1.549169605e-09
-2.413960331e-09
-3.494213616e-09
-4.751644372e-09
-6.172896616e-09
-7.7100982e-09
-9.272069539e-09
-1.083108587e-08
-1.236932032e-08
-1.379462248e-08
-1.512383842e-08
-1.635822719e-08
-1.741407074e-08
-1.835192823e-08
-1.918631314e-08
-1.988153526e-08
-2.044188294e-08
-2.088413133e-08
-2.121705092e-08
-2.144354807e-08
-2.156990689e-08
-2.15997019e-08
-2.153833951e-08
-2.141359369e-08
-2.116085375e-08
-2.081053885e-08
-2.041534717e-08
-1.993955025e-08
-1.941580509e-08
-1.883029314e-08
-1.813806125e-08
-1.735470884e-08
-1.65638989e-08
-1.573998086e-08
-1.483967507e-08
-1.392536977e-08
-1.297825377e-08
-1.198916782e-08
-1.09649627e-08
-9.904397009e-09
-8.816579291e-09
-7.707894906e-09
-6.593840805e-09
-5.464150954e-09
-4.32514774e-09
-3.187887218e-09
-2.056892854e-09
-8.967993667e-10
2.623426428e-10
1.399010212e-09
2.536717885e-09
3.663689504e-09
4.781352324e-09
5.877862436e-09
6.956193663e-09
8.020545207e-09
9.067858703e-09
1.009420226e-08
1.109370466e-08
1.207354292e-08
1.303295654e-08
1.396200581e-08
1.486221708e-08
1.57394933e-08
1.658620662e-08
1.738606195e-08
1.814126838e-08
1.88750092e-08
1.959530404e-08
2.027765172e-08
2.090903482e-08
2.149776983e-08
2.205824276e-08
2.258843726e-08
2.307863122e-08
2.353518885e-08
2.395965482e-08
2.434731647e-08
2.46964288e-08
2.50110955e-08
2.529337537e-08
2.554949093e-08
2.577889906e-08
2.597562563e-08
2.614478574e-08
2.629122815e-08
2.638421804e-08
2.639097607e-08
1.224492587e-08
-2.026247576e-09
-2.231694002e-09
-2.431554566e-09
-2.542516871e-09
)


101
(
5.828054375e-15
-4.023772966e-14
-1.840958868e-12
-1.562579439e-11
-6.691011553e-11
-1.903880187e-10
-4.382913103e-10
-8.563535115e-10
-1.471493883e-09
-2.299350388e-09
-3.337404864e-09
-4.552507077e-09
-5.929190474e-09
-7.427226639e-09
-8.964178916e-09
-1.050486181e-08
-1.203021577e-08
-1.346913357e-08
-1.480876244e-08
-1.606293867e-08
-1.716989665e-08
-1.814061094e-08
-1.901159934e-08
-1.976578958e-08
-2.038770718e-08
-2.089038158e-08
-2.128598135e-08
-2.157604485e-08
-2.17678154e-08
-2.186597955e-08
-2.187418328e-08
-2.18183241e-08
-2.163257162e-08
-2.135302728e-08
-2.102888876e-08
-2.061937206e-08
-2.015422112e-08
-1.9624732e-08
-1.899819851e-08
-1.828399031e-08
-1.753993894e-08
-1.675473059e-08
-1.590299554e-08
-1.50214703e-08
-1.4101754e-08
-1.314077185e-08
-1.214135661e-08
-1.110257814e-08
-1.003076268e-08
-8.931078672e-09
-7.815068916e-09
-6.681365696e-09
-5.532703856e-09
-4.375505251e-09
-3.216241114e-09
-2.041415649e-09
-8.555208141e-10
3.250313941e-10
1.502536913e-09
2.675200531e-09
3.841524856e-09
4.996038671e-09
6.135382394e-09
7.261243958e-09
8.373498924e-09
9.469780611e-09
1.054569525e-08
1.160058084e-08
1.263722426e-08
1.365114038e-08
1.463764579e-08
1.559631865e-08
1.652571847e-08
1.741945801e-08
1.827667773e-08
1.910663937e-08
1.991597138e-08
2.069610605e-08
2.143220666e-08
2.212437306e-08
2.278104112e-08
2.340372504e-08
2.398831032e-08
2.453789476e-08
2.50551162e-08
2.553961584e-08
2.598533433e-08
2.638859416e-08
2.675066255e-08
2.708388997e-08
2.738683311e-08
2.765718296e-08
2.789495424e-08
2.809592946e-08
2.820026052e-08
2.814629819e-08
1.199937172e-08
-4.346223626e-09
-4.760166102e-09
-5.160967367e-09
-5.373068545e-09
)


101
(
8.267482769e-15
-6.481816186e-15
-1.560435296e-12
-1.426058859e-11
-6.231293404e-11
-1.787578104e-10
-4.132459641e-10
-8.102491754e-10
-1.396506335e-09
-2.188230812e-09
-3.184685512e-09
-4.357379891e-09
-5.689494974e-09
-7.146996554e-09
-8.65601899e-09
-1.017609856e-08
-1.16862298e-08
-1.313205764e-08
-1.448086976e-08
-1.575058357e-08
-1.689959532e-08
-1.790476998e-08
-1.880950341e-08
-1.961441974e-08
-2.029404693e-08
-2.085497913e-08
-2.131042581e-08
-2.16616199e-08
-2.191619202e-08
-2.207987775e-08
-2.215550104e-08
-2.216747717e-08
-2.204819752e-08
-2.183721586e-08
-2.15836418e-08
-2.124224152e-08
-2.083968375e-08
-2.03686387e-08
-1.980457528e-08
-1.91579931e-08
-1.847190486e-08
-1.773359986e-08
-1.692991736e-08
-1.609091962e-08
-1.520622835e-08
-1.427768113e-08
-1.330846158e-08
-1.229726661e-08
-1.124893521e-08
-1.016712408e-08
-9.060860264e-09
-7.931571926e-09
-6.782965326e-09
-5.618539234e-09
-4.443598266e-09
-3.254523752e-09
-2.052438429e-09
-8.44889487e-10
3.648519707e-10
1.573480659e-09
2.779669511e-09
3.979922341e-09
5.170139502e-09
6.34941106e-09
7.517715189e-09
8.674054176e-09
9.815447476e-09
1.093867035e-08
1.204533058e-08
1.313359946e-08
1.419874964e-08
1.52366906e-08
1.62451438e-08
1.722184441e-08
1.816808198e-08
1.908929529e-08
1.998844038e-08
2.086113927e-08
2.169594594e-08
2.249009522e-08
2.324660749e-08
2.396492551e-08
2.46435504e-08
2.528723102e-08
2.589752296e-08
2.647583885e-08
2.70210355e-08
2.752455943e-08
2.797569342e-08
2.839210447e-08
2.877355729e-08
2.911885247e-08
2.943350969e-08
2.969727424e-08
2.980444806e-08
2.966945756e-08
1.149175364e-08
-6.937340544e-09
-7.562550483e-09
-8.165490444e-09
-8.469985024e-09
)


101
(
1.010941824e-14
2.32242197e-14
-1.30347469e-12
-1.298348231e-11
-5.796368469e-11
-1.676839241e-10
-3.892990976e-10
-7.659659036e-10
-1.32417998e-09
-2.080601735e-09
-3.036109242e-09
-4.166434999e-09
-5.454030601e-09
-6.869887104e-09
-8.34833913e-09
-9.84552719e-09
-1.13381847e-08
-1.278507491e-08
-1.414083405e-08
-1.542255519e-08
-1.660555337e-08
-1.76445047e-08
-1.858111292e-08
-1.943001395e-08
-2.016250455e-08
-2.077889494e-08
-2.129144106e-08
-2.170119937e-08
-2.201596889e-08
-2.22423351e-08
-2.238290086e-08
-2.246108136e-08
-2.240737335e-08
-2.22631558e-08
-2.207885856e-08
-2.180612061e-08
-2.146881545e-08
-2.105890163e-08
-2.055640735e-08
-1.997553451e-08
-1.93525543e-08
-1.866876374e-08
-1.791609935e-08
-1.712535615e-08
-1.62829745e-08
-1.539248291e-08
-1.44585928e-08
-1.348029256e-08
-1.246182814e-08
-1.140550792e-08
-1.031850927e-08
-9.202517621e-09
-8.062727323e-09
-6.901678096e-09
-5.722960242e-09
-4.526389646e-09
-3.315425035e-09
-2.093113267e-09
-8.620430857e-10
3.727231202e-10
1.609488267e-09
2.845196319e-09
4.076079966e-09
5.299694459e-09
6.51513171e-09
7.721977973e-09
8.918530322e-09
1.010125488e-08
1.12702858e-08
1.242405255e-08
1.35587404e-08
1.466916617e-08
1.575132431e-08
1.680398718e-08
1.783045939e-08
1.883565694e-08
1.981986415e-08
2.077949339e-08
2.170591215e-08
2.259765429e-08
2.345470571e-08
2.427067803e-08
2.504389378e-08
2.578162997e-08
2.648576086e-08
2.715809053e-08
2.779903476e-08
2.840577162e-08
2.895732973e-08
2.946436486e-08
2.992892459e-08
3.035098866e-08
3.074737244e-08
3.108201352e-08
3.118284235e-08
3.094499339e-08
1.072594305e-08
-9.779226007e-09
-1.06181682e-08
-1.142441702e-08
-1.181376483e-08
)


101
(
1.141155578e-14
4.91504307e-14
-1.068839183e-12
-1.179064885e-11
-5.38532624e-11
-1.571490365e-10
-3.664219241e-10
-7.234697268e-10
-1.254484714e-09
-1.976457104e-09
-2.891719949e-09
-3.979826558e-09
-5.223006322e-09
-6.5963381e-09
-8.041853469e-09
-9.513884784e-09
-1.098688932e-08
-1.242972523e-08
-1.378954852e-08
-1.508010502e-08
-1.628999589e-08
-1.736045228e-08
-1.832730374e-08
-1.921478092e-08
-1.9994963e-08
-2.066337447e-08
-2.123014541e-08
-2.169581008e-08
-2.20681489e-08
-2.235437285e-08
-2.255720474e-08
-2.269950962e-08
-2.271004947e-08
-2.263092404e-08
-2.251421186e-08
-2.230968529e-08
-2.203904906e-08
-2.169253316e-08
-2.125202725e-08
-2.073556393e-08
-2.017761268e-08
-1.955365312e-08
-1.885613292e-08
-1.81181315e-08
-1.73240347e-08
-1.647741654e-08
-1.55841192e-08
-1.464380408e-08
-1.366083124e-08
-1.263664243e-08
-1.157700634e-08
-1.048274663e-08
-9.360003298e-09
-8.211396198e-09
-7.039321002e-09
-5.84411016e-09
-4.632005954e-09
-3.404608564e-09
-2.162883046e-09
-9.124047365e-10
3.45058874e-10
1.606300987e-09
2.867948701e-09
4.126710631e-09
5.380471414e-09
6.628546463e-09
7.870162769e-09
9.102577178e-09
1.032537274e-08
1.153627971e-08
1.273167745e-08
1.390617889e-08
1.505459737e-08
1.61757794e-08
1.72746937e-08
1.835704329e-08
1.942061932e-08
2.046081659e-08
2.147102542e-08
2.245266932e-08
2.340708572e-08
2.432166161e-08
2.519023516e-08
2.602176849e-08
2.681891419e-08
2.758496629e-08
2.832107289e-08
2.902769423e-08
2.968394946e-08
3.029180336e-08
3.084412992e-08
3.134690371e-08
3.18254529e-08
3.223470459e-08
3.23241048e-08
3.196200917e-08
9.705949343e-09
-1.285355062e-08
-1.390888781e-08
-1.492010462e-08
-1.538809043e-08
)


101
(
1.222882329e-14
7.155738232e-14
-8.553247762e-13
-1.067834229e-11
-4.997269012e-11
-1.471359032e-10
-3.445854338e-10
-6.827253225e-10
-1.187387487e-09
-1.875784972e-09
-2.751551844e-09
-3.797692021e-09
-4.996619662e-09
-6.326754578e-09
-7.73724118e-09
-9.181908755e-09
-1.063314363e-08
-1.206742896e-08
-1.342806077e-08
-1.472442362e-08
-1.595497506e-08
-1.705364249e-08
-1.804892965e-08
-1.89705963e-08
-1.979339878e-08
-2.050991095e-08
-2.112777624e-08
-2.164657463e-08
-2.207381488e-08
-2.241709455e-08
-2.267940034e-08
-2.288340144e-08
-2.295647599e-08
-2.294073689e-08
-2.2889719e-08
-2.275222562e-08
-2.254854351e-08
-2.226693386e-08
-2.18893619e-08
-2.143677026e-08
-2.094433568e-08
-2.038337806e-08
-1.974476431e-08
-1.906338533e-08
-1.832245828e-08
-1.752508317e-08
-1.667755244e-08
-1.578013034e-08
-1.483773791e-08
-1.385154154e-08
-1.28263459e-08
-1.176160755e-08
-1.066375753e-08
-9.535754853e-09
-8.379409332e-09
-7.194427546e-09
-5.989337756e-09
-4.765587404e-09
-3.522907007e-09
-2.266982122e-09
-9.990550351e-10
2.775302596e-10
1.559933907e-09
2.844486614e-09
4.12788438e-09
5.408408833e-09
6.685437418e-09
7.957389512e-09
9.224250556e-09
1.048345049e-08
1.173100974e-08
1.296109537e-08
1.416746688e-08
1.534877282e-08
1.651159263e-08
1.766339568e-08
1.880014968e-08
1.991500225e-08
2.100184112e-08
2.206461583e-08
2.31086669e-08
2.411895655e-08
2.508319497e-08
2.600858394e-08
2.689809602e-08
2.775637582e-08
2.858582498e-08
2.938927308e-08
3.015002275e-08
3.086483291e-08
3.151086765e-08
3.209788486e-08
3.265901993e-08
3.314580157e-08
3.321801267e-08
3.271055518e-08
8.435577294e-09
-1.614311639e-08
-1.74188836e-08
-1.863821162e-08
-1.917976624e-08
)


101
(
1.261341778e-14
9.069628039e-14
-6.617609624e-13
-9.642895938e-12
-4.631311397e-11
-1.376273465e-10
-3.237603823e-10
-6.436960344e-10
-1.122852291e-09
-1.778567583e-09
-2.615629499e-09
-3.620151982e-09
-4.775054922e-09
-6.061507276e-09
-7.435143072e-09
-8.850330813e-09
-1.027773982e-08
-1.169949809e-08
-1.305751114e-08
-1.435669116e-08
-1.560238988e-08
-1.672536674e-08
-1.77469165e-08
-1.869908484e-08
-1.955976974e-08
-2.032019422e-08
-2.09857333e-08
-2.15547196e-08
-2.203412357e-08
-2.243167067e-08
-2.275061391e-08
-2.301365115e-08
-2.314718118e-08
-2.319296875e-08
-2.320563938e-08
-2.313352703e-08
-2.299616933e-08
-2.278008809e-08
-2.246632684e-08
-2.207758624e-08
-2.165066103e-08
-2.115435418e-08
-2.057747728e-08
-1.99559438e-08
-1.927215204e-08
-1.852872279e-08
-1.773187075e-08
-1.688206703e-08
-1.5984875e-08
-1.5041697e-08
-1.405703887e-08
-1.302900396e-08
-1.196359108e-08
-1.086384972e-08
-9.731456599e-09
-8.56519375e-09
-7.375049186e-09
-6.162944177e-09
-4.928175133e-09
-3.67642088e-09
-2.408158395e-09
-1.126642989e-09
1.661067253e-10
1.466629516e-09
2.770811221e-09
4.075452527e-09
5.379026874e-09
6.680602069e-09
7.98120584e-09
9.278969728e-09
1.056966418e-08
1.184671153e-08
1.310271008e-08
1.433556049e-08
1.555306562e-08
1.676530776e-08
1.796779642e-08
1.915106052e-08
2.030778012e-08
2.144353937e-08
2.25680417e-08
2.366689059e-08
2.472379754e-08
2.574210105e-08
2.672309929e-08
2.767307677e-08
2.859383781e-08
2.949094528e-08
3.035167705e-08
3.117613263e-08
3.192233565e-08
3.259499924e-08
3.323957088e-08
3.380546461e-08
3.385458599e-08
3.318153975e-08
6.916990735e-09
-1.963431465e-08
-2.113461678e-08
-2.256526687e-08
-2.317637213e-08
)


101
(
1.261485249e-14
1.068089702e-13
-4.870113471e-13
-8.680726897e-12
-4.286582073e-11
-1.286063048e-10
-3.039173937e-10
-6.063440865e-10
-1.060840515e-09
-1.684781819e-09
-2.483968563e-09
-3.447311031e-09
-4.558482724e-09
-5.800935358e-09
-7.1361606e-09
-8.519872243e-09
-9.921463017e-09
-1.132715889e-08
-1.267909075e-08
-1.397809348e-08
-1.523402489e-08
-1.637709401e-08
-1.742231146e-08
-1.840171253e-08
-1.929595202e-08
-2.00960271e-08
-2.08055722e-08
-2.14216017e-08
-2.195032358e-08
-2.239933555e-08
-2.277206103e-08
-2.30913302e-08
-2.328295929e-08
-2.338820249e-08
-2.346243196e-08
-2.34537556e-08
-2.338140788e-08
-2.323060262e-08
-2.298109145e-08
-2.265636181e-08
-2.229482741e-08
-2.186391513e-08
-2.135064333e-08
-2.079140601e-08
-2.016783155e-08
-1.948221477e-08
-1.874046439e-08
-1.794284607e-08
-1.709531435e-08
-1.619956616e-08
-1.526038789e-08
-1.427518338e-08
-1.324932424e-08
-1.21852757e-08
-1.10845086e-08
-9.944983412e-09
-8.777689207e-09
-7.584875735e-09
-6.365899993e-09
-5.126930726e-09
-3.867833506e-09
-2.591604471e-09
-1.299175887e-09
6.794903581e-12
1.322185716e-09
2.642524169e-09
3.964563268e-09
5.286775033e-09
6.610787491e-09
7.936378121e-09
9.260306905e-09
1.057543355e-08
1.187275228e-08
1.314875103e-08
1.441172987e-08
1.567442737e-08
1.69334856e-08
1.817765854e-08
1.93972369e-08
2.059790981e-08
2.179378894e-08
2.297254469e-08
2.411619159e-08
2.522423148e-08
2.629407491e-08
2.733444628e-08
2.83441833e-08
2.933160119e-08
3.028751028e-08
3.122019184e-08
3.207147929e-08
3.28307173e-08
3.355872697e-08
3.420417737e-08
3.422248251e-08
3.336784206e-08
5.154145935e-09
-2.331627059e-08
-2.504573309e-08
-2.669195761e-08
-2.737002689e-08
)


101
(
1.227999519e-14
1.201280605e-13
-3.299727507e-13
-7.78833368e-12
-3.962223522e-11
-1.200558318e-10
-2.850269587e-10
-5.706305584e-10
-1.001310846e-09
-1.594399084e-09
-2.356575467e-09
-3.279257773e-09
-4.347059548e-09
-5.545348717e-09
-6.840854578e-09
-8.191236928e-09
-9.565090251e-09
-1.095155812e-08
-1.229401562e-08
-1.358983627e-08
-1.485155164e-08
-1.601039692e-08
-1.707630786e-08
-1.807985797e-08
-1.900371229e-08
-1.983926051e-08
-2.058898365e-08
-2.124871233e-08
-2.182376993e-08
-2.232140148e-08
-2.274505076e-08
-2.311766596e-08
-2.336481829e-08
-2.352722672e-08
-2.366074424e-08
-2.37133635e-08
-2.370424433e-08
-2.361772418e-08
-2.343228755e-08
-2.317156999e-08
-2.287523507e-08
-2.250992482e-08
-2.206134359e-08
-2.156615017e-08
-2.100511007e-08
-2.038029788e-08
-1.969734044e-08
-1.895604404e-08
-1.816243645e-08
-1.731836221e-08
-1.642897547e-08
-1.549145934e-08
-1.451112793e-08
-1.348977108e-08
-1.242805177e-08
-1.132299141e-08
-1.018635491e-08
-9.020342585e-09
-7.824527149e-09
-6.606066881e-09
-5.364584428e-09
-4.103002743e-09
-2.821302768e-09
-1.520934587e-09
-2.050111914e-10
1.121742999e-09
2.45423461e-09
3.789161954e-09
5.12744497e-09
6.470119869e-09
7.816137189e-09
9.15913855e-09
1.04889507e-08
1.180001314e-08
1.309982406e-08
1.440283424e-08
1.570774862e-08
1.700373704e-08
1.827876422e-08
1.95361573e-08
2.079353655e-08
2.2042598e-08
2.326565799e-08
2.445834966e-08
2.561215812e-08
2.67392929e-08
2.783628215e-08
2.890971918e-08
2.995538279e-08
3.099251917e-08
3.195073756e-08
3.279875449e-08
3.36080816e-08
3.43319346e-08
3.431282732e-08
3.326112624e-08
3.148298018e-09
-2.717924753e-08
-2.914263108e-08
-3.100885572e-08
-3.175219215e-08
)


101
(
1.165310961e-14
1.308769637e-13
-1.895757064e-13
-6.962299509e-12
-3.657393804e-11
-1.119591601e-10
-2.670595918e-10
-5.365156481e-10
-9.442196169e-10
-1.507385991e-09
-2.233448514e-09
-3.116065911e-09
-4.140926663e-09
-5.295029141e-09
-6.549747034e-09
-7.865108638e-09
-9.209390039e-09
-1.057377799e-08
-1.190349709e-08
-1.319314391e-08
-1.445657829e-08
-1.562691077e-08
-1.671022387e-08
-1.77348744e-08
-1.868472266e-08
-1.955174696e-08
-2.033776311e-08
-2.103767604e-08
-2.165592843e-08
-2.219925872e-08
-2.267095847e-08
-2.309400258e-08
-2.339396454e-08
-2.361104294e-08
-2.380140767e-08
-2.391302189e-08
-2.396504405e-08
-2.394125202e-08
-2.381907535e-08
-2.362199617e-08
-2.339050271e-08
-2.30906586e-08
-2.270725179e-08
-2.227718332e-08
-2.178029461e-08
-2.121848112e-08
-2.059724833e-08
-1.991586164e-08
-1.918006671e-08
-1.839163204e-08
-1.755605312e-08
-1.667047133e-08
-1.574044981e-08
-1.476760019e-08
-1.375181144e-08
-1.268867189e-08
-1.159037459e-08
-1.045871966e-08
-9.293309292e-09
-8.102521039e-09
-6.886196619e-09
-5.64756361e-09
-4.386011521e-09
-3.10196734e-09
-1.79698987e-09
-4.74563743e-10
8.595047707e-10
2.199527371e-09
3.544104626e-09
4.894190881e-09
6.250964019e-09
7.610442393e-09
8.962642763e-09
1.030002304e-08
1.162823954e-08
1.296222479e-08
1.430219057e-08
1.563864616e-08
1.695990447e-08
1.826644415e-08
1.957545111e-08
2.088342371e-08
2.217657271e-08
2.344828101e-08
2.468027026e-08
2.588703143e-08
2.706857442e-08
2.822451622e-08
2.935279294e-08
3.04870033e-08
3.155278477e-08
3.249326296e-08
3.337967767e-08
3.417877661e-08
3.411623227e-08
3.285269003e-08
9.001467479e-10
-3.121458512e-08
-3.341519118e-08
-3.550613047e-08
-3.631560587e-08
)


101
(
1.077589638e-14
1.392699922e-13
-6.478410386e-14
-6.199290848e-12
-3.37126581e-11
-1.042996764e-10
-2.499857773e-10
-5.039586197e-10
-8.895206836e-10
-1.423704119e-09
-2.114577294e-09
-2.957794345e-09
-3.940209282e-09
-5.050230085e-09
-6.263320035e-09
-7.542145521e-09
-8.855116526e-09
-1.019484744e-08
-1.15087294e-08
-1.278924441e-08
-1.405064965e-08
-1.522830003e-08
-1.63255032e-08
-1.736814206e-08
-1.834057449e-08
-1.923529527e-08
-2.005376366e-08
-2.079023702e-08
-2.144838656e-08
-2.203438641e-08
-2.255123323e-08
-2.302177076e-08
-2.337175156e-08
-2.36408532e-08
-2.388544811e-08
-2.40535997e-08
-2.416446121e-08
-2.420144259e-08
-2.414115615e-08
-2.400685006e-08
-2.383951911e-08
-2.360470915e-08
-2.328650464e-08
-2.292208979e-08
-2.249043068e-08
-2.199311366e-08
-2.143562638e-08
-2.081699677e-08
-2.014250832e-08
-1.941344246e-08
-1.863539694e-08
-1.780551887e-08
-1.692991022e-08
-1.60102757e-08
-1.504613154e-08
-1.403170975e-08
-1.297925522e-08
-1.188961688e-08
-1.076191245e-08
-9.605811683e-09
-8.421621832e-09
-7.213261772e-09
-5.980072042e-09
-4.721951285e-09
-3.439079643e-09
-2.132926198e-09
-8.080586177e-10
5.285064146e-10
1.871999811e-09
3.221452165e-09
4.578766145e-09
5.942671805e-09
7.305417077e-09
8.6589295e-09
1.000677804e-08
1.136312883e-08
1.272832004e-08
1.409329241e-08
1.544878938e-08
1.679561607e-08
1.814739365e-08
1.95018619e-08
2.085285969e-08
2.219588525e-08
2.350134175e-08
2.477938597e-08
2.603847007e-08
2.727489062e-08
2.847803721e-08
2.969968781e-08
3.087065868e-08
3.19050646e-08
3.286507078e-08
3.373448264e-08
3.362238712e-08
3.21338883e-08
-1.589158405e-09
-3.541285566e-08
-3.784844053e-08
-4.016180304e-08
-4.103694455e-08
)


101
(
9.687539625e-15
1.455124484e-13
4.540456197e-14
-5.496060901e-12
-3.103028887e-11
-9.706097236e-11
-2.337760845e-10
-4.729180066e-10
-8.371657625e-10
-1.343310528e-09
-1.999943538e-09
-2.804487907e-09
-3.745017422e-09
-4.811178958e-09
-5.982015619e-09
-7.222975854e-09
-8.503011802e-09
-9.815743073e-09
-1.11108801e-08
-1.237937532e-08
-1.363525449e-08
-1.481622938e-08
-1.592368889e-08
-1.69811014e-08
-1.797283068e-08
-1.889166816e-08
-1.973885638e-08
-2.050823046e-08
-2.120284892e-08
-2.182835762e-08
-2.238738738e-08
-2.290248518e-08
-2.32996566e-08
-2.361802583e-08
-2.391408325e-08
-2.413614811e-08
-2.430336731e-08
-2.439889677e-08
-2.439870378e-08
-2.432581635e-08
-2.422157393e-08
-2.405102855e-08
-2.379764991e-08
-2.349890058e-08
-2.31330167e-08
-2.270121485e-08
-2.220887913e-08
-2.165492159e-08
-2.104441815e-08
-2.037807647e-08
-1.966117669e-08
-1.88905858e-08
-1.807293172e-08
-1.72104232e-08
-1.630256261e-08
-1.534253997e-08
-1.434270169e-08
-1.330256439e-08
-1.222013391e-08
-1.110582086e-08
-9.960555039e-09
-8.789268525e-09
-7.591577247e-09
-6.367605018e-09
-5.116812648e-09
-3.838688522e-09
-2.535286577e-09
-1.212842414e-09
1.213251417e-10
1.462889451e-09
2.812225689e-09
4.169509365e-09
5.530132954e-09
6.887666709e-09
8.24490663e-09
9.614549535e-09
1.099586595e-08
1.237878243e-08
1.375564578e-08
1.513070766e-08
1.651611247e-08
1.790591438e-08
1.929973854e-08
2.070197408e-08
2.207640343e-08
2.341912334e-08
2.474448365e-08
2.605638489e-08
2.732914527e-08
2.862641064e-08
2.9896338e-08
3.102550008e-08
3.205572927e-08
3.298864274e-08
3.281973391e-08
3.109565132e-08
-4.316338637e-09
-3.975928141e-08
-4.241452042e-08
-4.494096961e-08
-4.58872916e-08
)


101
(
8.424751659e-15
1.498006919e-13
1.419592556e-13
-4.849449562e-12
-2.851889045e-11
-9.02268633e-11
-2.184012186e-10
-4.433516559e-10
-7.871044745e-10
-1.266157962e-09
-1.889521379e-09
-2.656177691e-09
-3.555445276e-09
-4.578078478e-09
-5.706236182e-09
-6.908194845e-09
-8.153799194e-09
-9.437402966e-09
-1.071107957e-08
-1.196475975e-08
-1.321185229e-08
-1.439235713e-08
-1.550639022e-08
-1.657526004e-08
-1.758304946e-08
-1.852258443e-08
-1.939489674e-08
-2.019354683e-08
-2.092112984e-08
-2.158286158e-08
-2.21810104e-08
-2.273769638e-08
-2.317923617e-08
-2.354408682e-08
-2.388872342e-08
-2.416191265e-08
-2.438283261e-08
-2.45344792e-08
-2.459227586e-08
-2.457903752e-08
-2.453636976e-08
-2.442891482e-08
-2.423961157e-08
-2.400612026e-08
-2.370606639e-08
-2.334030076e-08
-2.291397323e-08
-2.242597421e-08
-2.188135557e-08
-2.128029884e-08
-2.062766802e-08
-1.99198192e-08
-1.916355493e-08
-1.836152042e-08
-1.751370794e-08
-1.661271516e-08
-1.567110388e-08
-1.468725831e-08
-1.365758897e-08
-1.25923856e-08
-1.149304024e-08
-1.036557985e-08
-9.20996528e-09
-8.0269639e-09
-6.816551294e-09
-5.577116767e-09
-4.307632393e-09
-3.011725627e-09
-1.697170807e-09
-3.714248436e-10
9.6255675e-10
2.304061871e-09
3.650629982e-09
4.998704593e-09
6.352531197e-09
7.724896765e-09
9.113485182e-09
1.050491631e-08
1.189093149e-08
1.328026623e-08
1.468789537e-08
1.610287809e-08
1.752480814e-08
1.896963679e-08
2.040442201e-08
2.180752053e-08
2.318811844e-08
2.45641392e-08
2.590242451e-08
2.726533844e-08
2.862183471e-08
2.984322488e-08
3.094119151e-08
3.193003997e-08
3.169666736e-08
2.972758663e-08
-7.27258606e-09
-4.422372259e-08
-4.706126452e-08
-4.975660662e-08
-5.076395152e-08
)


101
(
7.021814061e-15
1.523222098e-13
2.258155558e-13
-4.2563841e-12
-2.617069202e-11
-8.378139092e-11
-2.038320486e-10
-4.152168734e-10
-7.392845222e-10
-1.192194947e-09
-1.783277392e-09
-2.512881829e-09
-3.371571259e-09
-4.351105685e-09
-5.436345048e-09
-6.598362392e-09
-7.808179145e-09
-9.060726498e-09
-1.031042693e-08
-1.154660563e-08
-1.278185024e-08
-1.395831269e-08
-1.507527089e-08
-1.615219739e-08
-1.717280399e-08
-1.812973124e-08
-1.902372462e-08
-1.984811749e-08
-2.060513671e-08
-2.129969385e-08
-2.193378581e-08
-2.252904143e-08
-2.301210655e-08
-2.342063805e-08
-2.381093041e-08
-2.413233263e-08
-2.440412051e-08
-2.460925297e-08
-2.472271454e-08
-2.476705025e-08
-2.478405102e-08
-2.473810307e-08
-2.461171255e-08
-2.444264311e-08
-2.420798424e-08
-2.390831401e-08
-2.354848461e-08
-2.312714843e-08
-2.264952743e-08
-2.211563101e-08
-2.15297576e-08
-2.08875624e-08
-2.0195917e-08
-1.945754403e-08
-1.867292541e-08
-1.783466718e-08
-1.695592386e-08
-1.60341221e-08
-1.506400332e-08
-1.40551814e-08
-1.300888052e-08
-1.193215289e-08
-1.082525307e-08
-9.689561242e-09
-8.526354438e-09
-7.334198232e-09
-6.109911628e-09
-4.853542216e-09
-3.570987009e-09
-2.270942735e-09
-9.599787622e-10
3.581485999e-10
1.68086177e-09
3.006440893e-09
4.342088511e-09
5.703618734e-09
7.088983846e-09
8.480418673e-09
9.865370877e-09
1.125445849e-08
1.266943873e-08
1.409881682e-08
1.553660135e-08
1.700546673e-08
1.848553223e-08
1.994394845e-08
2.137144481e-08
2.279670944e-08
2.419296669e-08
2.561213974e-08
2.704071653e-08
2.834862264e-08
2.951078053e-08
3.054611282e-08
3.02411658e-08
2.801874816e-08
-1.043819802e-08
-4.875136291e-08
-5.170589615e-08
-5.446538617e-08
-5.548600818e-08
)


101
(
5.510631165e-15
1.532557035e-13
2.978756128e-13
-3.713881326e-12
-2.397810446e-11
-7.770885607e-11
-1.900396881e-10
-3.884706011e-10
-6.936519475e-10
-1.121366126e-09
-1.681171392e-09
-2.374606103e-09
-3.193458244e-09
-4.130414018e-09
-5.172668527e-09
-6.293999953e-09
-7.466827768e-09
-8.686576825e-09
-9.909983053e-09
-1.112610358e-08
-1.234662419e-08
-1.351569667e-08
-1.46320209e-08
-1.571355624e-08
-1.674370285e-08
-1.771478314e-08
-1.862714676e-08
-1.947387421e-08
-2.02568449e-08
-2.098076343e-08
-2.164748989e-08
-2.22781986e-08
-2.279993945e-08
-2.324936917e-08
-2.368238529e-08
-2.404901995e-08
-2.436869376e-08
-2.462449122e-08
-2.479108887e-08
-2.489069121e-08
-2.496514701e-08
-2.497873418e-08
-2.491366419e-08
-2.480776679e-08
-2.463765657e-08
-2.440361373e-08
-2.411026653e-08
-2.375599853e-08
-2.334596177e-08
-2.288017092e-08
-2.236281021e-08
-2.17887145e-08
-2.116443539e-08
-2.049270501e-08
-1.977412907e-08
-1.900153462e-08
-1.818929949e-08
-1.733423319e-08
-1.642962821e-08
-1.548409529e-08
-1.449782055e-08
-1.347860674e-08
-1.242717316e-08
-1.134529026e-08
-1.023553935e-08
-9.097593993e-09
-7.927594226e-09
-6.722567106e-09
-5.485385088e-09
-4.223280876e-09
-2.944703773e-09
-1.657445288e-09
-3.663197924e-10
9.262722141e-10
2.229075314e-09
3.56314444e-09
4.931289605e-09
6.313599387e-09
7.689268878e-09
9.065424715e-09
1.047093256e-08
1.190007715e-08
1.334266995e-08
1.481948989e-08
1.632434204e-08
1.782748197e-08
1.929606411e-08
2.075512748e-08
2.219689253e-08
2.366318259e-08
2.514751196e-08
2.653381864e-08
2.775603183e-08
2.882529424e-08
2.84420023e-08
2.595998083e-08
-1.377659009e-08
-5.325346566e-08
-5.622741274e-08
-5.907990916e-08
-6.023140802e-08
)


101
(
3.920778606e-15
1.527711965e-13
3.590082808e-13
-3.219046579e-12
-2.1933718e-11
-7.199382654e-11
-1.769955298e-10
-3.630695096e-10
-6.501512696e-10
-1.053612446e-09
-1.58315648e-09
-2.241344575e-09
-3.021153814e-09
-3.916133844e-09
-4.915496124e-09
-5.995589524e-09
-7.130389448e-09
-8.315786658e-09
-9.510773903e-09
-1.070441314e-08
-1.190750867e-08
-1.306606608e-08
-1.417834072e-08
-1.526104386e-08
-1.629740491e-08
-1.727941413e-08
-1.820693654e-08
-1.907272985e-08
-1.987827245e-08
-2.062808645e-08
-2.132403644e-08
-2.198694557e-08
-2.25444316e-08
-2.303199485e-08
-2.350484839e-08
-2.391372336e-08
-2.427819334e-08
-2.458165381e-08
-2.479866478e-08
-2.495104333e-08
-2.508051726e-08
-2.515134778e-08
-2.514560678e-08
-2.510118242e-08
-2.499431615e-08
-2.482499187e-08
-2.459762858e-08
-2.431036119e-08
-2.396814127e-08
-2.357089116e-08
-2.312287459e-08
-2.261851929e-08
-2.206390932e-08
-2.146138224e-08
-2.081157452e-08
-2.010716416e-08
-1.936401074e-08
-1.857930301e-08
-1.774516431e-08
-1.686895571e-08
-1.594938487e-08
-1.499440788e-08
-1.40050822e-08
-1.298370746e-08
-1.193358015e-08
-1.085580439e-08
-9.747453638e-09
-8.603715872e-09
-7.424325289e-09
-6.213376287e-09
-4.979010266e-09
-3.73166936e-09
-2.479185547e-09
-1.227225849e-09
3.106555202e-11
1.320470017e-09
2.653544463e-09
4.013530598e-09
5.372065287e-09
6.727048519e-09
8.107140411e-09
9.516963296e-09
1.09510159e-08
1.242222126e-08
1.393062633e-08
1.546127267e-08
1.696443584e-08
1.84438358e-08
1.991378367e-08
2.141838453e-08
2.294032485e-08
2.439248978e-08
2.567123527e-08
2.675973372e-08
2.629114569e-08
2.354730778e-08
-1.723177705e-08
-5.760859213e-08
-6.047164952e-08
-6.316963565e-08
-6.430784247e-08
)


101
(
2.279524948e-15
1.510315422e-13
4.10049462e-13
-2.769073887e-12
-2.003029603e-11
-6.662112431e-11
-1.646712207e-10
-3.389700425e-10
-6.087255314e-10
-9.888709719e-10
-1.489178743e-09
-2.113079406e-09
-2.854689811e-09
-3.708372517e-09
-4.665078371e-09
-5.703570108e-09
-6.799475207e-09
-7.949147843e-09
-9.113787991e-09
-1.028267033e-08
-1.14657909e-08
-1.261092668e-08
-1.371591796e-08
-1.479640941e-08
-1.583564017e-08
-1.682532985e-08
-1.776484592e-08
-1.864655527e-08
-1.947143004e-08
-2.024374678e-08
-2.096545834e-08
-2.165717978e-08
-2.224734884e-08
-2.277024693e-08
-2.328010251e-08
-2.372826576e-08