/*--------------------------------*- C++ -*----------------------------------*\
| =========                 |                                                 |
| \\      /  F ield         | OpenFOAM: The Open Source CFD Toolbox           |
|  \\    /   O peration     | Version:  2.3.1                                 |
|   \\  /    A nd           | Web:      www.OpenFOAM.org                      |
|    \\/     M anipulation  |                                                 |
\*---------------------------------------------------------------------------*/
FoamFile
{
    version     2.0;
    format      ascii;
    class       dictionary;
    location    "constant";
    object      DPSI1;
}
// * * * * * * * * * * * * * * * * * * * * * * * * * * * * * * * * * * * * * //

DPSI1_table
101
(

101
(
1.535007577e-06
1.608656518e-06
1.703243123e-06
1.725170151e-06
1.706358316e-06
1.667087514e-06
1.616685782e-06
1.561248049e-06
1.505971157e-06
1.452041103e-06
1.400403845e-06
1.351932935e-06
1.305698814e-06
1.26179408e-06
1.221440381e-06
1.183371857e-06
1.146738592e-06
1.113621047e-06
1.081606996e-06
1.05098308e-06
1.024443791e-06
9.979830952e-07
9.724488987e-07
9.496045441e-07
9.283745545e-07
9.083921873e-07
8.897251693e-07
8.720389304e-07
8.553253725e-07
8.397067219e-07
8.251378273e-07
8.123076523e-07
7.985864945e-07
7.851226392e-07
7.739059989e-07
7.630495461e-07
7.531474037e-07
7.436580124e-07
7.337924841e-07
7.241813252e-07
7.160637507e-07
7.08390344e-07
7.005544401e-07
6.936516207e-07
6.869727347e-07
6.804794706e-07
6.742928689e-07
6.68306362e-07
6.626209799e-07
6.572037162e-07
6.521548507e-07
6.472546041e-07
6.426233993e-07
6.38276853e-07
6.341705921e-07
6.299553994e-07
6.261259933e-07
6.225685882e-07
6.190252499e-07
6.157485682e-07
6.125737583e-07
6.096505331e-07
6.06836847e-07
6.041546775e-07
6.016182402e-07
5.992324311e-07
5.970120145e-07
5.948576993e-07
5.928474294e-07
5.909959254e-07
5.892288751e-07
5.875303255e-07
5.859908493e-07
5.846665468e-07
5.834899852e-07
5.823208503e-07
5.81177691e-07
5.802305782e-07
5.79429238e-07
5.787255759e-07
5.780430012e-07
5.774640274e-07
5.770131337e-07
5.766460295e-07
5.764018004e-07
5.762313816e-07
5.76133071e-07
5.761085671e-07
5.761465702e-07
5.762787014e-07
5.764996891e-07
5.767627169e-07
5.770879102e-07
5.774817815e-07
5.779308929e-07
5.782984379e-07
2.893804797e-07
4.596686349e-27
1.389989257e-24
3.606611229e-40
-3.085908184e-24
)


101
(
1.519695041e-06
1.593737813e-06
1.688627083e-06
1.711621747e-06
1.694279253e-06
1.656674354e-06
1.607980755e-06
1.554249479e-06
1.500648528e-06
1.448340379e-06
1.398258979e-06
1.351280932e-06
1.306468804e-06
1.263946034e-06
1.224905839e-06
1.188094381e-06
1.152674012e-06
1.120745109e-06
1.089820435e-06
1.060314246e-06
1.034813762e-06
1.009335006e-06
9.847929765e-07
9.628983823e-07
9.425779382e-07
9.234773851e-07
9.05667907e-07
8.888079905e-07
8.72906028e-07
8.580734733e-07
8.442743168e-07
8.322072058e-07
8.191538953e-07
8.064456603e-07
7.959344813e-07
7.857638902e-07
7.76539906e-07
7.67693118e-07
7.584483058e-07
7.494723292e-07
7.420083473e-07
7.349272845e-07
7.276889128e-07
7.213901749e-07
7.152771277e-07
7.093578865e-07
7.037201867e-07
6.982875367e-07
6.931383887e-07
6.882609872e-07
6.837368768e-07
6.793531202e-07
6.752334302e-07
6.713922502e-07
6.677818276e-07
6.640393391e-07
6.607080274e-07
6.576176721e-07
6.545475064e-07
6.517318266e-07
6.490173038e-07
6.465500562e-07
6.441848213e-07
6.41945853e-07
6.398474166e-07
6.378998228e-07
6.361125862e-07
6.343840712e-07
6.328030366e-07
6.313719186e-07
6.300223718e-07
6.287429435e-07
6.276265374e-07
6.267211407e-07
6.259615326e-07
6.252067241e-07
6.244750525e-07
6.239427648e-07
6.235616295e-07
6.232754615e-07
6.230101777e-07
6.228525498e-07
6.228233001e-07
6.228876195e-07
6.230625454e-07
6.233172472e-07
6.236470581e-07
6.240525072e-07
6.244931576e-07
6.250543485e-07
6.256713707e-07
6.262816463e-07
6.269787342e-07
6.277052754e-07
6.284564545e-07
6.291645269e-07
3.17476017e-07
5.329266219e-09
5.754416311e-09
6.166345474e-09
6.447742995e-09
)


101
(
1.504381734e-06
1.578795562e-06
1.67396187e-06
1.697995359e-06
1.682090944e-06
1.646119046e-06
1.599099889e-06
1.547038909e-06
1.495078473e-06
1.444355651e-06
1.395793387e-06
1.350270472e-06
1.306844012e-06
1.265662191e-06
1.227898493e-06
1.192306102e-06
1.158058551e-06
1.127275146e-06
1.09741156e-06
1.068967559e-06
1.04447827e-06
1.0199468e-06
9.963441687e-07
9.753642008e-07
9.559190628e-07
9.376625528e-07
9.206726309e-07
9.046029381e-07
8.894721425e-07
8.753900527e-07
8.623233226e-07
8.509843291e-07
8.385797382e-07
8.265462685e-07
8.167216035e-07
8.072040688e-07
7.986245884e-07
7.903937129e-07
7.817288498e-07
7.733345344e-07
7.664818436e-07
7.599789946e-07
7.532919953e-07
7.475584966e-07
7.419869369e-07
7.365974913e-07
7.314776406e-07
7.265547418e-07
7.219081746e-07
7.175279415e-07
7.13495267e-07
7.095901806e-07
7.059442789e-07
7.025721315e-07
6.994228261e-07
6.961188415e-07
6.932354356e-07
6.905869891e-07
6.879456222e-07
6.85557303e-07
6.832625754e-07
6.812149779e-07
6.792628194e-07
6.774289906e-07
6.757321189e-07
6.741856672e-07
6.727966427e-07
6.714597501e-07
6.702708977e-07
6.692272134e-07
6.68261083e-07
6.673679234e-07
6.666380842e-07
6.661204229e-07
6.657491629e-07
6.653864959e-07
6.65038121e-07
6.648947384e-07
6.649122347e-07
6.650239241e-07
6.651598739e-07
6.654049935e-07
6.657851076e-07
6.662710527e-07
6.668590543e-07
6.675372951e-07
6.682964166e-07
6.691355335e-07
6.699820412e-07
6.709813179e-07
6.720065723e-07
6.729711215e-07
6.7405225e-07
6.751225528e-07
6.761947555e-07
6.772416862e-07
3.445604799e-07
1.143111451e-08
1.227410035e-08
1.308803804e-08
1.362592841e-08
)


101
(
1.489067658e-06
1.563829769e-06
1.659247516e-06
1.684291134e-06
1.66979374e-06
1.635422226e-06
1.590044165e-06
1.539617845e-06
1.489262922e-06
1.440089476e-06
1.393010241e-06
1.348905488e-06
1.306828947e-06
1.266948476e-06
1.230424513e-06
1.196014173e-06
1.162900716e-06
1.133221129e-06
1.10438844e-06
1.076957705e-06
1.053447108e-06
1.029830437e-06
1.007120501e-06
9.870169662e-07
9.684129349e-07
9.509646065e-07
9.347574767e-07
9.194423799e-07
9.050446992e-07
8.916771249e-07
8.793069494e-07
8.686611606e-07
8.568818085e-07
8.454664229e-07
8.362906372e-07
8.273947761e-07
8.194273168e-07
8.117839025e-07
8.036655291e-07
7.958086261e-07
7.895227531e-07
7.835707147e-07
7.77400976e-07
7.721942536e-07
7.671335693e-07
7.622382882e-07
7.576022177e-07
7.531515301e-07
7.489716599e-07
7.450507061e-07
7.414734527e-07
7.380113563e-07
7.348027687e-07
7.318634908e-07
7.291402577e-07
7.262413863e-07
7.237655718e-07
7.215241567e-07
7.192754341e-07
7.172785725e-07
7.153671813e-07
7.137027118e-07
7.121284867e-07
7.106640412e-07
7.09333095e-07
7.081524592e-07
7.071268905e-07
7.061481297e-07
7.053174351e-07
7.046276465e-07
7.040125208e-07
7.034748209e-07
7.030995137e-07
7.02937655e-07
7.029246383e-07
7.029288126e-07
7.02939118e-07
7.031601316e-07
7.035547505e-07
7.040445572e-07
7.045652842e-07
7.051974493e-07
7.05973511e-07
7.068713654e-07
7.078640937e-07
7.089624907e-07
7.101524092e-07
7.114290562e-07
7.126842518e-07
7.141301541e-07
7.155724198e-07
7.168968848e-07
7.18375138e-07
7.197986759e-07
7.212092143e-07
7.225949267e-07
3.706376971e-07
1.824608378e-08
1.950007424e-08
2.070743214e-08
2.147963404e-08
)


101
(
1.473752812e-06
1.548840438e-06
1.64448405e-06
1.670509219e-06
1.657387989e-06
1.624584524e-06
1.580814555e-06
1.531987773e-06
1.483203791e-06
1.435544379e-06
1.38991268e-06
1.347189861e-06
1.30642808e-06
1.267810666e-06
1.232490078e-06
1.199225647e-06
1.167208841e-06
1.138592833e-06
1.110759598e-06
1.084298091e-06
1.061731159e-06
1.038997612e-06
1.017138547e-06
9.97872469e-07
9.800749192e-07
9.63400215e-07
9.479404714e-07
9.333451192e-07
9.196443248e-07
9.069557801e-07
8.952472403e-07
8.852602198e-07
8.740802079e-07
8.632398982e-07
8.546712209e-07
8.463630312e-07
8.389750356e-07
8.318896961e-07
8.24287892e-07
8.169315393e-07
8.111707131e-07
8.057358274e-07
8.000517884e-07
7.953364663e-07
7.907541102e-07
7.863202083e-07
7.821348884e-07
7.781221058e-07
7.743743632e-07
7.708774496e-07
7.677204896e-07
7.646670539e-07
7.618611694e-07
7.593199509e-07
7.569884997e-07
7.544622849e-07
7.523587895e-07
7.504894525e-07
7.48599506e-07
7.469600198e-07
7.453980724e-07
7.440824647e-07
7.428526933e-07
7.41724129e-07
7.407256799e-07
7.398778664e-07
7.391830499e-07
7.385308429e-07
7.380270973e-07
7.376598844e-07
7.373654594e-07
7.371548422e-07
7.371056571e-07
7.37270764e-07
7.375880117e-07
7.379344985e-07
7.382805952e-07
7.388438306e-07
7.395959436e-07
7.404462384e-07
7.413371784e-07
7.42343166e-07
7.435037783e-07
7.448055456e-07
7.46195903e-07
7.477112339e-07
7.493332276e-07
7.510528509e-07
7.527212169e-07
7.546229574e-07
7.564915386e-07
7.581816075e-07
7.600704514e-07
7.618577185e-07
7.636209966e-07
7.65349519e-07
3.957459639e-07
2.572057735e-08
2.737897364e-08
2.89719712e-08
2.995939356e-08
)


101
(
1.458437193e-06
1.533827569e-06
1.6296715e-06
1.656649756e-06
1.644874033e-06
1.613606562e-06
1.571412024e-06
1.524150165e-06
1.476902984e-06
1.430722854e-06
1.386503808e-06
1.34512742e-06
1.305645846e-06
1.268254404e-06
1.23410135e-06
1.201947493e-06
1.170991095e-06
1.143399835e-06
1.116533888e-06
1.091001205e-06
1.069341905e-06
1.047460008e-06
1.026413769e-06
1.007946746e-06
9.909207819e-07
9.749859826e-07
9.60239507e-07
9.463300365e-07
9.332914487e-07
9.212473213e-07
9.101663384e-07
9.008042662e-07
8.901964407e-07
8.798960471e-07
8.718942891e-07
8.641378684e-07
8.572962629e-07
8.507389495e-07
8.436254776e-07
8.367378148e-07
8.314645e-07
8.265117627e-07
8.212820295e-07
8.170249761e-07
8.128888189e-07
8.088849243e-07
8.051189201e-07
8.015121837e-07
7.981641599e-07
7.950584158e-07
7.922885357e-07
7.896112101e-07
7.871755386e-07
7.84999666e-07
7.83027409e-07
7.808428439e-07
7.790795681e-07
7.775496795e-07
7.759868221e-07
7.746729894e-07
7.734292737e-07
7.724311106e-07
7.715149954e-07
7.706916296e-07
7.699951345e-07
7.694500611e-07
7.690561572e-07
7.687017472e-07
7.684969059e-07
7.684241831e-07
7.684232241e-07
7.685143434e-07
7.687663526e-07
7.692333074e-07
7.698564379e-07
7.705237336e-07
7.711855294e-07
7.720716639e-07
7.731643943e-07
7.743602718e-07
7.756098803e-07
7.769796137e-07
7.785163797e-07
7.802168015e-07
7.820002512e-07
7.839314361e-07
7.859882113e-07
7.881570556e-07
7.902457327e-07
7.926146129e-07
7.949203521e-07
7.969832853e-07
7.992963621e-07
8.014601684e-07
8.035887896e-07
8.056686217e-07
4.199461835e-07
3.380663257e-08
3.586411812e-08
3.783663367e-08
3.90233698e-08
)


101
(
1.44312081e-06
1.518791175e-06
1.614809903e-06
1.642712898e-06
1.632252222e-06
1.602488966e-06
1.561837533e-06
1.516106478e-06
1.470362395e-06
1.425627377e-06
1.382786703e-06
1.342721951e-06
1.304486641e-06
1.268285212e-06
1.235264464e-06
1.204186608e-06
1.174255504e-06
1.147651526e-06
1.121720394e-06
1.097078868e-06
1.076291108e-06
1.055229425e-06
1.034960792e-06
1.017255723e-06
1.00096656e-06
9.85738545e-07
9.716723537e-07
9.58416002e-07
9.460063583e-07
9.345731312e-07
9.240864936e-07
9.153162245e-07
9.052529591e-07
8.954618664e-07
8.879902677e-07
8.807500126e-07
8.744211643e-07
8.683611925e-07
8.617084107e-07
8.552607987e-07
8.50441495e-07
8.459372408e-07
8.411309503e-07
8.373005668e-07
8.335796923e-07
8.29975769e-07
8.265992669e-07
8.233688488e-07
8.203904241e-07
8.176453629e-07
8.152316021e-07
8.128999465e-07
8.108042528e-07
8.089634458e-07
8.073201262e-07
8.054483151e-07
8.03995802e-07
8.027755004e-07
8.015106531e-07
8.004933689e-07
7.995394377e-07
7.988302949e-07
7.982001079e-07
7.9765444e-07
7.972326669e-07
7.96963564e-07
7.96844018e-07
7.96761867e-07
7.968312577e-07
7.97028575e-07
7.97297474e-07
7.976684969e-07
7.982003784e-07
7.989478766e-07
7.998563908e-07
8.008267669e-07
8.017878897e-07
8.029811684e-07
8.044008866e-07
8.059305309e-07
8.075303365e-07
8.092573354e-07
8.111654165e-07
8.132625629e-07
8.154377411e-07
8.177864746e-07
8.202831267e-07
8.229094407e-07
8.254273803e-07
8.282772172e-07
8.310333912e-07
8.334787163e-07
8.362313032e-07
8.387859232e-07
8.412961158e-07
8.437360913e-07
4.4330634e-07
4.245853725e-08
4.491467327e-08
4.726575755e-08
4.863908945e-08
)


101
(
1.427803652e-06
1.503731249e-06
1.599899276e-06
1.628698774e-06
1.619522886e-06
1.591232341e-06
1.552092025e-06
1.507858146e-06
1.463583899e-06
1.420260387e-06
1.378764405e-06
1.33997719e-06
1.302954822e-06
1.267908509e-06
1.235985514e-06
1.205949829e-06
1.177009966e-06
1.151357124e-06
1.126328371e-06
1.102542444e-06
1.082590631e-06
1.062317812e-06
1.042793681e-06
1.025815091e-06
1.010228468e-06
9.956746587e-07
9.822567327e-07
9.696218445e-07
9.578092548e-07
9.469546496e-07
9.370301317e-07
9.288192246e-07
9.19272754e-07
9.099630844e-07
9.029884351e-07
8.962304878e-07
8.903811005e-07
8.847875256e-07
8.785679547e-07
8.725336127e-07
8.681380567e-07
8.640509895e-07
8.596386128e-07
8.562047973e-07
8.528697417e-07
8.496371993e-07
8.466220293e-07
8.43740225e-07
8.411035655e-07
8.386910945e-07
8.366048152e-07
8.34590621e-07
8.328069962e-07
8.312734583e-07
8.299314004e-07
8.283459567e-07
8.27177507e-07
8.262397447e-07
8.252466246e-07
8.244995708e-07
8.238098165e-07
8.233642636e-07
8.229953949e-07
8.227032e-07
8.225323467e-07
8.22515952e-07
8.22647679e-07
8.228156225e-07
8.231379857e-07
8.235844689e-07
8.241033398e-07
8.247361503e-07
8.255303415e-07
8.26540886e-07
8.277181274e-07
8.289776433e-07
8.302255829e-07
8.317141028e-07
8.334508043e-07
8.353058131e-07
8.372504686e-07
8.39331505e-07
8.416096151e-07
8.441050563e-07
8.466740754e-07
8.494452452e-07
8.52389472e-07
8.554838234e-07
8.584419219e-07
8.617890214e-07
8.650111033e-07
8.678510484e-07
8.710604017e-07
8.740218577e-07
8.769446352e-07
8.797448373e-07
4.658943835e-07
5.164024449e-08
5.449476199e-08
5.722366089e-08
5.87735942e-08
)


101
(
1.412485729e-06
1.488647805e-06
1.58493966e-06
1.614607537e-06
1.606686371e-06
1.579837306e-06
1.542176447e-06
1.499406594e-06
1.456569366e-06
1.41462431e-06
1.37443993e-06
1.336896834e-06
1.301054709e-06
1.267129609e-06
1.236270544e-06
1.20724393e-06
1.179262259e-06
1.154525672e-06
1.130367148e-06
1.107402958e-06
1.088252305e-06
1.068737207e-06
1.049926086e-06
1.033640182e-06
1.018722691e-06
1.004811115e-06
9.920102962e-07
9.799662743e-07
9.687201505e-07
9.584132046e-07
9.490197028e-07
9.413365757e-07
9.322792948e-07
9.234247577e-07
9.169168584e-07
9.106098443e-07
9.052079192e-07
9.000501219e-07
8.942363838e-07
8.88589586e-07
8.845898831e-07
8.808912044e-07
8.768451475e-07
8.737795425e-07
8.708024889e-07
8.679142819e-07
8.652338783e-07
8.626748408e-07
8.603543184e-07
8.582488038e-07
8.5646383e-07
8.547411577e-07
8.532439334e-07
8.519922924e-07
8.509263695e-07
8.496034732e-07
8.48695143e-07
8.480158528e-07
8.472711163e-07
8.467708564e-07
8.463225073e-07
8.461180249e-07
8.459888663e-07
8.459290894e-07
8.459887103e-07
8.462052655e-07
8.465687086e-07
8.469680077e-07
8.475254257e-07
8.482036709e-07
8.489562449e-07
8.498363468e-07
8.508789239e-07
8.521387049e-07
8.535716985e-07
8.551099736e-07
8.56635855e-07
8.584114683e-07
8.604588043e-07
8.626342408e-07
8.649216256e-07
8.673564973e-07
8.700064636e-07
8.72904871e-07
8.758730593e-07
8.790746965e-07
8.824770376e-07
8.86052509e-07
8.894638973e-07
8.933263794e-07
8.970322991e-07
9.002814892e-07
9.039670107e-07
9.073529768e-07
9.106983542e-07
9.138818768e-07
4.878107412e-07
6.13236148e-08
6.457861206e-08
6.768704328e-08
6.940622746e-08
)


101
(
1.397167025e-06
1.47354083e-06
1.569931064e-06
1.600439309e-06
1.593742995e-06
1.568304452e-06
1.532091722e-06
1.490753217e-06
1.449320639e-06
1.408721534e-06
1.369816258e-06
1.333484532e-06
1.298790578e-06
1.265953733e-06
1.236125539e-06
1.208075629e-06
1.181020049e-06
1.157166052e-06
1.133846097e-06
1.111671182e-06
1.093287886e-06
1.074499745e-06
1.056371392e-06
1.040745988e-06
1.026465323e-06
1.013164745e-06
1.000950685e-06
9.894679311e-07
9.787589238e-07
9.689700163e-07
9.600776618e-07
9.528917081e-07
9.442964064e-07
9.358717537e-07
9.298026855e-07
9.239178144e-07
9.189333046e-07
9.141817094e-07
9.087469023e-07
9.034626098e-07
8.998324887e-07
8.96495596e-07
8.927903168e-07
8.900665129e-07
8.874215113e-07
8.848523358e-07
8.824818065e-07
8.802214498e-07
8.78193429e-07
8.763715254e-07
8.748642145e-07
8.7340961e-07
8.721753919e-07
8.711825145e-07
8.703700249e-07
8.692883695e-07
8.686188845e-07
8.681768764e-07
8.676601453e-07
8.673862175e-07
8.671594199e-07
8.671763405e-07
8.672681127e-07
8.674226297e-07
8.676954089e-07
8.681285114e-07
8.687076139e-07
8.693229731e-07
8.701008028e-07
8.709965551e-07
8.719697995e-07
8.730860419e-07
8.743665985e-07
8.758653538e-07
8.775445853e-07
8.793545334e-07
8.811527676e-07
8.832107546e-07
8.855657315e-07
8.880598576e-07
8.906908668e-07
8.934822839e-07
8.965087483e-07
8.998174881e-07
9.031929622e-07
9.068358813e-07
9.107096001e-07
9.147814637e-07
9.186616327e-07
9.230592044e-07
9.272690075e-07
9.309442334e-07
9.351272415e-07
9.389572179e-07
9.427446562e-07
9.463297488e-07
5.091270919e-07
7.148249534e-08
7.514163652e-08
7.863287383e-08
8.051617001e-08
)


101
(
1.381847563e-06
1.458410349e-06
1.554873538e-06
1.586194247e-06
1.580693107e-06
1.556634394e-06
1.52183879e-06
1.48189942e-06
1.441839566e-06
1.402554442e-06
1.364896349e-06
1.3297439e-06
1.296166674e-06
1.264386023e-06
1.235556423e-06
1.208451582e-06
1.182290899e-06
1.159286983e-06
1.136774574e-06
1.115357689e-06
1.097708997e-06
1.079617558e-06
1.062142762e-06
1.047147155e-06
1.033472242e-06
1.020752299e-06
1.009095464e-06
9.9814531e-07
9.879452307e-07
9.786460686e-07
9.702263106e-07
9.635080687e-07
9.553481431e-07
9.473288778e-07
9.416723765e-07
9.361831598e-07
9.315882937e-07
9.272149772e-07
9.221331028e-07
9.171869893e-07
9.139013738e-07
9.10901436e-07
9.075133598e-07
9.051069464e-07
9.027699808e-07
9.004963694e-07
8.98412577e-07
8.964286085e-07
8.946713836e-07
8.931118456e-07
8.918608876e-07
8.906534064e-07
8.89661308e-07
8.889063703e-07
8.88326896e-07
8.874675156e-07
8.870180806e-07
8.867948199e-07
8.864885301e-07
8.864234007e-07
8.864011845e-07
8.866227075e-07
8.869193868e-07
8.872727882e-07
8.877441945e-07
8.883804317e-07
8.891623558e-07
8.89981753e-07
8.909685446e-07
8.92070625e-07
8.932544625e-07
8.945986755e-07
8.961098473e-07
8.978405131e-07
8.997596884e-07
9.018373055e-07
9.039051875e-07
9.062437531e-07
9.089064657e-07
9.117205149e-07
9.146986357e-07
9.178518686e-07
9.212620042e-07
9.249909121e-07
9.287840341e-07
9.328813388e-07
9.372421077e-07
9.418276612e-07
9.461939962e-07
9.511480033e-07
9.558835033e-07
9.600033695e-07
9.647067803e-07
9.690019256e-07
9.732578034e-07
9.772603885e-07
5.299141274e-07
8.209488516e-08
8.616426599e-08
9.004396359e-08
9.208843102e-08
)


101
(
1.366527331e-06
1.443256354e-06
1.539767098e-06
1.571872478e-06
1.567537027e-06
1.544827718e-06
1.511418563e-06
1.472846571e-06
1.434127965e-06
1.396125378e-06
1.359683125e-06
1.325678509e-06
1.293187195e-06
1.262431539e-06
1.234569055e-06
1.208378387e-06
1.183082275e-06
1.160897043e-06
1.13916189e-06
1.118472903e-06
1.101527143e-06
1.084102785e-06
1.067253226e-06
1.052858039e-06
1.039759089e-06
1.027590435e-06
1.016462153e-06
1.006016832e-06
9.962985662e-07
9.874621334e-07
9.794877744e-07
9.732090338e-07
9.654587326e-07
9.578210465e-07
9.525520688e-07
9.474338789e-07
9.432030807e-07
9.391821149e-07
9.344286102e-07
9.297973322e-07
9.26832152e-07
9.241456926e-07
9.210529902e-07
9.189414711e-07
9.168905248e-07
9.148910067e-07
9.130726674e-07
9.113444995e-07
9.098381822e-07
9.085217624e-07
9.075080603e-07
9.065290995e-07
9.057606704e-07
9.052253063e-07
9.048606929e-07
9.042067966e-07
9.039609068e-07
9.039403094e-07
9.038294955e-07
9.039583562e-07
9.041265322e-07
9.045386019e-07
9.050268579e-07
9.055663072e-07
9.062242833e-07
9.070527454e-07
9.08027486e-07
9.090419159e-07
9.102292925e-07
9.115294475e-07
9.129164907e-07
9.144830596e-07
9.162201838e-07
9.181785431e-07
9.203342737e-07
9.226782951e-07
9.250157224e-07
9.276355615e-07
9.306086228e-07
9.337465015e-07
9.370776229e-07
9.40600074e-07
9.444032168e-07
9.485642728e-07
9.527875463e-07
9.573540062e-07
9.62219391e-07
9.673378565e-07
9.722091342e-07
9.77742492e-07
9.83026548e-07
9.876114189e-07
9.928594928e-07
9.976424462e-07
1.002392206e-06
1.00683174e-06
5.502442976e-07
9.314337636e-08
9.762978662e-08
1.019043203e-07
1.041085266e-07
)


101
(
1.351206328e-06
1.428078849e-06
1.524611769e-06
1.557474135e-06
1.554275077e-06
1.532885013e-06
1.500831952e-06
1.463596031e-06
1.426187642e-06
1.389436671e-06
1.354179484e-06
1.321291892e-06
1.289856303e-06
1.260095266e-06
1.23316922e-06
1.207862574e-06
1.183401552e-06
1.162004658e-06
1.141017287e-06
1.12102709e-06
1.104753676e-06
1.087967532e-06
1.071715711e-06
1.057892753e-06
1.045341249e-06
1.03369564e-06
1.023068175e-06
1.013100804e-06
1.003838234e-06
9.954387105e-07
9.878839009e-07
9.820177886e-07
9.746523537e-07
9.673732119e-07
9.624676808e-07
9.576973391e-07
9.538069803e-07
9.501145597e-07
9.456666423e-07
9.413281248e-07
9.386604244e-07
9.362651799e-07
9.334474765e-07
9.316101146e-07
9.298250386e-07
9.280800812e-07
9.265078876e-07
9.250167991e-07
9.237431842e-07
9.226524222e-07
9.218588626e-07
9.210920242e-07
9.205311367e-07
9.201993167e-07
9.200337324e-07
9.19570718e-07
9.195139784e-07
9.196821354e-07
9.197541103e-07
9.200646435e-07
9.204115737e-07
9.210027467e-07
9.216717947e-07
9.223869089e-07
9.232217462e-07
9.242337367e-07
9.253935376e-07
9.265965497e-07
9.279788764e-07
9.294716301e-07
9.310570873e-07
9.328427162e-07
9.348033883e-07
9.369876065e-07
9.393790047e-07
9.419906017e-07
9.445998582e-07
9.475039304e-07
9.507919566e-07
9.542597097e-07
9.579519583e-07
9.618528679e-07
9.66060031e-07
9.706670327e-07
9.753348539e-07
9.80386691e-07
9.857755608e-07
9.91447886e-07
9.968443683e-07
1.002980929e-06
1.008837587e-06
1.013909025e-06
1.01972703e-06
1.025021613e-06
1.030285996e-06
1.035187517e-06
5.701875581e-07
1.046145296e-07
1.095277284e-07
1.142065068e-07
1.165710112e-07
)


101
(
1.335884557e-06
1.412877835e-06
1.509407577e-06
1.542999351e-06
1.540907581e-06
1.520806865e-06
1.490079861e-06
1.454149149e-06
1.418020391e-06
1.382490626e-06
1.348388296e-06
1.316587544e-06
1.286178116e-06
1.257382118e-06
1.231362633e-06
1.206910611e-06
1.183256012e-06
1.162618111e-06
1.142349901e-06
1.123030385e-06
1.107399807e-06
1.091223819e-06
1.075543046e-06
1.062265197e-06
1.050233839e-06
1.039084172e-06
1.028930795e-06
1.019415411e-06
1.010583369e-06
1.002596038e-06
9.95436209e-07
9.899572402e-07
9.829531056e-07
9.760103532e-07
9.714450673e-07
9.670005253e-07
9.634285674e-07
9.600428263e-07
9.55879654e-07
9.518134934e-07
9.494216418e-07
9.472964742e-07
9.447345867e-07
9.431522015e-07
9.416146251e-07
9.401065793e-07
9.387631329e-07
9.37492239e-07
9.36434932e-07
9.355540879e-07
9.349653255e-07
9.343961069e-07
9.340287411e-07
9.338866749e-07
9.33906512e-07
9.336219127e-07
9.337419711e-07
9.340869378e-07
9.343310226e-07
9.34813052e-07
9.353293782e-07
9.360905983e-07
9.369320702e-07
9.378148176e-07
9.388189656e-07
9.400078468e-07
9.413469109e-07
9.427340768e-07
9.443080158e-07
9.459903485e-07
9.477718549e-07
9.497754264e-07
9.519591935e-07
9.543693888e-07
9.569976564e-07
9.59880195e-07
9.627656551e-07
9.659588967e-07
9.695683687e-07
9.733737756e-07
9.774370833e-07
9.817274378e-07
9.863510179e-07
9.914190426e-07
9.965474041e-07
1.002102369e-06
1.008034496e-06
1.014282756e-06
1.020226221e-06
1.026990514e-06
1.033444608e-06
1.039025292e-06
1.045439433e-06
1.051270366e-06
1.057076357e-06
1.062461893e-06
5.898022707e-07
1.164999475e-07
1.218476546e-07
1.269381483e-07
1.294648485e-07
)


101
(
1.320562003e-06
1.397653306e-06
1.494154536e-06
1.528448245e-06
1.527434845e-06
1.508593843e-06
1.479163178e-06
1.444507248e-06
1.409627984e-06
1.37528952e-06
1.342312398e-06
1.311568922e-06
1.28215671e-06
1.25429694e-06
1.229154936e-06
1.205528896e-06
1.18265285e-06
1.162745559e-06
1.143168761e-06
1.124492777e-06
1.109476588e-06
1.093883585e-06
1.078747968e-06
1.06598909e-06
1.054451726e-06
1.043772053e-06
1.034067095e-06
1.024978683e-06
1.016552926e-06
1.008954098e-06
1.002165887e-06
9.970499281e-07
9.903847798e-07
9.837573298e-07
9.79510021e-07
9.753701841e-07
9.720958418e-07
9.689965821e-07
9.650992621e-07
9.612868728e-07
9.591508009e-07
9.572758746e-07
9.549517461e-07
9.536064478e-07
9.52299539e-07
9.510124414e-07
9.49882189e-07
9.488165022e-07
9.479608197e-07
9.472758211e-07
9.468782241e-07
9.464938495e-07
9.463077917e-07
9.463436832e-07
9.46537407e-07
9.464207326e-07
9.467072045e-07
9.47218942e-07
9.476262793e-07
9.48271494e-07
9.489498407e-07
9.498741167e-07
9.508817947e-07
9.519263348e-07
9.530943996e-07
9.5445547e-07
9.559697324e-07
9.575383092e-07
9.593022861e-07
9.611732583e-07
9.631506221e-07
9.65373095e-07
9.677813231e-07
9.704192479e-07
9.732872229e-07
9.764458083e-07
9.796137119e-07
9.831029217e-07
9.870419176e-07
9.911942072e-07
9.956399831e-07
1.000332409e-06
1.005386087e-06
1.010931155e-06
1.016537243e-06
1.022614521e-06
1.029110573e-06
1.035957591e-06
1.042470897e-06
1.049888408e-06
1.056965419e-06
1.063078753e-06
1.070115984e-06
1.076508779e-06
1.082883279e-06
1.088776279e-06
6.09144431e-07
1.287891207e-07
1.345847805e-07
1.401001244e-07
1.427925039e-07
)


101
(
1.305238681e-06
1.382405274e-06
1.478852681e-06
1.513820957e-06
1.513857197e-06
1.496246531e-06
1.468082802e-06
1.434671656e-06
1.401012189e-06
1.367835621e-06
1.335954609e-06
1.30623945e-06
1.277796125e-06
1.250844509e-06
1.226551695e-06
1.203723752e-06
1.181599177e-06
1.162395032e-06
1.143482788e-06
1.125424128e-06
1.110994925e-06
1.095958642e-06
1.081343096e-06
1.069077968e-06
1.058009526e-06
1.047775032e-06
1.038493914e-06
1.029808456e-06
1.021765668e-06
1.014532618e-06
1.008093767e-06
1.003317998e-06
9.969708433e-07
9.906387566e-07
9.866881954e-07
9.828328865e-07
9.798364117e-07
9.770047687e-07
9.733560776e-07
9.697807531e-07
9.678822181e-07
9.662391419e-07
9.641358645e-07
9.630108572e-07
9.61919116e-07
9.608385852e-07
9.599076066e-07
9.590338459e-07
9.58366914e-07
9.578653077e-07
9.576467425e-07
9.574360434e-07
9.57420768e-07
9.57624547e-07
9.579825235e-07
9.580251427e-07
9.584694586e-07
9.591396821e-07
9.597030738e-07
9.605048449e-07
9.61339594e-07
9.624217444e-07
9.635912449e-07
9.647936602e-07
9.661222336e-07
9.67652675e-07
9.693397949e-07
9.710884809e-07
9.730423616e-07
9.751026477e-07
9.772775095e-07
9.797216904e-07
9.823575361e-07
9.852264666e-07
9.883383021e-07
9.917793602e-07
9.952375031e-07
9.990311315e-07
1.003309229e-06
1.007818941e-06
1.01265978e-06
1.017768221e-06
1.023267081e-06
1.029306107e-06
1.035407813e-06
1.042027789e-06
1.049109556e-06
1.056578733e-06
1.063685604e-06
1.071782804e-06
1.079508784e-06
1.086178954e-06
1.093866597e-06
1.100847419e-06
1.107823371e-06
1.114244861e-06
6.28263141e-07
1.414749313e-07
1.477342852e-07
1.536899818e-07
1.565541927e-07
)


101
(
1.289914611e-06
1.367133765e-06
1.463502059e-06
1.499117636e-06
1.500174969e-06
1.483765519e-06
1.456839632e-06
1.424643693e-06
1.392174767e-06
1.360131182e-06
1.329317722e-06
1.300602523e-06
1.273100363e-06
1.247029546e-06
1.223558403e-06
1.201501429e-06
1.180102019e-06
1.161574447e-06
1.143300773e-06
1.125834164e-06
1.111965564e-06
1.097460676e-06
1.083340946e-06
1.071545213e-06
1.060921623e-06
1.051108594e-06
1.04222784e-06
1.033922359e-06
1.02624017e-06
1.019351088e-06
1.013240349e-06
1.008783147e-06
1.002734293e-06
9.966788911e-07
9.930049897e-07
9.894150009e-07
9.866775696e-07
9.840957775e-07
9.806798829e-07
9.773266327e-07
9.756492196e-07
9.742213054e-07
9.723232804e-07
9.714028564e-07
9.705118263e-07
9.696247464e-07
9.688806621e-07
9.681871559e-07
9.676977036e-07
9.673686586e-07
9.673185287e-07
9.672717225e-07
9.674181887e-07
9.677813704e-07
9.682955996e-07
9.684906567e-07
9.690859325e-07
9.699079646e-07
9.706217374e-07
9.715749208e-07
9.725619085e-07
9.737983473e-07
9.751269035e-07
9.764849499e-07
9.779723687e-07
9.796710667e-07
9.815303358e-07
9.834592978e-07
9.856042425e-07
9.878557759e-07
9.902312038e-07
9.929015839e-07
9.957698582e-07
9.988746246e-07
1.002235716e-06
1.005966658e-06
1.009723944e-06
1.01383179e-06
1.018460111e-06
1.023338997e-06
1.028588346e-06
1.034127758e-06
1.040088132e-06
1.046639094e-06
1.053255067e-06
1.06043892e-06
1.068129323e-06
1.07624475e-06
1.083969544e-06
1.092773861e-06
1.101175346e-06
1.108427366e-06
1.116793258e-06
1.124388742e-06
1.131985727e-06
1.138966168e-06
6.47221533e-07
1.545633024e-07
1.612970641e-07
1.677040203e-07
1.707465743e-07
)


101
(
1.274589748e-06
1.351838736e-06
1.448102648e-06
1.484338366e-06
1.486388431e-06
1.471151333e-06
1.445434508e-06
1.41442462e-06
1.383117426e-06
1.352178402e-06
1.322404476e-06
1.294661476e-06
1.268073367e-06
1.242856691e-06
1.220180466e-06
1.198868096e-06
1.178168311e-06
1.1602916e-06
1.142631386e-06
1.125732462e-06
1.112399084e-06
1.098401233e-06
1.084753915e-06
1.073404084e-06
1.063202209e-06
1.053787967e-06
1.045285195e-06
1.037337776e-06
1.029994799e-06
1.023428789e-06
1.017625849e-06
1.013466689e-06
1.007697656e-06
1.001901541e-06
9.984854596e-07
9.951426602e-07
9.926463928e-07
9.90297575e-07
9.870997065e-07
9.839549951e-07
9.824840706e-07
9.812564392e-07
9.795495579e-07
9.78819155e-07
9.781153455e-07
9.774096694e-07
9.76841385e-07
9.763178911e-07
9.759961744e-07
9.758303491e-07
9.759394959e-07
9.760481961e-07
9.763486803e-07
9.768641634e-07
9.775281225e-07
9.778702181e-07
9.786112008e-07
9.795799407e-07
9.804397986e-07
9.815405397e-07
9.826768996e-07
9.840653882e-07
9.855516427e-07
9.870645379e-07
9.887105902e-07
9.905780523e-07
9.926103238e-07
9.947211092e-07
9.970594729e-07
9.995052611e-07
1.002085457e-06
1.004987756e-06
1.008094759e-06
1.011441737e-06
1.015058837e-06
1.019088012e-06
1.023154026e-06
1.027586969e-06
1.0325779e-06
1.037839057e-06
1.0435114e-06
1.049497541e-06
1.055936717e-06
1.063018726e-06
1.070168364e-06
1.077937992e-06
1.086261044e-06
1.095047698e-06
1.103415335e-06
1.112955041e-06
1.122059262e-06
1.129918802e-06
1.138991667e-06
1.147228873e-06
1.155477066e-06
1.163041543e-06
6.660608061e-07
1.680513799e-07
1.752741296e-07
1.821470452e-07
1.853715343e-07
)


101
(
1.259264116e-06
1.336520212e-06
1.432654494e-06
1.469483291e-06
1.47249791e-06
1.458404553e-06