/*--------------------------------*- C++ -*----------------------------------*\
| =========                 |                                                 |
| \\      /  F ield         | OpenFOAM: The Open Source CFD Toolbox           |
|  \\    /   O peration     | Version:  2.3.1                                 |
|   \\  /    A nd           | Web:      www.OpenFOAM.org                      |
|    \\/     M anipulation  |                                                 |
\*---------------------------------------------------------------------------*/
FoamFile
{
    version     2.0;
    format      ascii;
    class       dictionary;
    location    "constant";
    object      DPSI23;
}
// * * * * * * * * * * * * * * * * * * * * * * * * * * * * * * * * * * * * * //

DPSI23_table
101
(

101
(
-1.270825939e-22
-1.274990345e-20
-1.819827986e-19
-9.214932382e-19
-2.604488343e-18
-5.114388565e-18
-8.118015382e-18
-1.098939419e-17
-1.305545005e-17
-1.390956827e-17
-1.331429156e-17
-1.134442142e-17
-8.124396017e-18
-4.045463911e-18
2.861885054e-19
4.397308428e-18
7.828694923e-18
1.011150063e-17
1.117924311e-17
1.119053378e-17
1.038505401e-17
9.023350057e-18
7.403853309e-18
5.868875092e-18
4.512029895e-18
3.377778505e-18
2.481528906e-18
1.794187808e-18
1.283320828e-18
9.166483677e-19
6.555132804e-19
4.759410848e-19
3.361930286e-19
2.34059772e-19
1.718289242e-19
1.127102926e-19
6.035775419e-20
5.729063479e-20
6.37747023e-20
4.486909711e-20
3.26504574e-20
2.385187912e-20
1.689127904e-20
1.219258371e-20
8.724381281e-21
6.12922159e-21
4.296341231e-21
2.963401513e-21
2.040067634e-21
1.386439897e-21
9.428638818e-22
6.299699708e-22
4.173184099e-22
2.742617959e-22
1.786580464e-22
1.122219393e-22
6.964480738e-23
4.387229137e-23
2.628415303e-23
1.578444945e-23
9.185046282e-24
5.374800419e-24
3.028135153e-24
1.646117622e-24
8.790552309e-25
4.629974063e-25
2.345396769e-25
1.135061899e-25
5.327700063e-26
2.459199455e-26
1.066989492e-26
4.465289964e-27
1.780029148e-27
6.978265102e-28
2.54514265e-28
1.126664819e-28
4.870438045e-29
1.434819612e-29
4.189916986e-30
1.168165032e-30
2.880396566e-31
5.907364274e-32
1.378375204e-32
2.640102384e-33
8.467791002e-34
2.409217926e-34
3.979528565e-35
6.034834029e-36
7.938438753e-37
9.454527722e-38
2.585795328e-38
2.30903014e-39
1.241642457e-40
6.703533647e-42
6.854744652e-43
5.821780032e-44
1.838289625e-45
-8.276151363e-51
9.406004067e-60
-1.659291741e-51
-2.088222173e-59
)


101
(
-2.592725208e-23
-1.14134237e-20
-1.699502473e-19
-8.680134307e-19
-2.467611823e-18
-4.878413661e-18
-7.768519619e-18
-1.054978732e-17
-1.259716759e-17
-1.351282421e-17
-1.306281274e-17
-1.129209357e-17
-8.326936441e-18
-4.505669774e-18
-3.545659349e-19
3.659827242e-18
7.096613563e-18
9.517201295e-18
1.080062422e-17
1.104239484e-17
1.042427533e-17
9.228953437e-18
7.740211986e-18
6.236592742e-18
4.86210529e-18
3.688694137e-18
2.741074066e-18
2.004691129e-18
1.45003047e-18
1.043877477e-18
7.509586807e-19
5.445885962e-19
3.929239161e-19
2.81222939e-19
2.044649892e-19
1.416166537e-19
8.852666733e-20
6.64321652e-20
6.262121318e-20
5.139211106e-20
3.864630179e-20
2.838925627e-20
2.049749075e-20
1.47706195e-20
1.062000387e-20
7.58057357e-21
5.384407932e-21
3.793589585e-21
2.653599271e-21
1.839746605e-21
1.266275638e-21
8.634526997e-22
5.837280213e-22
3.91123477e-22
2.588748845e-22
1.684214761e-22
1.07903627e-22
6.856822569e-23
4.292493581e-23
2.648945831e-23
1.608706948e-23
9.641242463e-24
5.678939886e-24
3.268250806e-24
1.835106322e-24
1.007797152e-24
5.416941277e-25
2.82985909e-25
1.437181238e-25
7.071327536e-26
3.345671579e-26
1.521484332e-26
6.680768631e-27
2.822155519e-27
1.111807158e-27
4.275673138e-28
1.62224041e-28
5.619244508e-29
1.804201937e-29
5.429017783e-30
1.496372972e-30
3.695359736e-31
7.923483889e-32
1.621819819e-32
3.039064437e-33
6.203459743e-34
1.868438084e-34
6.19599599e-35
1.558081031e-35
2.386328345e-36
4.060740321e-37
6.401449515e-38
8.545358292e-39
1.055411922e-39
8.625742782e-41
1.104686881e-41
1.240345926e-42
-6.040895315e-41
4.917144565e-31
6.582415041e-31
2.969389313e-31
)


101
(
5.595258909e-23
-1.022530082e-20
-1.590658132e-19
-8.205460216e-19
-2.349006119e-18
-4.679899575e-18
-7.493497545e-18
-1.023832235e-17
-1.232652498e-17
-1.336354909e-17
-1.310764622e-17
-1.156877944e-17
-8.85749905e-18
-5.261527878e-18
-1.24121824e-18
2.751460176e-18
6.282662776e-18
8.930507832e-18
1.0502915e-17
1.104271172e-17
1.069305015e-17
9.688893286e-18
8.318649674e-18
6.851346696e-18
5.450576621e-18
4.215480891e-18
3.189283898e-18
2.371823029e-18
1.742259618e-18
1.271020154e-18
9.247349651e-19
6.760357369e-19
4.939398052e-19
3.600273936e-19
2.646735855e-19
1.885751195e-19
1.267720624e-19
9.067460942e-20
7.522730239e-20
6.313147321e-20
5.011440353e-20
3.806190957e-20
2.812085849e-20
2.060164828e-20
1.503279472e-20
1.092137139e-20
7.918135778e-21
5.717378995e-21
4.105574386e-21
2.928523384e-21
2.074573203e-21
1.458113141e-21
1.017773125e-21
7.065630922e-22
4.868920168e-22
3.31818811e-22
2.233885677e-22
1.487528085e-22
9.810568828e-23
6.401343996e-23
4.12718416e-23
2.636471502e-23
1.662503228e-23
1.031361045e-23
6.30078544e-24
3.788178153e-24
2.238357303e-24
1.293623126e-24
7.328136003e-25
4.075329956e-25
2.200465166e-25
1.148740886e-25
5.806022361e-26
2.878946594e-26
1.369672895e-26
6.224339403e-27
2.717537774e-27
1.132374476e-27
4.51312209e-28
1.729012345e-28
6.296822952e-29
2.147405984e-29
6.675614357e-30
1.962409519e-30
5.221843338e-31
1.212575455e-31
2.541073745e-32
5.83877807e-33
1.826044754e-33
4.298605828e-34
8.469687705e-35
1.818720048e-35
3.926427605e-36
8.843762831e-37
1.542787017e-37
2.888579315e-38
3.82875093e-39
-1.057117366e-38
-3.555210513e-35
5.75288502e-25
1.197863259e-24
)


101
(
1.222552557e-22
-9.15825093e-21
-1.490817047e-19
-7.775205194e-19
-2.243173808e-18
-4.505999948e-18
-7.264382746e-18
-1.00019448e-17
-1.216122191e-17
-1.334897464e-17
-1.331116334e-17
-1.202196016e-17
-9.569028134e-18
-6.192375643e-18
-2.293047476e-18
1.698068967e-18
5.352976782e-18
8.263183692e-18
1.01671164e-17
1.105244311e-17
1.102855518e-17
1.026297032e-17
9.040453782e-18
7.634375657e-18
6.219301385e-18
4.920045484e-18
3.803637972e-18
2.886804083e-18
2.160936397e-18
1.603601814e-18
1.184210973e-18
8.763903951e-19
6.483702951e-19
4.801288743e-19
3.602502281e-19
2.626098321e-19
1.835831879e-19
1.32752469e-19
1.030749232e-19
8.423744775e-20
6.867695031e-20
5.412140707e-20
4.132628161e-20
3.110125043e-20
2.320330513e-20
1.723002912e-20
1.279379465e-20
9.494751827e-21
7.033185785e-21
5.187965635e-21
3.808856606e-21
2.776063639e-21
2.011816601e-21
1.45280376e-21
1.044147094e-21
7.458325299e-22
5.289242125e-22
3.711832175e-22
2.585099227e-22
1.785243073e-22
1.219323816e-22
8.273431777e-23
5.563014753e-23
3.697923116e-23
2.434839384e-23
1.582930478e-23
1.01357207e-23
6.375407749e-24
3.934137018e-24
2.404071086e-24
1.44331314e-24
8.428847168e-25
4.790701599e-25
2.67606715e-25
1.45817572e-25
7.686305508e-26
3.909505817e-26
1.910681205e-26
9.002667704e-27
4.094473429e-27
1.80985567e-27
7.701589064e-28
3.070463841e-28
1.165414069e-28
4.182824423e-29
1.382313181e-29
4.139028282e-30
1.134931182e-30
3.333892343e-31
9.613206779e-32
2.340653509e-32
4.988973098e-33
1.165662571e-33
2.872086007e-34
6.624751426e-35
1.618805507e-35
5.902439969e-37
-2.322326891e-35
-2.072863423e-33
-6.734094874e-33
-9.542757364e-33
)


101
(
1.758708718e-22
-8.192206828e-21
-1.398258408e-19
-7.378798079e-19
-2.14656888e-18
-4.348945167e-18
-7.064925553e-18
-9.812173289e-18
-1.205998255e-17
-1.341673773e-17
-1.361494245e-17
-1.259382116e-17
-1.041447598e-17
-7.270853455e-18
-3.507236622e-18
4.739495519e-19
4.253981002e-18
7.438427759e-18
9.704351782e-18
1.098144904e-17
1.134213077e-17
1.087716438e-17
9.856431732e-18
8.557254139e-18
7.158697324e-18
5.809330157e-18
4.602662469e-18
3.575716098e-18
2.736138968e-18
2.072643125e-18
1.559161795e-18
1.17239989e-18
8.797546189e-19
6.61047784e-19
5.030098385e-19
3.779786427e-19
2.76493297e-19
2.023571071e-19
1.536682452e-19
1.224242887e-19
9.994599581e-20
8.074465478e-20
6.368954088e-20
4.947357045e-20
3.796223054e-20
2.892005661e-20
2.202009395e-20
1.67847933e-20
1.280490836e-20
9.754106198e-21
7.41642893e-21
5.605133048e-21
4.211295919e-21
3.154207835e-21
2.359363319e-21
1.756247917e-21
1.299423114e-21
9.556190496e-22
6.988669561e-22
5.079439024e-22
3.646795284e-22
2.603411833e-22
1.846487622e-22
1.297386297e-22
9.080480925e-23
6.306275471e-23
4.313326938e-23
2.90721046e-23
1.929076555e-23
1.270937474e-23
8.298584042e-24
5.290264367e-24
3.300715467e-24
2.023503917e-24
1.221212552e-24
7.215352678e-25
4.148498065e-25
2.303380615e-25
1.24263104e-25
6.484167629e-26
3.300552427e-26
1.641118138e-26
7.800872805e-27
3.546461285e-27
1.554741651e-27
6.454178314e-28
2.489666923e-28
8.80808951e-29
3.031821083e-29
1.051674007e-29
3.390767244e-30
9.398491382e-31
2.498566242e-31
6.448200158e-32
1.647291951e-32
4.576992024e-33
-1.153839944e-33
-1.781361731e-32
-2.864068436e-31
-2.016535769e-30
-3.591307649e-30
)


101
(
2.190741857e-22
-7.312239288e-21
-1.311776942e-19
-7.00907592e-19
-2.056883602e-18
-4.203970704e-18
-6.885734476e-18
-9.653413448e-18
-1.200159867e-17
-1.354189442e-17
-1.399390273e-17
-1.326300724e-17
-1.138172145e-17
-8.498497726e-18
-4.900958059e-18
-9.561941506e-19
2.932746594e-18
6.389433024e-18
9.038580832e-18
1.075209953e-17
1.15608967e-17
1.147018125e-17
1.072378756e-17
9.597563086e-18
8.266094846e-18
6.89808645e-18
5.614956549e-18
4.476477787e-18
3.510694107e-18
2.72165905e-18
2.092580831e-18
1.605064099e-18
1.224424986e-18
9.344897254e-19
7.226186251e-19
5.562551403e-19
4.21707372e-19
3.167272927e-19
2.408253593e-19
1.892878408e-19
1.536802276e-19
1.256802942e-19
1.016343384e-19
8.134473311e-20
6.431600266e-20
5.036221735e-20
3.929461045e-20
3.066406058e-20
2.400770421e-20
1.883038145e-20
1.478143904e-20
1.155266298e-20
8.971885004e-21
6.937277898e-21
5.365472228e-21
4.14314985e-21
3.183702201e-21
2.431737799e-21
1.850999367e-21
1.406869423e-21
1.055960446e-21
7.872815974e-22
5.849106718e-22
4.301894737e-22
3.157753115e-22
2.313109332e-22
1.676866907e-22
1.201976898e-22
8.470957665e-23
5.913726883e-23
4.129368315e-23
2.836634247e-23
1.914278713e-23
1.268785717e-23
8.296105458e-24
5.332659644e-24
3.366600944e-24
2.084345882e-24
1.256141031e-24
7.312298666e-25
4.14841448e-25
2.313046436e-25
1.26380853e-25
6.608487122e-26
3.358440739e-26
1.645935044e-26
7.672596725e-27
3.314061848e-27
1.366135002e-27
5.538766999e-28
2.197338377e-28
7.788401163e-29
2.584603798e-29
8.354764314e-30
2.520747331e-30
8.142135471e-31
-2.992181946e-31
-3.998309629e-30
-7.780572433e-29
-4.211493783e-28
-7.105450589e-28
)


101
(
2.536671394e-22
-6.507091928e-21
-1.230518514e-19
-6.661140119e-19
-1.972597743e-18
-4.068095574e-18
-6.721220767e-18
-9.516788354e-18
-1.197456956e-17
-1.371171898e-17
-1.44364694e-17
-1.402156493e-17
-1.246989737e-17
-9.884517593e-18
-6.495418023e-18
-2.628342831e-18
1.337525786e-18
5.050529964e-18
8.092507301e-18
1.028147757e-17
1.16040102e-17
1.196952034e-17
1.158547945e-17
1.071951131e-17
9.528595496e-18
8.194659388e-18
6.867457707e-18
5.630514504e-18
4.53534167e-18
3.606253375e-18
2.840129963e-18
2.228193868e-18
1.733222113e-18
1.345615439e-18
1.058256143e-18
8.322154025e-19
6.49826533e-19
5.021094789e-19
3.874668096e-19
3.044796127e-19
2.464291626e-19
2.02649207e-19
1.665585473e-19
1.365615331e-19
1.110038323e-19
8.932875229e-20
7.139374692e-20
5.690055754e-20
4.554235097e-20
3.660311816e-20
2.952401461e-20
2.378353247e-20
1.904155236e-20
1.514988897e-20
1.20537645e-20
9.608061885e-21
7.633282827e-21
6.032765468e-21
4.754588141e-21
3.741183366e-21
2.915189521e-21
2.260735855e-21
1.749973457e-21
1.342775189e-21
1.025588361e-21
7.838679025e-22
5.962721488e-22
4.498597701e-22
3.351264496e-22
2.465554301e-22
1.806855876e-22
1.315514657e-22
9.477380295e-23
6.733818156e-23
4.718610465e-23
3.250565278e-23
2.209287905e-23
1.487765316e-23
9.809422033e-24
6.286037934e-24
3.915761163e-24
2.395142589e-24
1.451564793e-24
8.508863849e-25
4.851316564e-25
2.707463399e-25
1.456166538e-25
7.392932906e-26
3.544032685e-26
1.672754062e-26
7.814071237e-27
3.356993407e-27
1.334767423e-27
5.268084678e-28
1.987537139e-28
7.773529192e-29
-6.499579174e-29
-6.502608391e-28
-9.736656722e-27
-1.551611393e-25
-2.999100894e-25
)


101
(
2.810867596e-22
-5.768136325e-21
-1.153868067e-19
-6.331604558e-19
-1.892699652e-18
-3.939425616e-18
-6.567978552e-18
-9.396997405e-18
-1.197217933e-17
-1.391913507e-17
-1.493678951e-17
-1.486677456e-17
-1.368203372e-17
-1.144050307e-17
-8.313221072e-18
-4.578946681e-18
-5.846868749e-19
3.351808154e-18
6.780388135e-18
9.472904909e-18
1.137231671e-17
1.228163722e-17
1.236138868e-17
1.18642991e-17
1.091337147e-17
9.69163457e-18
8.37619527e-18
7.074518998e-18
5.862820119e-18
4.789466503e-18
3.869863877e-18
3.111211891e-18
2.473754027e-18
1.957410297e-18
1.566527553e-18
1.256397305e-18
1.006435079e-18
7.992252774e-19
6.298931569e-19
5.000703876e-19
4.059685607e-19
3.351778157e-19
2.782331162e-19
2.321751451e-19
1.930709024e-19
1.593204684e-19
1.304667571e-19
1.061780785e-19
8.661109073e-20
7.100892568e-20
5.858928305e-20
4.841339891e-20
3.97958514e-20
3.25270133e-20
2.655849682e-20
2.171585095e-20
1.77510999e-20
1.447187542e-20
1.177057736e-20
9.565779459e-21
7.702069461e-21
6.172623975e-21
4.939382526e-21
3.927571071e-21
3.11094484e-21
2.465739834e-21
1.950220604e-21
1.53422008e-21
1.198304119e-21
9.241241636e-22
7.090495569e-22
5.420862485e-22
4.113379256e-22
3.093690923e-22
2.300479284e-22
1.684743916e-22
1.216432249e-22
8.73009771e-23
6.194579184e-23
4.31922933e-23
2.933509513e-23
1.942404598e-23
1.275262886e-23
8.232400171e-24
5.15744423e-24
3.188280708e-24
1.925463952e-24
1.112051208e-24
6.084583142e-25
3.270564952e-25
1.739701435e-25
8.801200771e-26
4.086723368e-26
1.900683416e-26
8.642175725e-27
4.016821862e-27
-5.481530027e-27
-4.792847879e-26
-6.055293042e-25
-2.438143388e-24
-3.817885423e-24
)


101
(
3.024882792e-22
-5.08863894e-21
-1.081373774e-19
-6.01808565e-19
-1.81650034e-18
-3.816717167e-18
-6.423849468e-18
-9.290666677e-18
-1.199011192e-17
-1.415967854e-17
-1.549156273e-17
-1.579811353e-17
-1.502277187e-17
-1.317906459e-17
-1.037797939e-17
-6.846239356e-18
-2.890308051e-18
1.216611425e-18
5.004673283e-18
8.211208967e-18
1.07415887e-17
1.228383606e-17
1.29387949e-17
1.293865297e-17
1.235588698e-17
1.135502673e-17
1.013627953e-17
8.831216361e-18
7.540370465e-18
6.337319107e-18
5.259573547e-18
4.338266756e-18
3.531993005e-18
2.854012083e-18
2.327087709e-18
1.902349429e-18
1.558902704e-18
1.269116588e-18
1.023427027e-18
8.260904767e-19
6.764217875e-19
5.618085186e-19
4.704039972e-19
3.97664735e-19
3.364588363e-19
2.834773016e-19
2.373655863e-19
1.97139348e-19
1.637426732e-19
1.367937159e-19
1.150481673e-19
9.696493965e-20
8.164359967e-20
6.840924359e-20
5.705633595e-20
4.771973993e-20
4.002449647e-20
3.348005036e-20
2.79591256e-20
2.337564156e-20
1.939269588e-20
1.603936566e-20
1.323530864e-20
1.083817252e-20
8.844076542e-21
7.21631173e-21
5.90308929e-21
4.826022126e-21
3.932971337e-21
3.167755355e-21
2.527338956e-21
2.005907439e-21
1.582561705e-21
1.251061567e-21
9.819132661e-22
7.588870335e-22
5.787031857e-22
4.381807133e-22
3.300432066e-22
2.457791541e-22
1.792754411e-22
1.277196612e-22
8.993540198e-23
6.289958578e-23
4.295916718e-23
2.885258637e-23
1.903403307e-23
1.229637215e-23
7.525349299e-24
4.538596068e-24
2.709866503e-24
1.546511553e-24
8.250234308e-25
4.434260658e-25
2.354146116e-25
1.292728587e-25
-2.460880535e-25
-1.900643206e-24
-1.931208014e-23
-8.94431252e-23
-1.462194615e-22
)


101
(
3.188067654e-22
-4.463230393e-21
-1.01269478e-19
-5.718870226e-19
-1.743515988e-18
-3.699105621e-18
-6.287357043e-18
-9.19545773e-18
-1.202524413e-17
-1.443002603e-17
-1.609842216e-17
-1.681573421e-17
-1.649718257e-17
-1.511327447e-17
-1.271436203e-17
-9.470827882e-18
-5.640563202e-18
-1.440445077e-18
2.6533352e-18
6.359057837e-18
9.556976583e-18
1.181682019e-17
1.316292126e-17
1.380180461e-17
1.374355952e-17
1.310825518e-17
1.210917825e-17
1.089904632e-17
9.60084956e-18
8.312185307e-18
7.093168164e-18
6.006405255e-18
5.011318603e-18
4.142343297e-18
3.446205604e-18
2.869638617e-18
2.399329811e-18
1.997352143e-18
1.648044312e-18
1.357899088e-18
1.128189808e-18
9.455733795e-19
7.978753628e-19
6.812729968e-19
5.839742201e-19
5.003187222e-19
4.270355383e-19
3.617091476e-19
3.061358169e-19
2.600565602e-19
2.220321447e-19
1.902591738e-19
1.634949519e-19
1.40096081e-19
1.19557985e-19
1.020068793e-19
8.738795139e-20
7.481111894e-20
6.378081943e-20
5.465858028e-20
4.6576351e-20
3.956182622e-20
3.357620051e-20
2.828465154e-20
2.374656527e-20
1.988958214e-20
1.671141644e-20
1.408911395e-20
1.185583005e-20
9.898687058e-21
8.197550381e-21
6.761462924e-21
5.544373419e-21
4.540292737e-21
3.710744752e-21
3.010490202e-21
2.414629618e-21
1.91143186e-21
1.511252521e-21
1.194395474e-21
9.245803629e-22
6.997984602e-22
5.242297542e-22
3.916391188e-22
2.9006152e-22
2.083817328e-22
1.48064312e-22
1.048370256e-22
7.082824943e-23
4.715391838e-23
3.104830462e-23
1.965557346e-23
1.187833038e-23
7.195135957e-24
4.382381551e-24
2.7485903e-24
-6.659115152e-24
-4.431155433e-23
-3.403499301e-22
-1.83323329e-21
-3.117974345e-21
)


101
(
3.30804439e-22
-3.887515359e-21
-9.475658797e-20
-5.432701766e-19
-1.673399316e-18
-3.585960652e-18
-6.157403574e-18
-9.109653603e-18
-1.207524927e-17
-1.472750162e-17
-1.675525593e-17
-1.791973038e-17
-1.811014775e-17
-1.72561854e-17
-1.534773116e-17
-1.24953124e-17
-8.901135976e-18
-4.713400173e-18
-4.002486362e-19
3.755554173e-18
7.627261024e-18
1.067025149e-17
1.282147919e-17
1.425236414e-17
1.489895477e-17
1.481321653e-17
1.420329864e-17
1.323393131e-17
1.204559125e-17
1.075733001e-17
9.450606133e-18
8.222905645e-18
7.03140046e-18
5.948316032e-18
5.055287594e-18
4.287699991e-18
3.650945536e-18
3.102088069e-18
2.617635418e-18
2.203915717e-18
1.864124282e-18
1.581636368e-18
1.346065449e-18
1.159474947e-18
1.003864452e-18
8.71782058e-19
7.571801488e-19
6.537486758e-19
5.631792816e-19
4.855023751e-19
4.199686602e-19
3.647851503e-19
3.186592636e-19
2.790538156e-19
2.433513701e-19
2.109806144e-19
1.840020404e-19
1.607335232e-19
1.397397678e-19
1.222961847e-19
1.068266393e-19
9.288075453e-20
8.069995143e-20
6.987951774e-20
6.032132915e-20
5.168135652e-20
4.429380339e-20
3.822303895e-20
3.304967729e-20
2.853360215e-20
2.445865363e-20
2.082686608e-20
1.761196601e-20
1.489804458e-20
1.263242315e-20
1.067924886e-20
8.916288388e-21
7.359997674e-21
6.071127541e-21
5.018101257e-21
4.088671893e-21
3.268877924e-21
2.58362627e-21
2.036620204e-21
1.613654709e-21
1.23961227e-21
9.342540432e-22
7.086094047e-22
5.186823698e-22
3.755629684e-22
2.705043366e-22
1.86312418e-22
1.245887152e-22
8.336710994e-23
5.691410221e-23
4.074480861e-23
-1.135584158e-22
-6.589342939e-22
-3.748459777e-21
-1.201122594e-20
-1.784342239e-20
)


101
(
3.391097117e-22
-3.357832281e-21
-8.857740491e-20
-5.158623952e-19
-1.605890465e-18
-3.476799639e-18
-6.033127825e-18
-9.031865621e-18
-1.213818954e-17
-1.50497292e-17
-1.746006646e-17
-1.911012324e-17
-1.986638006e-17
-1.962099946e-17
-1.830444653e-17
-1.59644842e-17
-1.274206201e-17
-8.70549389e-18
-4.299674169e-18
2.130369046e-19
4.721870562e-18
8.577857891e-18
1.163373559e-17
1.401058951e-17
1.555807742e-17
1.624829222e-17
1.625204267e-17
1.572457954e-17
1.48185359e-17
1.367201871e-17
1.238365333e-17
1.108535494e-17
9.71647326e-18
8.410825052e-18
7.307784999e-18
6.31730984e-18
5.474542984e-18
4.739913914e-18
4.084074746e-18
3.511537994e-18
3.027431417e-18
2.607646871e-18
2.242423606e-18
1.9479551e-18
1.701532735e-18
1.495109211e-18
1.319006954e-18
1.158810723e-18
1.014553702e-18
8.871424251e-19
7.773483608e-19
6.830520776e-19
6.046171058e-19
5.389393772e-19
4.776562768e-19
4.211115999e-19
3.742560604e-19
3.32756977e-19
2.942766068e-19
2.614703426e-19
2.332331851e-19
2.074048004e-19
1.842989924e-19
1.631642443e-19
1.440511112e-19
1.266561598e-19
1.10774765e-19
9.71319965e-20
8.581334073e-20
7.598620006e-20
6.707710434e-20
5.890436191e-20
5.131882325e-20
4.465245104e-20
3.8983868e-20
3.402030331e-20
2.93757322e-20
2.52370181e-20
2.164154139e-20
1.84909663e-20
1.572432763e-20
1.318748408e-20
1.090002557e-20
9.009777206e-21
7.536511923e-21
6.141505761e-21
4.86209742e-21
3.876262615e-21
3.053533939e-21
2.379273753e-21
1.823856236e-21
1.352956524e-21
9.853288447e-22
7.114789596e-22
5.285343046e-22
4.176664518e-22
-1.244856093e-21
-6.400675562e-21
-2.884803676e-20
-8.546393519e-20
-1.24893109e-19
)


101
(
3.442439166e-22
-2.871030799e-21
-8.2714236e-20
-4.895886312e-19
-1.540787573e-18
-3.371231578e-18
-5.913810787e-18
-8.960930004e-18
-1.221234996e-17
-1.539442038e-17
-1.821085828e-17
-2.038685436e-17
-2.17704014e-17
-2.22209229e-17
-2.161160267e-17
-1.992569856e-17
-1.723842269e-17
-1.352936152e-17
-9.206036324e-18
-4.48243242e-18
5.727157092e-19
5.220674324e-18
9.250083638e-18
1.271941734e-17
1.536929465e-17
1.708076384e-17
1.796332835e-17
1.813804926e-17
1.775581179e-17
1.696641891e-17
1.587417236e-17
1.464098928e-17
1.316496553e-17
1.166567255e-17
1.036908448e-17
9.144439734e-18
8.068417328e-18
7.112106299e-18
6.241301493e-18
5.469075301e-18
4.808233421e-18
4.213328813e-18
3.670079573e-18
3.218860151e-18
2.835831756e-18
2.515223158e-18
2.246434558e-18
2.004370007e-18
1.782314076e-18
1.580716935e-18
1.403131735e-18
1.246137463e-18
1.114751721e-18
1.006147219e-18
9.057961337e-19
8.119376888e-19
7.333442272e-19
6.627555312e-19
5.947233565e-19
5.355850795e-19
4.853720866e-19
4.398282036e-19
3.986250295e-19
3.608633193e-19
3.246604464e-19
2.911775348e-19
2.605678535e-19
2.322568684e-19
2.086491819e-19
1.884580617e-19
1.699983504e-19
1.535369789e-19
1.377743163e-19
1.22900032e-19
1.096975117e-19
9.814270615e-20
8.752065379e-20
7.75800847e-20
6.865408423e-20
6.076870155e-20
5.349065348e-20
4.654878979e-20
4.009858577e-20
3.439247558e-20
2.983903923e-20
2.569664101e-20
2.140118312e-20
1.770792264e-20
1.470299734e-20
1.214199584e-20
9.795024261e-21
7.699906526e-21
6.019933311e-21
4.634562168e-21
3.653062415e-21
3.090550743e-21
-9.874658452e-21
-4.520872007e-20
-1.635683517e-19
-3.879678519e-19
-5.225703129e-19
)


101
(
3.466429676e-22
-2.424357906e-21
-7.715192665e-20
-4.643880051e-19
-1.477928431e-18
-3.268922395e-18
-5.798809582e-18
-8.895880441e-18
-1.229631185e-17
-1.575921713e-17
-1.90053743e-17
-2.174960791e-17
-2.382587554e-17
-2.506810711e-17
-2.529628908e-17
-2.442966702e-17
-2.247414337e-17
-1.931104726e-17
-1.529881256e-17
-1.056834677e-17
-5.119537969e-18
2.312458528e-19
5.239603086e-18
9.904481803e-18
1.384524813e-17
1.683465362e-17
1.889351795e-17
2.008375277e-17
2.054040828e-17
2.041386298e-17
1.978839195e-17
1.884311019e-17
1.740368747e-17
1.580603512e-17
1.439239995e-17
1.296509245e-17
1.165532681e-17
1.045152439e-17
9.320223847e-18
8.305092612e-18
7.44117753e-18
6.641145031e-18
5.873152632e-18
5.211545433e-18
4.634135021e-18
4.142905605e-18
3.733874203e-18
3.372695345e-18
3.039431201e-18
2.735404024e-18
2.464321496e-18
2.209310047e-18
1.991964932e-18
1.817410726e-18
1.660269409e-18
1.507282373e-18
1.378479203e-18
1.265039226e-18
1.151316788e-18
1.049665327e-18
9.634684793e-19
8.885963348e-19
8.186226675e-19
7.527519555e-19
6.899474686e-19
6.323364501e-19
5.766149056e-19
5.236926029e-19
4.772443226e-19
4.363021504e-19
4.005006809e-19
3.699146718e-19
3.412809854e-19
3.122847696e-19
2.850848067e-19
2.599999005e-19
2.364884696e-19
2.157431374e-19
1.968160028e-19
1.79106755e-19
1.623665709e-19
1.458962538e-19
1.303816147e-19
1.152358544e-19
1.026279598e-19
9.221884616e-20
8.051012364e-20
6.888658128e-20
5.922016414e-20
5.114957663e-20
4.320472845e-20
3.556720552e-20
2.920567099e-20
2.361633872e-20
1.954807889e-20
1.719592067e-20
-5.769333245e-20
-2.389533135e-19
-7.162726342e-19
-1.572576555e-18
-2.081345417e-18
)


101
(
3.466785763e-22
-2.015372236e-21
-7.187711563e-20
-4.402094269e-19
-1.417178733e-18
-3.169584318e-18
-5.687543294e-18
-8.835825115e-18
-1.238879796e-17
-1.614180883e-17
-1.984124362e-17
-2.319789929e-17
-2.603605835e-17
-2.817416435e-17
-2.938538915e-17
-2.95285459e-17
-2.853894695e-17
-2.618829829e-17
-2.27811804e-17
-1.831695125e-17
-1.269677724e-17
-6.815962753e-18
-9.130015977e-19
4.968826068e-18
1.033844485e-17
1.485080572e-17
1.840862642e-17
2.098116797e-17
2.265984433e-17
2.358348471e-17
2.379863775e-17
2.348542035e-17
2.233302764e-17
2.08234697e-17
1.945633729e-17
1.792772662e-17
1.643689184e-17
1.499222253e-17
1.356969813e-17
1.227425882e-17
1.118903602e-17
1.016795629e-17
9.146290054e-18
8.234927925e-18
7.400769998e-18
6.666127567e-18
6.052620033e-18
5.517429433e-18
5.028304995e-18
4.588841893e-18
4.191032864e-18
3.791006208e-18
3.443212408e-18
3.168307293e-18
2.923736396e-18
2.68560185e-18
2.483926702e-18
2.313537624e-18
2.137921285e-18
1.967157449e-18
1.822996202e-18
1.708511172e-18
1.597669117e-18
1.485306372e-18
1.385635843e-18
1.293564519e-18
1.202624031e-18
1.11161656e-18
1.024442102e-18
9.510546256e-19
8.850405077e-19
8.298911826e-19
7.819741183e-19
7.335050118e-19
6.866193068e-19
6.373497883e-19
5.896051884e-19
5.498854878e-19
5.127606799e-19
4.798288075e-19
4.47595776e-19
4.118989229e-19
3.783018932e-19
3.454773876e-19
3.14888777e-19
2.891112027e-19
2.62706818e-19
2.329260738e-19
2.04604215e-19
1.830875474e-19
1.602835416e-19
1.372760277e-19
1.173951657e-19
9.768355382e-20
8.362736077e-20
7.608136293e-20
-2.561517515e-19
-9.790661984e-19
-2.521799559e-18
-5.59503462e-18
-7.60408504e-18
)


101
(
3.446687002e-22
-1.641875371e-21
-6.687774257e-20
-4.17008785e-19
-1.358423238e-18
-3.072963889e-18
-5.579476753e-18
-8.779931431e-18
-1.248864547e-17
-1.654019057e-17
-2.071574345e-17
-2.473059682e-17
-2.84042496e-17
-3.155106317e-17
-3.390649382e-17
-3.527411056e-17
-3.552188288e-17
-3.430137034e-17
-3.185508566e-17
-2.801507952e-17
-2.255438791e-17
-1.643995933e-17
-9.844044614e-18
-2.826083766e-18
4.017096608e-18
1.024512884e-17
1.562910631e-17
1.999383752e-17
2.333676329e-17
2.576160376e-17
2.728033771e-17
2.809261674e-17
2.762699624e-17
2.652005237e-17
2.549097173e-17
2.406822995e-17
2.253828967e-17
2.092046516e-17
1.921100667e-17
1.761168679e-17
1.630771413e-17
1.508601582e-17
1.380782556e-17
1.262917456e-17
1.149442164e-17
1.045072537e-17
9.550331028e-18
8.765357998e-18
8.067440146e-18
7.441600854e-18
6.872047531e-18
6.282862005e-18
5.748849806e-18
5.317851242e-18
4.944380999e-18
4.586874811e-18
4.282657793e-18
4.039542942e-18
3.789668715e-18
3.532653841e-18
3.299797124e-18
3.119229853e-18
2.949564634e-18
2.772350707e-18
2.630846482e-18
2.500820506e-18
2.363378167e-18
2.215900732e-18
2.074174857e-18
1.95616665e-18
1.841061846e-18
1.74844677e-18
1.672040042e-18
1.597894462e-18
1.53730096e-18
1.462611993e-18
1.37648579e-18
1.297886613e-18
1.231281803e-18
1.182252756e-18
1.1277549e-18
1.064839186e-18
1.000402611e-18
9.326909807e-19
8.716836742e-19
8.176713063e-19
7.617716913e-19
6.972557515e-19
6.256603985e-19
5.727221594e-19
5.153548929e-19
4.533162009e-19
3.997360569e-19
3.406921409e-19
2.983825499e-19
2.788847961e-19
-9.165548267e-19
-3.284081478e-18
-7.467811469e-18
-1.33778213e-17
-1.64235962e-17
)


101
(
3.408869283e-22
-1.301859892e-21
-6.214271713e-20
-3.947471426e-19
-1.301562068e-18
-2.97883545e-18
-5.474108978e-18
-8.727408147e-18
-1.259479325e-17
-1.695256141e-17
-2.162584222e-17
-2.634584895e-17
-3.093361757e-17
-3.521100767e-17
-3.888790306e-17
-4.171851102e-17
-4.351002484e-17
-4.379025797e-17
-4.272391243e-17
-3.996849319e-17
-3.513736071e-17
-2.924457778e-17
-2.231313989e-17
-1.437825801e-17
-6.163187798e-18
1.869430704e-18
9.3721139e-18
1.594252907e-17
2.142224365e-17
2.586616394e-17
2.924845009e-17
3.180924652e-17
3.258684e-17
3.236458534e-17
3.212718857e-17
3.116415082e-17
2.988229874e-17
2.827947062e-17
2.635033715e-17
2.447574584e-17
2.300409126e-17
2.161582595e-17
2.011712275e-17
1.872950449e-17
1.729907052e-17
1.588451487e-17
1.459899061e-17
1.349003934e-17
1.252726104e-17
1.163641441e-17
1.083311117e-17
1.001840413e-17
9.236861623e-18
8.578809288e-18
8.043663957e-18
7.507316526e-18
7.036201276e-18
6.71263688e-18
6.400518411e-18
6.040316789e-18
5.682031917e-18
5.401796663e-18
5.142729713e-18
4.910985045e-18
4.716399823e-18
4.534404504e-18
4.382003352e-18
4.184663171e-18
3.980174339e-18
3.795698223e-18
3.61440704e-18
3.477855701e-18
3.362558867e-18
3.264557165e-18
3.210751638e-18
3.151634006e-18
3.024603666e-18
2.881493425e-18
2.777516601e-18
2.699614664e-18
2.629930088e-18
2.558597321e-18
2.452177002e-18
2.323403316e-18
2.213549944e-18
2.113391577e-18
2.007918225e-18
1.885850632e-18
1.729820644e-18
1.602085698e-18
1.473147528e-18
1.322685817e-18
1.189279045e-18
1.036427125e-18
9.175388891e-19
8.668797021e-19
-2.748874402e-18
-9.356771649e-18
-1.938795626e-17
-3.365752078e-17
-4.124717246e-17
)


101
(
3.355616903e-22
-9.926265572e-22
-5.766165197e-20
-3.733901278e-19
-1.246507046e-18
-2.886996742e-18
-5.370969015e-18
-8.677419034e-18
-1.270614814e-17
-1.737737387e-17
-2.256853535e-17
-2.804114862e-17
-3.362643833e-17
-3.916528162e-17
-4.435766704e-17
-4.89153924e-17
-5.259515216e-17
-5.480575728e-17
-5.559872936e-17
-5.449960509e-17
-5.093607656e-17
-4.590389203e-17
-3.918965054e-17
-3.07358017e-17
-2.144242502e-17
-1.171221174e-17
-1.937601576e-18
7.18200624e-18
1.525734805e-17
2.229850136e-17
2.821800889e-17
3.326796444e-17
3.597980317e-17
3.730941272e-17
3.851220514e-17
3.854364792e-17
3.799816564e-17
3.68104001e-17
3.489522826e-17
3.284144777e-17
3.127448451e-17
2.980896479e-17
2.819014248e-17
2.671628973e-17
2.50717916e-17
2.328774004e-17
2.155154924e-17
2.002716144e-17
1.871461665e-17
1.748335731e-17
1.638018307e-17
1.528644733e-17
1.420430023e-17
1.323783833e-17
1.249282922e-17
1.172172835e-17
1.102131656e-17
1.058568016e-17
1.021210826e-17
9.776579054e-18
9.290337797e-18
8.858447e-18
8.466453767e-18
8.197339328e-18
7.956327077e-18
7.769648957e-18
7.665843099e-18
7.45204047e-18
7.185891299e-18
6.935663906e-18
6.738167382e-18
6.576820079e-18
6.426681919e-18
6.338457606e-18
6.335130344e-18
6.335531488e-18
6.263201834e-18
6.114690355e-18
5.94189079e-18
5.813083255e-18
5.778853557e-18
5.759082336e-18
5.623136368e-18