/*--------------------------------*- C++ -*----------------------------------*\
| =========                 |                                                 |
| \\      /  F ield         | OpenFOAM: The Open Source CFD Toolbox           |
|  \\    /   O peration     | Version:  2.3.1                                 |
|   \\  /    A nd           | Web:      www.OpenFOAM.org                      |
|    \\/     M anipulation  |                                                 |
\*---------------------------------------------------------------------------*/
FoamFile
{
    version     2.0;
    format      ascii;
    class       dictionary;
    location    "constant";
    object      DPSI30;
}
// * * * * * * * * * * * * * * * * * * * * * * * * * * * * * * * * * * * * * //

DPSI30_table
101
(

101
(
1.176943173e-14
5.616299495e-12
1.928665113e-11
3.377826119e-11
4.520900891e-11
5.2927272e-11
5.659115113e-11
5.596172653e-11
5.097874337e-11
4.291374516e-11
3.086881214e-11
1.635403608e-11
-1.013138061e-13
-1.886726038e-11
-3.78978974e-11
-5.608078291e-11
-7.254558086e-11
-8.60008323e-11
-9.512274482e-11
-1.000629124e-10
-1.011775639e-10
-9.931846817e-11
-9.371944762e-11
-8.670205133e-11
-7.895449374e-11
-7.076219855e-11
-6.257553271e-11
-5.482892105e-11
-4.748047716e-11
-4.097633408e-11
-3.524004253e-11
-3.039143735e-11
-2.648213625e-11
-2.181524292e-11
-1.835884035e-11
-1.519792059e-11
-8.509832602e-12
-1.55925397e-12
-5.469413205e-12
-5.389145588e-12
-4.633121299e-12
-4.063613055e-12
-3.488487509e-12
-3.044339018e-12
-2.729523825e-12
-2.419626343e-12
-2.180480165e-12
-1.934959865e-12
-1.735841788e-12
-1.542619271e-12
-1.382803395e-12
-1.23853232e-12
-1.110377756e-12
-9.870248558e-13
-8.723491752e-13
-7.74649402e-13
-6.768409769e-13
-6.028691693e-13
-5.290168309e-13
-4.668739886e-13
-4.071191423e-13
-3.560600973e-13
-3.110344152e-13
-2.689792587e-13
-2.279901202e-13
-1.947540569e-13
-1.651596707e-13
-1.387392934e-13
-1.14984803e-13
-9.486285567e-14
-7.73630955e-14
-6.268464519e-14
-5.008982651e-14
-3.921752427e-14
-2.629464617e-14
-1.863303234e-14
-1.551791164e-14
-1.22216364e-14
-9.360869017e-15
-7.034172019e-15
-5.167775661e-15
-3.646863497e-15
-2.533214951e-15
-1.50304947e-15
-9.437112658e-16
-6.73643996e-16
-4.579277199e-16
-2.927384869e-16
-1.794727096e-16
-9.225418947e-17
-5.612815916e-17
-3.412141908e-17
-1.856313367e-17
-9.16633117e-18
-4.544929928e-18
-1.950083916e-18
-3.496949152e-19
-5.273372286e-19
-8.62348857e-19
-2.064135317e-18
-4.479110206e-18
)


101
(
1.176972674e-14
5.601563385e-12
1.922867977e-11
3.362873298e-11
4.485722473e-11
5.217860496e-11
5.520271016e-11
5.365731025e-11
4.745639268e-11
3.784175136e-11
2.401175995e-11
7.453377305e-12
-1.11857386e-11
-3.21648427e-11
-5.346381127e-11
-7.38313527e-11
-9.229419341e-11
-1.075241079e-10
-1.180855425e-10
-1.241282898e-10
-1.25812575e-10
-1.240416435e-10
-1.183582268e-10
-1.106973572e-10
-1.019695663e-10
-9.261334276e-11
-8.310846493e-11
-7.392731945e-11
-6.514831666e-11
-5.716760651e-11
-5.001091035e-11
-4.380257498e-11
-3.859590967e-11
-3.308399507e-11
-2.849339173e-11
-2.437874381e-11
-1.794910366e-11
-1.081795934e-11
-1.203271377e-11
-1.15881006e-11
-1.04345026e-11
-9.288455672e-12
-8.194392036e-12
-7.25670315e-12
-6.479203913e-12
-5.777348528e-12
-5.179412579e-12
-4.622307519e-12
-4.133153093e-12
-3.682108447e-12
-3.283454037e-12
-2.925613676e-12
-2.608138141e-12
-2.321497318e-12
-2.058675362e-12
-1.822236946e-12
-1.599964875e-12
-1.409427145e-12
-1.235149861e-12
-1.081603838e-12
-9.429437054e-13
-8.205374546e-13
-7.116863343e-13
-6.143705283e-13
-5.258326231e-13
-4.487847744e-13
-3.805911701e-13
-3.20605642e-13
-2.682523062e-13
-2.225746007e-13
-1.829788692e-13
-1.489989585e-13
-1.205358975e-13
-9.636422363e-14
-7.336236239e-14
-5.584985095e-14
-4.378483073e-14
-3.389060761e-14
-2.593026586e-14
-1.95548006e-14
-1.451181574e-14
-1.052414729e-14
-7.514119613e-15
-5.102347718e-15
-3.427355967e-15
-2.314792525e-15
-1.559740328e-15
-1.035033857e-15
-6.609920554e-16
-4.029393094e-16
-2.454801402e-16
-1.453631106e-16
-8.711829354e-17
-4.898160959e-17
-2.754061616e-17
-1.432702261e-17
-4.350268773e-18
-8.549144585e-18
-1.640398597e-17
-4.200052526e-17
-8.092780505e-17
)


101
(
1.177002177e-14
5.568108926e-12
1.908694802e-11
3.326423048e-11
4.404155136e-11
5.052694571e-11
5.224570712e-11
4.887256486e-11
4.028105823e-11
2.765839811e-11
1.039363602e-11
-1.006691304e-11
-3.285677281e-11
-5.801349639e-11
-8.35825173e-11
-1.080827688e-10
-1.30358057e-10
-1.490146952e-10
-1.62431813e-10
-1.707397362e-10
-1.737551662e-10
-1.724067879e-10
-1.667963774e-10
-1.582160677e-10
-1.478583496e-10
-1.364747881e-10
-1.246204213e-10
-1.128224067e-10
-1.013806638e-10
-9.062598454e-11
-8.074064824e-11
-7.189622079e-11
-6.41452038e-11
-5.689641417e-11
-5.023705779e-11
-4.391757972e-11
-3.760114451e-11
-3.023976341e-11
-2.692104658e-11
-2.508505023e-11
-2.299911272e-11
-2.077773873e-11
-1.865062286e-11
-1.670444833e-11
-1.497675526e-11
-1.345280464e-11
-1.210371422e-11
-1.08932097e-11
-9.794712438e-12
-8.796623115e-12
-7.885521179e-12
-7.061642471e-12
-6.32320425e-12
-5.66263301e-12
-5.062752908e-12
-4.517711295e-12
-4.013020167e-12
-3.556401684e-12
-3.145192224e-12
-2.773380738e-12
-2.441389019e-12
-2.14433081e-12
-1.877811131e-12
-1.639770598e-12
-1.425659146e-12
-1.23224145e-12
-1.059756064e-12
-9.058654162e-13
-7.720151826e-13
-6.538923458e-13
-5.493294872e-13
-4.572614889e-13
-3.783436773e-13
-3.107463136e-13
-2.519335815e-13
-2.015987091e-13
-1.597601025e-13
-1.254681574e-13
-9.771822149e-14
-7.545076261e-14
-5.762265587e-14
-4.322572718e-14
-3.196553028e-14
-2.319948171e-14
-1.646735933e-14
-1.14351525e-14
-7.800868936e-15
-5.338126091e-15
-3.589260124e-15
-2.325959526e-15
-1.467998286e-15
-9.156229706e-16
-5.762552785e-16
-3.505173881e-16
-2.115773461e-16
-1.191793703e-16
-4.0121878e-17
-1.088779532e-16
-2.532278314e-16
-8.679756487e-16
-2.055787438e-15
)


101
(
1.17703168e-14
5.534945194e-12
1.894915351e-11
3.2916266e-11
4.327118781e-11
4.897343961e-11
4.946822697e-11
4.438362255e-11
3.354969659e-11
1.810348116e-11
-2.41626943e-12
-2.658679091e-11
-5.337472404e-11
-8.260914798e-11
-1.124034966e-10
-1.411166837e-10
-1.674149915e-10
-1.89829509e-10
-2.065713198e-10
-2.176770414e-10
-2.226818259e-10
-2.224396653e-10
-2.174547858e-10
-2.086242641e-10
-1.972206958e-10
-1.842549799e-10
-1.704134014e-10
-1.562957299e-10
-1.423719277e-10
-1.289881715e-10
-1.16394991e-10
-1.048826927e-10
-9.450558878e-11
-8.520087422e-11
-7.663023115e-11
-6.862440846e-11
-6.057908769e-11
-5.238046413e-11
-4.628339452e-11
-4.215170398e-11
-3.868676706e-11
-3.534812451e-11
-3.214448369e-11
-2.913700316e-11
-2.638448543e-11
-2.392250975e-11
-2.171505013e-11
-1.973971875e-11
-1.793811737e-11
-1.629898411e-11
-1.478499042e-11
-1.339404446e-11
-1.212704177e-11
-1.098297409e-11
-9.941726543e-12
-8.984862033e-12
-8.10826156e-12
-7.297946333e-12
-6.557851379e-12
-5.872493572e-12
-5.250677868e-12
-4.689632731e-12
-4.179733124e-12
-3.719466541e-12
-3.300955072e-12
-2.913074326e-12
-2.559112525e-12
-2.237938886e-12
-1.950949105e-12
-1.695886461e-12
-1.462502609e-12
-1.252462664e-12
-1.065111755e-12
-9.009647133e-13
-7.563543977e-13
-6.291128167e-13
-5.166934341e-13
-4.202779242e-13
-3.383248121e-13
-2.700860834e-13
-2.139045713e-13
-1.668332886e-13
-1.282750126e-13
-9.737755345e-14
-7.25864075e-14
-5.289834347e-14
-3.760553534e-14
-2.646607947e-14
-1.858431242e-14
-1.273942727e-14
-8.386283622e-15
-5.422912233e-15
-3.458525729e-15
-2.19746913e-15
-1.394066756e-15
-8.236403007e-16
-3.368126285e-16
-1.255998394e-15
-3.277017203e-15
-1.274589785e-14
-2.610244779e-14
)


101
(
1.177061293e-14
5.502046082e-12
1.881517813e-11
3.258442913e-11
4.254488184e-11
4.751490172e-11
4.686297709e-11
4.017355045e-11
2.723083325e-11
9.122649469e-12
-1.450370765e-11
-4.223886379e-11
-7.292443677e-11
-1.06202877e-10
-1.40251595e-10
-1.733278081e-10
-2.039361577e-10
-2.305235566e-10
-2.511539075e-10
-2.657030231e-10
-2.734500899e-10
-2.751123043e-10
-2.71474496e-10
-2.631616798e-10
-2.514328901e-10
-2.374741063e-10
-2.221208651e-10
-2.060776862e-10
-1.899541438e-10
-1.741580766e-10
-1.590217836e-10
-1.448098899e-10
-1.317141688e-10
-1.200717056e-10
-1.094072592e-10
-9.989129901e-11
-8.973363585e-11
-8.002778579e-11
-7.173695794e-11
-6.517341253e-11
-5.984784437e-11
-5.508298525e-11
-5.064590866e-11
-4.647491027e-11
-4.257344861e-11
-3.900395428e-11
-3.57623375e-11
-3.285531396e-11
-3.021327587e-11
-2.779600069e-11
-2.554710713e-11
-2.344661077e-11
-2.149930023e-11
-1.972112449e-11
-1.809684289e-11
-1.658439986e-11
-1.518982923e-11
-1.388842693e-11
-1.269090592e-11
-1.156087429e-11
-1.050616722e-11
-9.546792624e-12
-8.657344523e-12
-7.845654952e-12
-7.104834654e-12
-6.410257185e-12
-5.758865699e-12
-5.152314577e-12
-4.589363705e-12
-4.087929673e-12
-3.620352007e-12
-3.188221902e-12
-2.787980726e-12
-2.425713226e-12
-2.098437198e-12
-1.804212467e-12
-1.53904672e-12
-1.30033658e-12
-1.084974795e-12
-8.979055751e-13
-7.378009398e-13
-6.021696277e-13
-4.833860448e-13
-3.841249858e-13
-3.009867714e-13
-2.31894218e-13
-1.740093813e-13
-1.285596957e-13
-9.408571137e-14
-6.831912023e-14
-4.773678395e-14
-3.252722516e-14
-2.197962815e-14
-1.439631251e-14
-9.50915327e-15
-5.833782335e-15
-2.763367099e-15
-1.190555654e-14
-3.371638027e-14
-1.465861406e-13
-3.029853153e-13
)


101
(
1.177090688e-14
5.469384796e-12
1.868489775e-11
3.226831786e-11
4.186145035e-11
4.614834525e-11
4.442340991e-11
3.622772666e-11
2.129743561e-11
6.7050273e-13
-2.593768958e-11
-5.713224338e-11
-9.165089195e-11
-1.289939215e-10
-1.673837954e-10
-2.050194709e-10
-2.402911905e-10
-2.715327435e-10
-2.966675202e-10
-3.153986375e-10
-3.267342358e-10
-3.311970007e-10
-3.297601989e-10
-3.228465805e-10
-3.116171627e-10
-2.973981812e-10
-2.811592442e-10
-2.636979041e-10
-2.457610502e-10
-2.278488717e-10
-2.104073924e-10
-1.936409732e-10
-1.77834665e-10
-1.636572358e-10
-1.506261474e-10
-1.387835956e-10
-1.270715102e-10
-1.155917093e-10
-1.05136247e-10
-9.623369492e-11
-8.875398982e-11
-8.218870044e-11
-7.624598992e-11
-7.072815232e-11
-6.552757675e-11
-6.068223553e-11
-5.620953002e-11
-5.218144275e-11
-4.853254947e-11
-4.518144294e-11
-4.206193513e-11
-3.910896213e-11
-3.63236045e-11
-3.37355051e-11
-3.136674874e-11
-2.914868948e-11
-2.706555225e-11
-2.51070779e-11
-2.327863539e-11
-2.15439551e-11
-1.990512586e-11
-1.838467341e-11
-1.695505473e-11
-1.561758066e-11
-1.438687646e-11
-1.32364535e-11
-1.213880549e-11
-1.109208643e-11
-1.009168644e-11
-9.166680867e-12
-8.310027172e-12
-7.507260777e-12
-6.746365763e-12
-6.029917652e-12
-5.360797166e-12
-4.742887031e-12
-4.180713513e-12
-3.656695164e-12
-3.165123017e-12
-2.71550302e-12
-2.312545685e-12
-1.963982554e-12
-1.647933239e-12
-1.367630746e-12
-1.125592591e-12
-9.138584636e-13
-7.280120655e-13
-5.683430765e-13
-4.403361295e-13
-3.389957722e-13
-2.538372815e-13
-1.840357739e-13
-1.337320893e-13
-9.43638424e-14
-6.635540285e-14
-4.273361387e-14
-2.259387071e-14
-1.181398903e-13
-3.127002524e-13
-1.13112402e-12
-2.178477978e-12
)


101
(
1.177120188e-14
5.436929951e-12
1.855819834e-11
3.196755631e-11
4.121937821e-11
4.486909174e-11
4.213864049e-11
3.252658821e-11
1.572473859e-11
-7.287933768e-12
-3.6769456e-11
-7.133695618e-11
-1.096506566e-10
-1.510995204e-10
-1.939515796e-10
-2.363686525e-10
-2.766714391e-10
-3.130812202e-10
-3.433804306e-10
-3.670961231e-10
-3.829446355e-10
-3.911947753e-10
-3.929234496e-10
-3.883996358e-10
-3.78611897e-10
-3.649915199e-10
-3.486476916e-10
-3.304451098e-10
-3.112431317e-10
-2.916461157e-10
-2.722036213e-10
-2.532126233e-10
-2.348754879e-10
-2.181444733e-10
-2.026786015e-10
-1.884966748e-10
-1.748787501e-10
-1.615427335e-10
-1.489810519e-10
-1.377309285e-10
-1.279221542e-10
-1.192200768e-10
-1.114567594e-10
-1.043483761e-10
-9.767697572e-11
-9.142016023e-11
-8.554691159e-11
-8.017784232e-11
-7.530502213e-11
-7.084009609e-11
-6.670074015e-11
-6.27589898e-11
-5.901044047e-11
-5.547006625e-11
-5.218161691e-11
-4.909876099e-11
-4.619637221e-11
-4.342619958e-11
-4.080079913e-11
-3.828085648e-11
-3.587711038e-11
-3.360899145e-11
-3.14586167e-11
-2.942265752e-11
-2.751213344e-11
-2.572532592e-11
-2.400756231e-11
-2.236011576e-11
-2.075251482e-11
-1.92066951e-11
-1.776130939e-11
-1.638500737e-11
-1.507080519e-11
-1.379949448e-11
-1.257913798e-11
-1.141157085e-11
-1.032767568e-11
-9.306575505e-12
-8.333843968e-12
-7.399708146e-12
-6.51602631e-12
-5.714149572e-12
-4.989839349e-12
-4.307020128e-12
-3.697291503e-12
-3.144165588e-12
-2.640200686e-12
-2.175032249e-12
-1.78211499e-12
-1.44678118e-12
-1.158572862e-12
-8.976252882e-13
-6.988112068e-13
-5.344780279e-13
-4.026253864e-13
-2.886102579e-13
-1.740506934e-13
-8.046663999e-13
-1.953080797e-12
-6.028055224e-12
-1.112415399e-11
)


101
(
1.17714969e-14
5.404652869e-12
1.843495798e-11
3.168177751e-11
4.061709928e-11
4.367162585e-11
3.999410183e-11
2.904257847e-11
1.048434852e-11
-1.479031471e-11
-4.705215901e-11
-8.492903388e-11
-1.270264941e-10
-1.726446179e-10
-2.201064106e-10
-2.67550822e-10
-3.132576303e-10
-3.553627391e-10
-3.91512509e-10
-4.210607692e-10
-4.424194288e-10
-4.555365008e-10
-4.614788766e-10
-4.604456237e-10
-4.531781995e-10
-4.411503111e-10
-4.256334032e-10
-4.075558184e-10
-3.878414971e-10
-3.671802553e-10
-3.46243309e-10
-3.254482535e-10
-3.049460065e-10
-2.858499545e-10
-2.67979197e-10
-2.514706671e-10
-2.357843539e-10
-2.205022051e-10
-2.059007371e-10
-1.923490974e-10
-1.801376227e-10
-1.691259512e-10
-1.592631286e-10
-1.502807596e-10
-1.419230755e-10
-1.341186476e-10
-1.267357995e-10
-1.19876726e-10
-1.136109588e-10
-1.07863955e-10
-1.025118812e-10
-9.745798299e-11
-9.265546904e-11
-8.802901225e-11
-8.368378887e-11
-7.96237859e-11
-7.577577141e-11
-7.207011693e-11
-6.854956731e-11
-6.513342735e-11
-6.182418516e-11
-5.865914102e-11
-5.559341764e-11
-5.268723948e-11
-4.992669909e-11
-4.734585793e-11
-4.488317073e-11
-4.248845267e-11
-4.012020723e-11
-3.775182005e-11
-3.549178011e-11
-3.330405317e-11
-3.124568404e-11
-2.923623684e-11
-2.72398964e-11
-2.527471333e-11
-2.338688353e-11
-2.158584875e-11
-1.985457919e-11
-1.813965357e-11
-1.647321578e-11
-1.487093571e-11
-1.341551192e-11
-1.199199292e-11
-1.066529552e-11
-9.401726633e-12
-8.257234526e-12
-7.12833706e-12
-6.12223535e-12
-5.218106906e-12
-4.396577931e-12
-3.62548881e-12
-2.995552835e-12
-2.45223469e-12
-1.968581878e-12
-1.552685832e-12
-1.057188097e-12
-3.945931984e-12
-8.749891137e-12
-2.318015286e-11
-4.216711713e-11
)


101
(
1.177179412e-14
5.372527876e-12
1.831505459e-11
3.141046224e-11
4.005337267e-11
4.25528366e-11
3.798139457e-11
2.575701145e-11
5.553710429e-12
-2.186580816e-11
-5.682324526e-11
-9.796526651e-11
-1.438520815e-10
-1.937226996e-10
-2.459569891e-10
-2.986931154e-10
-3.501898884e-10
-3.985266431e-10
-4.4122924e-10
-4.774946944e-10
-5.054286312e-10
-5.245986981e-10
-5.359071376e-10
-5.396068554e-10
-5.361349071e-10
-5.269047084e-10
-5.133217595e-10
-4.963938083e-10
-4.77088523e-10
-4.561480954e-10
-4.34358961e-10
-4.122998397e-10
-3.90146731e-10
-3.690902533e-10
-3.489787772e-10
-3.302166042e-10
-3.124794413e-10
-2.953069069e-10
-2.788224274e-10
-2.631428467e-10
-2.485626572e-10
-2.351310659e-10
-2.229827199e-10
-2.119033972e-10
-2.016664598e-10
-1.921891233e-10
-1.832355908e-10
-1.748679002e-10
-1.671137648e-10
-1.599533598e-10
-1.532883903e-10
-1.470908774e-10
-1.412054827e-10
-1.354897482e-10
-1.300475259e-10
-1.248928913e-10
-1.200429893e-10
-1.15304149e-10
-1.108450924e-10
-1.065371826e-10
-1.022933868e-10
-9.820483164e-11
-9.417101927e-11
-9.029023459e-11
-8.656246512e-11
-8.303514272e-11
-7.972175278e-11
-7.647263102e-11
-7.325818418e-11
-7.000719735e-11
-6.681564165e-11
-6.368648674e-11
-6.065902467e-11
-5.772491444e-11
-5.480045492e-11
-5.18720579e-11
-4.892486957e-11
-4.605381769e-11
-4.329883373e-11
-4.050292754e-11
-3.768594209e-11
-3.494176885e-11
-3.232281109e-11
-2.980390722e-11
-2.726918468e-11
-2.477507151e-11
-2.252342975e-11
-2.021983485e-11
-1.803792946e-11
-1.599931569e-11
-1.404243004e-11
-1.219268332e-11
-1.055009897e-11
-9.098898914e-12
-7.695381307e-12
-6.418141155e-12
-4.893719489e-12
-1.481175267e-11
-2.999570314e-11
-6.799160276e-11
-1.211584552e-10
)


101
(
1.177208913e-14
5.340518942e-12
1.819832848e-11
3.115281594e-11
3.952619568e-11
4.150972654e-11
3.609711713e-11
2.26637572e-11
9.112311738e-13
-2.854837043e-11
-6.611745674e-11
-1.104804536e-10
-1.601650156e-10
-2.143755449e-10
-2.71552874e-10
-3.298536697e-10
-3.875305587e-10
-4.426412542e-10
-4.926074979e-10
-5.36495917e-10
-5.721232868e-10
-5.986603075e-10
-6.166940086e-10
-6.265114116e-10
-6.283225699e-10
-6.233483016e-10
-6.130182702e-10
-5.984258479e-10
-5.806032173e-10
-5.6034162e-10
-5.384992899e-10
-5.158006626e-10
-4.925586741e-10
-4.701360141e-10
-4.481882868e-10
-4.274343986e-10
-4.078754552e-10
-3.890650425e-10
-3.709329311e-10
-3.534057772e-10
-3.366635266e-10
-3.208213742e-10
-3.06374071e-10
-2.931496402e-10
-2.809807324e-10
-2.698216372e-10
-2.593012522e-10
-2.49425042e-10
-2.401281426e-10
-2.315258305e-10
-2.235781493e-10
-2.162832207e-10
-2.094144899e-10
-2.027893378e-10
-1.962647868e-10
-1.900644071e-10
-1.843099915e-10
-1.786549981e-10
-1.733352726e-10
-1.682546594e-10
-1.6319908e-10
-1.582552404e-10
-1.534194964e-10
-1.486536296e-10
-1.439691122e-10
-1.394091269e-10
-1.352277346e-10
-1.311801507e-10
-1.272558711e-10
-1.232616922e-10
-1.192126517e-10
-1.151458501e-10
-1.111395207e-10
-1.072417066e-10
-1.03389892e-10
-9.943295393e-11
-9.535728324e-11
-9.131153352e-11
-8.73318283e-11
-8.328903105e-11
-7.907938855e-11
-7.492304263e-11
-7.075188603e-11
-6.678157042e-11
-6.263000094e-11
-5.830360298e-11
-5.430467157e-11
-5.024789538e-11
-4.617964057e-11
-4.232582019e-11
-3.836065831e-11
-3.458793224e-11
-3.105921033e-11
-2.782038039e-11
-2.460768178e-11
-2.140113961e-11
-1.747266614e-11
-4.471814921e-11
-8.329988404e-11
-1.625332006e-10
-2.57598406e-10
)


101
(
1.17723661e-14
5.308594459e-12
1.808463691e-11
3.090826939e-11
3.903387134e-11
4.053940255e-11
3.433802119e-11
1.975858012e-11
-3.462741933e-12
-3.487505494e-11
-7.496985456e-11
-1.225067219e-10
-1.759935845e-10
-2.346295362e-10
-2.969234715e-10
-3.610663761e-10
-4.253078221e-10
-4.877272366e-10
-5.456738715e-10
-5.981094424e-10
-6.425834463e-10
-6.779034532e-10
-7.042611409e-10
-7.217285538e-10
-7.305103715e-10
-7.314843362e-10
-7.259394196e-10
-7.150651e-10
-7.000086716e-10
-6.81618852e-10
-6.607836197e-10
-6.383008174e-10
-6.146547911e-10
-5.916292169e-10
-5.685521599e-10
-5.463167281e-10
-5.252803977e-10
-5.051402121e-10
-4.856780279e-10
-4.667148809e-10
-4.482877709e-10
-4.304091261e-10
-4.138681925e-10
-3.986661558e-10
-3.846979052e-10
-3.71984009e-10
-3.600100421e-10
-3.486995137e-10
-3.37983789e-10
-3.280868422e-10
-3.189610894e-10
-3.106512145e-10
-3.029939302e-10
-2.956781424e-10
-2.883691767e-10
-2.815969543e-10
-2.751272101e-10
-2.688865964e-10
-2.629032596e-10
-2.573664086e-10
-2.519175027e-10
-2.464752976e-10
-2.411498495e-10
-2.358123372e-10
-2.305626593e-10
-2.253276387e-10
-2.203793202e-10
-2.158189552e-10
-2.115059723e-10
-2.071383354e-10
-2.026590773e-10
-1.980047385e-10
-1.933472721e-10
-1.887283096e-10
-1.841514675e-10
-1.79398667e-10
-1.744972453e-10
-1.695496149e-10
-1.643403456e-10
-1.591108088e-10
-1.536549786e-10
-1.479902939e-10
-1.421971742e-10
-1.365311598e-10
-1.305575101e-10
-1.239695948e-10
-1.175689149e-10
-1.113079236e-10
-1.047839596e-10
-9.820472606e-11
-9.129675906e-11
-8.466858651e-11
-7.813669729e-11
-7.192755452e-11
-6.579308941e-11
-5.934209627e-11
-5.14124908e-11
-1.111556747e-10
-1.916629361e-10
-3.344603654e-10
-4.998223483e-10
)


101
(
1.177261296e-14
5.276729019e-12
1.797384425e-11
3.067649041e-11
3.857571507e-11
3.964067361e-11
3.270238944e-11
1.703685305e-11
-7.583091555e-12
-4.086925132e-11
-8.340125006e-11
-1.340695119e-10
-1.913635978e-10
-2.54508839e-10
-3.220953891e-10
-3.923611636e-10
-4.635576715e-10
-5.338130371e-10
-6.004645639e-10
-6.623981736e-10
-7.168646185e-10
-7.623880388e-10
-7.987319892e-10
-8.254910657e-10
-8.429602947e-10
-8.516909724e-10
-8.5274456e-10
-8.473190185e-10
-8.366778523e-10
-8.216990295e-10
-8.032944685e-10
-7.823167774e-10
-7.593689041e-10
-7.367273763e-10
-7.134605978e-10
-6.905136608e-10
-6.685053605e-10
-6.473882443e-10
-6.270308473e-10
-6.073010989e-10
-5.879226178e-10
-5.686910558e-10
-5.505062939e-10
-5.336632468e-10
-5.181423253e-10
-5.040961934e-10
-4.910007643e-10
-4.786710829e-10
-4.669465899e-10
-4.561280318e-10
-4.461291378e-10
-4.370909118e-10
-4.289765423e-10
-4.214004568e-10
-4.140402265e-10
-4.071680266e-10
-4.005621032e-10
-3.941528187e-10
-3.880517211e-10
-3.825485512e-10
-3.773756087e-10
-3.722014321e-10
-3.671071237e-10
-3.619335327e-10
-3.567790926e-10
-3.518013728e-10
-3.46768738e-10
-3.422000141e-10
-3.380955288e-10
-3.340281104e-10
-3.299838027e-10
-3.257027786e-10
-3.210640574e-10
-3.163235005e-10
-3.115896653e-10
-3.068261233e-10
-3.018216264e-10
-2.965315179e-10
-2.908696018e-10
-2.848887943e-10
-2.785059075e-10
-2.716839415e-10
-2.645494207e-10
-2.571377582e-10
-2.495449713e-10
-2.408959493e-10
-2.315800237e-10
-2.226190282e-10
-2.132176111e-10
-2.03166597e-10
-1.925206642e-10
-1.821982992e-10
-1.716360462e-10
-1.610472342e-10
-1.507551726e-10
-1.397133258e-10
-1.265170188e-10
-2.391883455e-10
-3.83441372e-10
-6.071542903e-10
-8.598050491e-10
)


101
(
1.177287353e-14
5.244885336e-12
1.78657765e-11
3.045711038e-11
3.81509972e-11
3.881256728e-11
3.119103461e-11
1.449838113e-11
-1.147037888e-11
-4.656076252e-11
-9.142379139e-11
-1.451852238e-10
-2.062907749e-10
-2.740133854e-10
-3.470595526e-10
-4.237291703e-10
-5.023088443e-10
-5.809683889e-10
-6.570620538e-10
-7.294461185e-10
-7.949760713e-10
-8.52017225e-10
-8.99931481e-10
-9.377587216e-10
-9.657414978e-10
-9.841712682e-10
-9.939175801e-10
-9.960547668e-10
-9.91897568e-10
-9.822741455e-10
-9.681085016e-10
-9.503516253e-10
-9.297034229e-10
-9.088116462e-10
-8.865499464e-10
-8.63910086e-10
-8.416885557e-10
-8.20166101e-10
-7.995294485e-10
-7.798849149e-10
-7.605412486e-10
-7.409451033e-10
-7.219354177e-10
-7.040164171e-10
-6.873390607e-10
-6.723209067e-10
-6.586126474e-10
-6.459541429e-10
-6.33973154e-10
-6.230047877e-10
-6.12722634e-10
-6.034934868e-10
-5.955939383e-10
-5.885176789e-10
-5.819219263e-10
-5.755682698e-10
-5.699611689e-10
-5.643046408e-10
-5.591735207e-10
-5.545410987e-10
-5.506722348e-10
-5.46826131e-10
-5.430850369e-10
-5.393528181e-10
-5.356554529e-10
-5.320662456e-10
-5.282924244e-10
-5.248607821e-10
-5.218046377e-10
-5.192335653e-10
-5.168285027e-10
-5.143922671e-10
-5.112049322e-10
-5.075887396e-10
-5.037184668e-10
-4.998116461e-10
-4.958033637e-10
-4.914882742e-10
-4.864033461e-10
-4.807084504e-10
-4.740937224e-10
-4.66938339e-10
-4.589197536e-10
-4.500312449e-10
-4.411373527e-10
-4.310235094e-10
-4.187717076e-10
-4.065410766e-10
-3.938022899e-10
-3.801678604e-10
-3.650012914e-10
-3.50096995e-10
-3.344045159e-10
-3.185433702e-10
-3.026442185e-10
-2.858936301e-10
-2.665840881e-10
-4.526395914e-10
-6.790651852e-10
-9.878565907e-10
-1.324342145e-09
)


101
(
1.177317295e-14
5.213030764e-12
1.776031368e-11
3.024985712e-11
3.775918562e-11
3.805393685e-11
2.980373451e-11
1.214363293e-11
-1.513929883e-11
-5.197966803e-11
-9.905057167e-11
-1.558669746e-10
-2.207880484e-10
-2.931387094e-10
-3.717978108e-10
-4.551447405e-10
-5.415587173e-10
-6.292430615e-10
-7.155320252e-10
-7.993534467e-10
-8.769828863e-10
-9.467721857e-10
-1.007775704e-09
-1.058569406e-09
-1.099182418e-09
-1.129546036e-09
-1.150299794e-09
-1.162312015e-09
-1.166915347e-09
-1.1648974e-09
-1.1571787e-09
-1.144732168e-09
-1.12829817e-09
-1.110912935e-09
-1.091226937e-09
-1.07029955e-09
-1.049052963e-09
-1.02811832e-09
-1.008162396e-09
-9.895626818e-10
-9.714521571e-10
-9.528550686e-10
-9.343690339e-10
-9.16404214e-10
-8.993331779e-10
-8.839961425e-10
-8.703091987e-10
-8.580821091e-10
-8.468424668e-10
-8.367227942e-10
-8.271577146e-10
-8.187163439e-10
-8.120696407e-10
-8.065540182e-10
-8.0188035e-10
-7.976072522e-10
-7.943535236e-10
-7.911700956e-10
-7.88276131e-10
-7.859409168e-10
-7.848221397e-10
-7.839552056e-10
-7.830278166e-10
-7.824942029e-10
-7.823156367e-10
-7.817077544e-10
-7.811700274e-10
-7.804438244e-10
-7.80296042e-10
-7.808081864e-10
-7.815290784e-10
-7.825927185e-10
-7.829593035e-10
-7.825394538e-10
-7.812331388e-10
-7.792596941e-10
-7.775855891e-10
-7.755288753e-10
-7.724018457e-10
-7.684151651e-10
-7.625318501e-10
-7.556531882e-10
-7.475886247e-10
-7.37894394e-10
-7.271642412e-10
-7.156383496e-10
-7.013327612e-10
-6.850981831e-10
-6.684519249e-10
-6.510358398e-10
-6.302602604e-10
-6.10109241e-10
-5.872769976e-10
-5.651755684e-10
-5.42413999e-10
-5.190114934e-10
-4.916242958e-10
-7.612009857e-10
-1.074824417e-09
-1.463599071e-09
-1.903935753e-09
)


101
(
1.177347231e-14
5.18112898e-12
1.765733453e-11
3.005442635e-11
3.739997704e-11
3.736424224e-11
2.853824295e-11
9.971176782e-12
-1.859451314e-11
-5.714446395e-11
-1.063153997e-10
-1.661199028e-10
-2.348675294e-10
-3.119047373e-10
-3.963314541e-10
-4.866208605e-10
-5.812712618e-10
-6.785593265e-10
-7.757494306e-10
-8.718628938e-10
-9.626794427e-10
-1.046552431e-09
-1.122345765e-09
-1.188091502e-09
-1.243609807e-09
-1.288436089e-09
-1.322779655e-09
-1.347175058e-09
-1.362968164e-09
-1.371037303e-09
-1.37239041e-09
-1.367830609e-09
-1.357851446e-09
-1.346098467e-09
-1.330980962e-09
-1.31366835e-09
-1.295119747e-09
-1.276239435e-09
-1.258270385e-09
-1.241900422e-09
-1.226462894e-09
-1.210488113e-09
-1.194280504e-09
-1.177942329e-09
-1.161919287e-09
-1.147414196e-09
-1.134671019e-09
-1.123926886e-09
-1.114547737e-09
-1.106436399e-09
-1.09920362e-09
-1.093165388e-09
-1.089041704e-09
-1.086594778e-09
-1.085575387e-09
-1.085416365e-09
-1.086360427e-09
-1.087839014e-09
-1.089221494e-09
-1.091180344e-09
-1.094313927e-09
-1.098599096e-09
-1.10286519e-09
-1.108023868e-09
-1.113577007e-09
-1.118503926e-09
-1.123480348e-09
-1.128015744e-09
-1.133394931e-09
-1.138877974e-09
-1.144632678e-09
-1.151017395e-09
-1.156929378e-09
-1.162273238e-09
-1.166059374e-09
-1.167707528e-09
-1.169101085e-09
-1.169850439e-09
-1.170433121e-09
-1.169036688e-09
-1.164960531e-09
-1.15886864e-09
-1.150627544e-09
-1.140542954e-09
-1.128004382e-09
-1.113666062e-09
-1.096797751e-09
-1.075982419e-09
-1.053459418e-09
-1.030696816e-09
-1.00260417e-09
-9.7537039e-10
-9.439537119e-10
-9.130227749e-10
-8.82078631e-10
-8.496910997e-10
-8.111240991e-10
-1.165344928e-09
-1.559209516e-09
-2.015874398e-09
-2.47351149e-09
)


101
(
1.177375854e-14
5.149137844e-12
1.755669503e-11
2.987054042e-11
3.70728984e-11
3.674282913e-11
2.739243743e-11
7.980377741e-12
-2.183903061e-11
-6.207033913e-11
-1.132614685e-10
-1.75942638e-10
-2.485297577e-10
-3.303345593e-10
-4.206922257e-10
-5.181917203e-10
-6.214116927e-10
-7.287667447e-10
-8.374709079e-10
-9.464676296e-10
-1.051613474e-09
-1.151043302e-09
-1.243598978e-09
-1.326426989e-09
-1.399229355e-09
-1.461276282e-09
-1.512060524e-09
-1.55166072e-09
-1.581447634e-09
-1.602419263e-09
-1.61569035e-09
-1.621911057e-09
-1.621147328e-09
-1.617617842e-09
-1.609558577e-09
-1.598333771e-09
-1.584821397e-09
-1.569984917e-09
-1.555664062e-09
-1.543089526e-09
-1.531821385e-09
-1.520235598e-09
-1.508490664e-09
-1.496053615e-09
-1.483124262e-09
-1.471211694e-09
-1.461026951e-09
-1.453417342e-09
-1.447328224e-09
-1.442918178e-09
-1.440095e-09
-1.438636621e-09
-1.438824952e-09
-1.441505792e-09
-1.446098698e-09
-1.451885123e-09
-1.459624249e-09
-1.468434636e-09
-1.477109696e-09
-1.485946639e-09
-1.495910701e-09
-1.507748223e-09
-1.520474574e-09
-1.534431907e-09
-1.548063921e-09
-1.562308753e-09
-1.575722869e-09
-1.588549988e-09
-1.601651976e-09
-1.614507093e-09
-1.627965437e-09
-1.641543599e-09
-1.654970805e-09
-1.668047134e-09
-1.679335521e-09
-1.687115861e-09
-1.691713104e-09
-1.69621406e-09
-1.69995241e-09
-1.701480554e-09
-1.700314913e-09
-1.694942364e-09
-1.684851882e-09
-1.673159674e-09
-1.657775175e-09
-1.638875535e-09
-1.616283111e-09
-1.589398176e-09
-1.557374373e-09
-1.525420561e-09
-1.487779907e-09
-1.448751064e-09
-1.406943722e-09
-1.363112334e-09
-1.320607023e-09
-1.276190882e-09
-1.224785993e-09
-1.655600379e-09
-2.116514409e-09
-2.63970118e-09
-3.141457928e-09
)


101
(
1.177405354e-14
5.117039802e-12
1.745710768e-11
2.96980669e-11
3.677752237e-11
3.618831798e-11
2.63640932e-11
6.170841156e-12
-2.486462017e-11
-6.675941396e-11
-1.199221799e-10
-1.853474567e-10
-2.617727143e-10
-3.484328844e-10
-4.448784099e-10
-5.498548855e-10
-6.619563213e-10
-7.797878182e-10
-9.006060791e-10
-1.022962021e-09
-1.143586294e-09
-1.260065397e-09
-1.371351785e-09
-1.473484494e-09
-1.565952009e-09
-1.648012366e-09
-1.718361642e-09
-1.776455706e-09
-1.823622786e-09
-1.860853453e-09
-1.889126952e-09
-1.909131191e-09
-1.920807845e-09
-1.928605762e-09
-1.930651228e-09
-1.928625229e-09
-1.923222744e-09
-1.915128602e-09
-1.906543724e-09
-1.899513357e-09
-1.894081155e-09
-1.888935807e-09
-1.884053068e-09
-1.878224128e-09
-1.87110092e-09
-1.864325352e-09
-1.859026993e-09
-1.856605918e-09
-1.856081537e-09
-1.857824275e-09
-1.861744341e-09
-1.867507387e-09
-1.874806263e-09
-1.8850902e-09
-1.897962125e-09
-1.912305703e-09
-1.929687302e-09
-1.948697974e-09
-1.96837557e-09
-1.98779454e-09
-2.008243908e-09
-2.030511367e-09
-2.055173436e-09
-2.081143348e-09
-2.106555692e-09
-2.13366597e-09
-2.158924439e-09
-2.183259783e-09
-2.206875019e-09
-2.230698468e-09
-2.2544051e-09
-2.276925862e-09
-2.299533032e-09
-2.321272486e-09
-2.340938797e-09
-2.357061616e-09
-2.367740449e-09
-2.375039299e-09
-2.380074073e-09
-2.383656499e-09
-2.384624015e-09
-2.378013047e-09
-2.364961296e-09
-2.347973978e-09
-2.32607421e-09
-2.299280626e-09
-2.265888798e-09
-2.22854942e-09
-2.182462123e-09
-2.135431841e-09
-2.084451696e-09
-2.027108115e-09
-1.969119386e-09
-1.907688199e-09
-1.847003976e-09
-1.786170882e-09
-1.717615857e-09
-2.217008097e-09
-2.738596115e-09
-3.353000346e-09
-3.994746796e-09
)


101
(
1.177435731e-14
5.084808223e-12
1.735962334e-11
2.953677015e-11
3.651336276e-11
3.569932552e-11
2.545089435e-11
4.541155788e-12
-2.764652369e-11
-7.117598532e-11