/*--------------------------------*- C++ -*----------------------------------*\
| =========                 |                                                 |
| \\      /  F ield         | OpenFOAM: The Open Source CFD Toolbox           |
|  \\    /   O peration     | Version:  2.3.1                                 |
|   \\  /    A nd           | Web:      www.OpenFOAM.org                      |
|    \\/     M anipulation  |                                                 |
\*---------------------------------------------------------------------------*/
FoamFile
{
    version     2.0;
    format      ascii;
    class       dictionary;
    location    "constant";
    object      DPSI8;
}
// * * * * * * * * * * * * * * * * * * * * * * * * * * * * * * * * * * * * * //

DPSI8_table
101
(

101
(
-1.840425105e-09
-2.176429371e-09
-2.520167498e-09
-2.407201235e-09
-2.113947926e-09
-1.76802498e-09
-1.401302199e-09
-1.036942656e-09
-7.031039298e-10
-4.078969179e-10
-1.624395397e-10
2.649195588e-11
1.579881915e-10
2.354205379e-10
2.655673814e-10
2.638403531e-10
2.447216494e-10
2.229186461e-10
2.076791389e-10
2.026315261e-10
2.071369287e-10
2.173441175e-10
2.278592136e-10
2.329234623e-10
2.300536958e-10
2.185859032e-10
1.998410032e-10
1.756303618e-10
1.482991201e-10
1.202772938e-10
9.346688653e-11
7.012352561e-11
4.750013621e-11
2.87431259e-11
1.834173109e-11
2.672504713e-11
4.23760683e-11
-2.647807916e-12
-5.28813797e-11
-5.473325392e-11
-5.441944741e-11
-5.244512672e-11
-4.884969154e-11
-4.417087453e-11
-3.821782337e-11
-3.110757927e-11
-2.292936346e-11
-1.379603413e-11
-3.827731436e-12
6.839607867e-12
1.796230135e-11
2.980643383e-11
4.207524097e-11
5.467293008e-11
6.757353487e-11
8.166894237e-11
9.544670382e-11
1.092768962e-10
1.237534709e-10
1.380474234e-10
1.528886282e-10
1.674616868e-10
1.820897033e-10
1.969520179e-10
2.119354659e-10
2.267766521e-10
2.412561496e-10
2.561305566e-10
2.710552898e-10
2.858099938e-10
3.009694399e-10
3.169513571e-10
3.338452068e-10
3.601167201e-10
3.7609833e-10
3.692299093e-10
3.704512901e-10
3.827930626e-10
3.945051735e-10
4.064888548e-10
4.198777245e-10
4.347629831e-10
4.573795343e-10
4.625725177e-10
4.527054601e-10
4.57600967e-10
4.678197623e-10
4.796587575e-10
5.016337703e-10
5.042277155e-10
4.965827426e-10
5.127403069e-10
5.246367375e-10
5.341899713e-10
5.388892059e-10
5.383711759e-10
2.711095591e-10
-1.081064478e-17
1.465407008e-27
9.212680686e-29
-3.253342755e-27
)


101
(
-1.819784896e-09
-2.153907824e-09
-2.499361952e-09
-2.395164944e-09
-2.110927277e-09
-1.77297382e-09
-1.413998966e-09
-1.056072151e-09
-7.264079907e-10
-4.332775246e-10
-1.87292102e-10
4.748335968e-12
1.412395885e-10
2.248983112e-10
2.615469715e-10
2.648328408e-10
2.487176608e-10
2.27462686e-10
2.108166349e-10
2.035389738e-10
2.060400247e-10
2.150747093e-10
2.260224702e-10
2.333529393e-10
2.336574545e-10
2.256663248e-10
2.100384747e-10
1.88265619e-10
1.62448678e-10
1.349197943e-10
1.076613655e-10
8.277850572e-11
5.925053432e-11
3.859379281e-11
2.460116031e-11
2.488153314e-11
3.568590656e-11
1.436474767e-11
-2.829924873e-11
-4.935278617e-11
-5.550114985e-11
-5.590152489e-11
-5.333211857e-11
-4.914534267e-11
-4.372168775e-11
-3.722586735e-11
-2.972516115e-11
-2.120569949e-11
-1.173813271e-11
-1.429614344e-12
9.520955827e-12
2.113929581e-11
3.329908956e-11
4.592576994e-11
5.903529597e-11
7.295454016e-11
8.726025823e-11
1.016558423e-10
1.164116804e-10
1.313518075e-10
1.465960125e-10
1.619760639e-10
1.773632696e-10
1.928935941e-10
2.08699968e-10
2.245877655e-10
2.402512119e-10
2.559041732e-10
2.71752663e-10
2.87637492e-10
3.035058963e-10
3.196341458e-10
3.36375569e-10
3.57730314e-10
3.793965856e-10
3.902257216e-10
3.943520381e-10
4.00555895e-10
4.10170275e-10
4.223887835e-10
4.360093463e-10
4.503567835e-10
4.687683624e-10
4.856424716e-10
4.906948647e-10
4.905104175e-10
4.954711431e-10
5.056768389e-10
5.206434673e-10
5.361061396e-10
5.409615815e-10
5.434903326e-10
5.561834668e-10
5.686771185e-10
5.728158153e-10
5.649809001e-10
2.682521056e-10
-2.20115475e-11
-2.394215287e-11
-2.586977055e-11
-2.71071015e-11
)


101
(
-1.799146531e-09
-2.131333746e-09
-2.478360141e-09
-2.382770432e-09
-2.107440081e-09
-1.777377271e-09
-1.426046624e-09
-1.074550849e-09
-7.491534431e-10
-4.582515893e-10
-2.119781682e-10
-1.712051367e-11
1.241417161e-10
2.138736573e-10
2.57025802e-10
2.656141926e-10
2.529166211e-10
2.327104631e-10
2.150705737e-10
2.05721523e-10
2.060954086e-10
2.136752053e-10
2.245456216e-10
2.335416579e-10
2.366687204e-10
2.320210069e-10
2.19611788e-10
2.005266037e-10
1.765902473e-10
1.499881028e-10
1.227290835e-10
9.681044842e-11
7.225916294e-11
4.99556397e-11
3.289649305e-11
2.727648658e-11
3.264073365e-11
2.300985148e-11
-8.044605373e-12
-3.587451598e-11
-5.098260362e-11
-5.652878188e-11
-5.641243774e-11
-5.332932173e-11
-4.850423713e-11
-4.251891571e-11
-3.562705428e-11
-2.776795085e-11
-1.890709503e-11
-9.097943128e-12
1.511617804e-12
1.286536325e-11
2.488922073e-11
3.747149453e-11
5.057817746e-11
6.434131482e-11
7.872843174e-11
9.347401996e-11
1.085315864e-10
1.238846631e-10
1.395288799e-10
1.554111008e-10
1.714615492e-10
1.877218532e-10
2.042171319e-10
2.20831398e-10
2.374087501e-10
2.5397878e-10
2.706538702e-10
2.874607818e-10
3.042347596e-10
3.210073779e-10
3.378804607e-10
3.56742833e-10
3.781545012e-10
3.971248119e-10
4.099776337e-10
4.182205172e-10
4.257402203e-10
4.361078879e-10
4.496233533e-10
4.64280546e-10
4.803147085e-10
4.983916805e-10
5.138601649e-10
5.210568418e-10
5.237311107e-10
5.307703993e-10
5.435157218e-10
5.582252695e-10
5.720541781e-10
5.788631721e-10
5.856745865e-10
6.012707755e-10
6.015131374e-10
5.750306794e-10
2.636526112e-10
-3.223855572e-11
-3.325807907e-11
-3.422185765e-11
-3.562129008e-11
)


101
(
-1.778510552e-09
-2.108707912e-09
-2.457163515e-09
-2.37001931e-09
-2.103487864e-09
-1.781237209e-09
-1.437448873e-09
-1.092376432e-09
-7.71334056e-10
-4.828092677e-10
-2.364848643e-10
-3.91037177e-11
1.066863171e-10
2.023184449e-10
2.519413611e-10
2.660725978e-10
2.571838644e-10
2.385149024e-10
2.203186309e-10
2.091205075e-10
2.07317281e-10
2.132011296e-10
2.235401977e-10
2.336177899e-10
2.391397902e-10
2.376249278e-10
2.284478852e-10
2.12234617e-10
1.904922419e-10
1.652099219e-10
1.383843305e-10
1.119311823e-10
8.650131846e-11
6.280077408e-11
4.279035189e-11
3.26007194e-11
3.302933641e-11
2.793591485e-11
7.049440885e-12
-1.99012408e-11
-4.111478457e-11
-5.298083043e-11
-5.710124343e-11
-5.628867969e-11
-5.251318157e-11
-4.709800773e-11
-4.072524162e-11
-3.349119605e-11
-2.530168637e-11
-1.610733317e-11
-5.997097586e-12
4.971586627e-12
1.67036494e-11
2.911378286e-11
4.216206831e-11
5.579519559e-11
7.006458917e-11
8.490470849e-11
1.001489919e-10
1.157608187e-10
1.317237082e-10
1.479859812e-10
1.644998274e-10
1.81278229e-10
1.983146098e-10
2.155463824e-10
2.328343218e-10
2.501990231e-10
2.677091802e-10
2.853344684e-10
3.029933938e-10
3.206365565e-10
3.381474768e-10
3.561895214e-10
3.760974257e-10
3.970361261e-10
4.159416129e-10
4.301126633e-10
4.397632403e-10
4.488313286e-10
4.609194843e-10
4.757652861e-10
4.916575497e-10
5.086474508e-10
5.266540622e-10
5.418996386e-10
5.494656989e-10
5.542053814e-10
5.642804887e-10
5.78598939e-10
5.942433124e-10
6.078326258e-10
6.162240711e-10
6.291061372e-10
6.237753178e-10
5.773068336e-10
2.557955139e-10
-3.675351542e-11
-3.853563084e-11
-4.000196186e-11
-4.12380759e-11
)


101
(
-1.757877519e-09
-2.086031108e-09
-2.435773526e-09
-2.356913184e-09
-2.09907211e-09
-1.784555413e-09
-1.448209163e-09
-1.109546481e-09
-7.929427699e-10
-5.069391074e-10
-2.607967107e-10
-6.11857569e-11
8.887291115e-11
1.90212451e-10
2.462425527e-10
2.661081916e-10
2.613913447e-10
2.44738006e-10
2.264421677e-10
2.136707581e-10
2.097135705e-10
2.137177958e-10
2.231295768e-10
2.337387032e-10
2.411794361e-10
2.425036488e-10
2.364905053e-10
2.232697371e-10
2.039807773e-10
1.803594248e-10
1.543606536e-10
1.278356183e-10
1.01811213e-10
7.708158686e-11
5.514743247e-11
4.048846511e-11
3.564393325e-11
3.179484543e-11
1.802835736e-11
-4.719172923e-12
-2.798971872e-11
-4.515520144e-11
-5.443523764e-11
-5.721039287e-11
-5.541252536e-11
-5.095764759e-11
-4.515571362e-11
-3.849104636e-11
-3.095550829e-11
-2.243219412e-11
-1.293633321e-11
-2.479446176e-12
8.843082207e-12
2.093853985e-11
3.374337969e-11
4.723189651e-11
6.136827132e-11
7.611597154e-11
9.136957791e-11
1.070723291e-10
1.232355584e-10
1.397673518e-10
1.566219864e-10
1.737904836e-10
1.912121838e-10
2.088935998e-10
2.26788067e-10
2.448155971e-10
2.630013288e-10
2.812786791e-10
2.996589545e-10
3.181453919e-10
3.365468291e-10
3.549094643e-10
3.740194224e-10
3.945141231e-10
4.156721594e-10
4.348604515e-10
4.492773654e-10
4.597797103e-10
4.705506428e-10
4.845379474e-10
5.008635545e-10
5.178788481e-10
5.35661055e-10
5.538459416e-10
5.681582668e-10
5.758768321e-10
5.836827619e-10
5.968784288e-10
6.126909796e-10
6.289558598e-10
6.413071954e-10
6.542734762e-10
6.425558401e-10
5.793775879e-10
2.485120575e-10
-4.236349368e-11
-4.762146725e-11
-5.286901803e-11
-5.489488374e-11
)


101
(
-1.737247997e-09
-2.063304124e-09
-2.414191629e-09
-2.343453657e-09
-2.094194272e-09
-1.787333574e-09
-1.458330561e-09
-1.126058167e-09
-8.139712365e-10
-5.306273522e-10
-2.84893691e-10
-8.334493161e-11
7.071103136e-11
1.775479775e-10
2.398921278e-10
2.656383051e-10
2.654254613e-10
2.512491234e-10
2.333245491e-10
2.193060915e-10
2.13287508e-10
2.152878798e-10
2.234357657e-10
2.340659098e-10
2.429253305e-10
2.467312722e-10
2.437289985e-10
2.335454638e-10
2.169131203e-10
1.952814542e-10
1.704485794e-10
1.442361178e-10
1.179501509e-10
9.246176104e-11
6.896967374e-11
5.083681644e-11
4.115618862e-11
3.594532859e-11
2.633204256e-11
8.515475483e-12
-1.373153257e-11
-3.398899012e-11
-4.812234409e-11
-5.536016479e-11
-5.663680761e-11
-5.387248235e-11
-4.889616372e-11
-4.277703472e-11
-3.58535392e-11
-2.804191393e-11
-1.92588304e-11
-9.432607964e-12
1.367719002e-12
1.304527267e-11
2.549459646e-11
3.869858582e-11
5.260728067e-11
6.72001796e-11
8.236051047e-11
9.798731842e-11
1.141932533e-10
1.308629898e-10
1.479193985e-10
1.653814914e-10
1.831236192e-10
2.011329486e-10
2.194276879e-10
2.379355873e-10
2.567289728e-10
2.756337093e-10
2.945723435e-10
3.136648478e-10
3.328154898e-10
3.518996124e-10
3.711511043e-10
3.912302221e-10
4.125208832e-10
4.339696659e-10
4.528627411e-10
4.672020104e-10
4.786587655e-10
4.913944688e-10
5.0730797e-10
5.249247076e-10
5.429540924e-10
5.616280608e-10
5.794253994e-10
5.921946244e-10
6.008907754e-10
6.126063354e-10
6.28625472e-10
6.460040284e-10
6.611749163e-10
6.75818718e-10
6.581232131e-10
5.786135061e-10
2.365235627e-10
-5.427577036e-11
-5.323563376e-11
-5.18926596e-11
-5.309234149e-11
)


101
(
-1.716622586e-09
-2.040527782e-09
-2.392419297e-09
-2.329642344e-09
-2.088855777e-09
-1.789573314e-09
-1.467816017e-09
-1.141908783e-09
-8.344108441e-10
-5.538596339e-10
-3.087542753e-10
-1.055567139e-10
5.221552502e-11
1.643237598e-10
2.328609192e-10
2.645898756e-10
2.691790916e-10
2.579201923e-10
2.408453963e-10
2.259498527e-10
2.180281555e-10
2.179646706e-10
2.245752236e-10
2.34761626e-10
2.445328843e-10
2.50415691e-10
2.50195394e-10
2.430111281e-10
2.291682429e-10
2.097890321e-10
1.864682398e-10
1.609481852e-10
1.347178663e-10
1.087705931e-10
8.409622877e-11
6.325865365e-11
4.933879109e-11
4.138316249e-11
3.33229608e-11
1.965504033e-11
1.510362502e-13
-2.084766269e-11
-3.85454688e-11
-5.033389387e-11
-5.555188145e-11
-5.5400459e-11
-5.180521231e-11
-4.63884316e-11
-4.004498849e-11
-3.290809339e-11
-2.487962477e-11
-1.579315306e-11
-5.635214183e-12
5.52452866e-12
1.753010002e-11
3.033105787e-11
4.38935414e-11
5.820511884e-11
7.317323318e-11
8.8683723e-11
1.048142093e-10
1.214715179e-10
1.385753468e-10
1.561644101e-10
1.741394587e-10
1.924023308e-10
2.109687065e-10
2.298135475e-10
2.490004164e-10
2.684364718e-10
2.879664229e-10
3.07575948e-10
3.272604078e-10
3.469685572e-10
3.667539319e-10
3.869771309e-10
4.080419484e-10
4.299288618e-10
4.513596571e-10
4.698032462e-10
4.840806771e-10
4.966820827e-10
5.115266289e-10
5.29286573e-10
5.479953491e-10
5.670077747e-10
5.861610694e-10
6.02946337e-10
6.145791209e-10
6.257278439e-10
6.412343719e-10
6.596448243e-10
6.773128111e-10
6.937352331e-10
6.692575916e-10
5.736361275e-10
2.270582892e-10
-5.91213924e-11
-5.92383019e-11
-5.958910861e-11
-6.153888935e-11
)


101
(
-1.696001884e-09
-2.017702883e-09
-2.370457977e-09
-2.315480795e-09
-2.08305781e-09
-1.791275703e-09
-1.476667691e-09
-1.157095812e-09
-8.542532781e-10
-5.766207379e-10
-3.323552761e-10
-1.277933354e-10
3.340676244e-11
1.505454596e-10
2.251289879e-10
2.628986348e-10
2.725502643e-10
2.646254909e-10
2.488805469e-10
2.335143101e-10
2.239086955e-10
2.217825964e-10
2.266440507e-10
2.359740864e-10
2.461578247e-10
2.536801331e-10
2.559548136e-10
2.516603978e-10
2.406690583e-10
2.237479146e-10
2.022464797e-10
1.777759522e-10
1.519268683e-10
1.258285041e-10
1.003531394e-10
7.74683694e-11
5.995988712e-11
4.865985338e-11
4.015475447e-11
2.914243459e-11
1.283912436e-11
-7.047058216e-12
-2.654477688e-11
-4.216844344e-11
-5.166254986e-11
-5.49737845e-11
-5.355537378e-11
-4.92659254e-11
-4.357839884e-11
-3.706729924e-11
-2.978267846e-11
-2.148484242e-11
-1.205928458e-11
-1.543948605e-12
9.918502319e-12
2.226492471e-11
3.538688637e-11
4.928902855e-11
6.393494196e-11
7.91998238e-11
9.515074437e-11
1.116986516e-10
1.287644525e-10
1.463587569e-10
1.644194013e-10
1.828336618e-10
2.015943282e-10
2.206781834e-10
2.401261286e-10
2.599345259e-10
2.799265245e-10
2.999910494e-10
3.201103278e-10
3.403001679e-10
3.606210851e-10
3.81286768e-10
4.024672701e-10
4.243094685e-10
4.46589315e-10
4.677734154e-10
4.856104908e-10
4.999031219e-10
5.14071011e-10
5.312284528e-10
5.504929474e-10
5.701217653e-10
5.899282138e-10
6.090633994e-10
6.240912124e-10
6.363486305e-10
6.51193836e-10
6.697244925e-10
6.894465316e-10
7.07639062e-10
6.78032312e-10
5.687033134e-10
2.177573219e-10
-6.424020382e-11
-6.419483904e-11
-6.44660672e-11
-6.646549914e-11
)


101
(
-1.675386528e-09
-1.99483028e-09
-2.348309162e-09
-2.300970579e-09
-2.076801433e-09
-1.792441309e-09
-1.484886786e-09
-1.171616742e-09
-8.73490449e-10
-5.988948407e-10
-3.556713815e-10
-1.50023423e-10
1.431085502e-11
1.36225427e-10
2.166845125e-10
2.605104288e-10
2.754435784e-10
2.712407985e-10
2.573011867e-10
2.41900721e-10
2.308875042e-10
2.267602774e-10
2.297250069e-10
2.378479321e-10
2.479660864e-10
2.566681415e-10
2.611016961e-10
2.595229317e-10
2.513744488e-10
2.370536122e-10
2.176338073e-10
1.945450251e-10
1.693983643e-10
1.434485213e-10
1.175287997e-10
9.317167329e-11
7.274977345e-11
5.802686734e-11
4.771991536e-11
3.771542297e-11
2.415515475e-11
6.432433608e-12
-1.316990874e-11
-3.135490854e-11
-4.481610086e-11
-5.209585209e-11
-5.366353077e-11
-5.11381331e-11
-4.638789826e-11
-4.054981945e-11
-3.397260293e-11
-2.64561936e-11
-1.785196821e-11
-8.088982811e-12
2.753873577e-12
1.455819551e-11
2.716000576e-11
4.058516693e-11
5.481716235e-11
6.972856346e-11
8.538044305e-11
1.016770618e-10
1.185830306e-10
1.360992082e-10
1.541567932e-10
1.726462098e-10
1.914958595e-10
2.106853519e-10
2.302411493e-10
2.502455822e-10
2.705832787e-10
2.910911075e-10
3.116411347e-10
3.321696453e-10
3.528752695e-10
3.739990562e-10
3.955306185e-10
4.174492626e-10
4.398510953e-10
4.623335142e-10
4.831028759e-10
5.002205e-10
5.149372925e-10
5.312950159e-10
5.504975117e-10
5.708593342e-10
5.913018569e-10
6.116740032e-10
6.295669666e-10
6.436853432e-10
6.582905057e-10
6.770008825e-10
6.982957388e-10
7.180937985e-10
6.838319957e-10
5.598875794e-10
2.070003182e-10
-6.733152446e-11
-6.610173266e-11
-6.467379835e-11
-6.599439699e-11
)


101
(
-1.654777142e-09
-1.971910792e-09
-2.325974284e-09
-2.286113219e-09
-2.070087729e-09
-1.793070752e-09
-1.492474352e-09
-1.185469109e-09
-8.921144734e-10
-6.206662701e-10
-3.786767308e-10
-1.722137477e-10
-5.041921773e-12
1.213819086e-10
2.075234392e-10
2.573811566e-10
2.777722078e-10
2.77646114e-10
2.659761539e-10
2.510004887e-10
2.389090515e-10
2.32901868e-10
2.338876747e-10
2.40524217e-10
2.501386078e-10
2.595481338e-10
2.65751895e-10
2.666459867e-10
2.612590474e-10
2.496106461e-10
2.324776814e-10
2.110725925e-10
1.869490798e-10
1.614341896e-10
1.353982064e-10
1.10100056e-10
8.745499941e-11
6.957378643e-11
5.668157415e-11
4.618364735e-11
3.431074549e-11
1.898450906e-11
5.920177692e-13
-1.864864044e-11
-3.519333082e-11
-4.645496945e-11
-5.163646209e-11
-5.163378277e-11
-4.83282821e-11
-4.331652421e-11
-3.741392442e-11
-3.065312414e-11
-2.289953629e-11
-1.398167791e-11
-3.903013878e-12
7.272244461e-12
1.929310987e-11
3.217013042e-11
4.59312618e-11
6.039792696e-11
7.565259099e-11
9.160303117e-11
1.082227676e-10
1.255287513e-10
1.434525516e-10
1.619073674e-10
1.807731531e-10
1.999972026e-10
2.196095651e-10
2.396934148e-10
2.602061276e-10
2.809774506e-10
3.018543365e-10
3.227320602e-10
3.437613725e-10
3.652106664e-10
3.871053601e-10
4.093308515e-10
4.318067254e-10
4.546390353e-10
4.77179662e-10
4.971619601e-10
5.136714309e-10
5.29760338e-10
5.483876579e-10
5.692635459e-10
5.904093671e-10
6.11538735e-10
6.314749889e-10
6.477940991e-10
6.628529127e-10
6.815676724e-10
7.038528618e-10
7.251794879e-10
6.868491493e-10
5.507879587e-10
1.971750055e-10
-7.033044394e-11
-6.726477091e-11
-6.324886345e-11
-6.348577497e-11
)


101
(
-1.634174429e-09
-1.948945315e-09
-2.303454809e-09
-2.270910193e-09
-2.062917704e-09
-1.793164758e-09
-1.499431764e-09
-1.198649895e-09
-9.101157581e-10
-6.419188493e-10
-4.013461755e-10
-1.9433108e-10
-2.461893185e-11
1.060376523e-10
1.976484026e-10
2.534755186e-10
2.794570549e-10
2.837252596e-10
2.747708412e-10
2.606932074e-10
2.479035398e-10
2.402084785e-10
2.391967561e-10
2.441320696e-10
2.528575118e-10
2.625042355e-10
2.700456269e-10
2.73103946e-10
2.703282924e-10
2.613567112e-10
2.466471999e-10
2.271721094e-10
2.04384502e-10
1.796053609e-10
1.537582957e-10
1.279836077e-10
1.037764661e-10
8.32061592e-11
6.743106701e-11
5.530829213e-11
4.386001494e-11
3.047558834e-11
1.398701259e-11
-4.927925297e-12
-2.329815634e-11
-3.801615158e-11
-4.709423419e-11
-5.032574193e-11
-4.911767962e-11
-4.527035133e-11
-4.011002177e-11
-3.406283845e-11
-2.713952775e-11
-1.914203444e-11
-9.93325906e-12
5.272879407e-13
1.189957966e-11
2.416292822e-11
3.737315199e-11
5.132393608e-11
6.608669509e-11
8.160670981e-11
9.78464023e-11
1.148019299e-10
1.324466945e-10
1.507612608e-10
1.695839214e-10
1.887959767e-10
2.083933747e-10
2.284363877e-10
2.489691356e-10
2.698851281e-10
2.910045753e-10
3.121554289e-10
3.334204767e-10
3.550934865e-10
3.772920741e-10
3.99838717e-10
4.225142924e-10
4.454717588e-10
4.688081742e-10
4.90904892e-10
5.097666646e-10
5.265301347e-10
5.445035171e-10
5.653752814e-10
5.872701011e-10
6.090569091e-10
6.304290899e-10
6.488666697e-10
6.647803774e-10
6.835451361e-10
7.064959133e-10
7.293023505e-10
6.87159181e-10
5.396885045e-10
1.882816518e-10
-7.034947641e-11
-6.721001572e-11
-6.494961751e-11
-6.711697704e-11
)


101
(
-1.613579063e-09
-1.925934709e-09
-2.280752168e-09
-2.255362957e-09
-2.055292357e-09
-1.79272406e-09
-1.505760399e-09
-1.211156239e-09
-9.274843833e-10
-6.626363018e-10
-4.236546513e-10
-2.163413588e-10
-4.438493601e-11
9.022029999e-11
1.870693942e-10
2.487676381e-10
2.804275276e-10
2.893682742e-10
2.835524776e-10
2.708508166e-10
2.577830707e-10
2.486617569e-10
2.45700067e-10
2.487845583e-10
2.562959607e-10
2.657232607e-10
2.741388348e-10
2.789999183e-10
2.786228447e-10
2.722685151e-10
2.600583276e-10
2.427025779e-10
2.21531127e-10
1.977872095e-10
1.724157542e-10
1.465510571e-10
1.213679053e-10
9.86982896e-11
8.014729876e-11
6.571278057e-11
5.35034195e-11
4.115368273e-11
2.659712614e-11
8.986441821e-12
-9.869252336e-12
-2.707020107e-11
-3.984561315e-11
-4.677366568e-11
-4.835881438e-11
-4.621229386e-11
-4.202777536e-11
-3.670558025e-11
-3.056510659e-11
-2.347867374e-11
-1.518131942e-11
-5.557373066e-12
5.055061982e-12
1.66318122e-11
2.922485121e-11
4.261824237e-11
5.682516513e-11
7.182022094e-11
8.758350442e-11
1.041108878e-10
1.213733037e-10
1.393696353e-10
1.580261843e-10
1.771791185e-10
1.96716886e-10
2.166756879e-10
2.371199462e-10
2.580184197e-10
2.792342574e-10
3.005698446e-10
3.220300823e-10
3.438797392e-10
3.662888081e-10
3.890430413e-10
4.119400243e-10
4.350869086e-10
4.58728048e-10
4.820653136e-10
5.031395683e-10
5.213354048e-10
5.390435419e-10
5.595008055e-10
5.819902616e-10
6.045425326e-10
6.267440769e-10
6.469942792e-10
6.642070487e-10
6.830115217e-10
7.063857329e-10
7.306020831e-10
6.853578095e-10
5.279284312e-10
1.794746424e-10
-6.986780467e-11
-6.471207244e-11
-5.994465114e-11
-6.118842028e-11
)


101
(
-1.592991759e-09
-1.902879867e-09
-2.257867809e-09
-2.239473e-09
-2.047212749e-09
-1.791749535e-09
-1.511461699e-09
-1.222985017e-09
-9.442102568e-10
-6.828029095e-10
-4.455771283e-10
-2.382093445e-10
-6.430200275e-11
7.39620149e-11
1.75803093e-10
2.43242151e-10
2.806242874e-10
2.944731445e-10
2.921908824e-10
2.813356655e-10
2.684346512e-10
2.582062648e-10
2.534088449e-10
2.545511711e-10
2.605817578e-10
2.693861841e-10
2.782247192e-10
2.844915723e-10
2.862384236e-10
2.823735089e-10
2.726793325e-10
2.575815988e-10
2.382559708e-10
2.158162453e-10
1.911875596e-10
1.655540922e-10
1.398858993e-10
1.157292428e-10
9.479789579e-11
7.781272797e-11
6.392825356e-11
5.152984244e-11
3.836842589e-11
2.246648569e-11
4.258360846e-12
-1.419030463e-11
-2.995699392e-11
-4.06451925e-11
-4.560884193e-11
-4.581984898e-11
-4.30274501e-11
-3.856002978e-11
-3.317144726e-11
-2.693698214e-11
-1.958428746e-11
-1.088406201e-11
-1.122239669e-12
9.682778563e-12
2.158626377e-11
3.435608422e-11
4.796690961e-11
6.238018471e-11
7.759358493e-11
9.3595839e-11
1.103968095e-10
1.279733115e-10
1.462926436e-10
1.652673481e-10
1.846906622e-10
2.045322995e-10
2.248440121e-10
2.455939382e-10
2.667407346e-10
2.88145279e-10
3.097622705e-10
3.317514013e-10
3.542565603e-10
3.771523022e-10
4.002233667e-10
4.23518435e-10
4.473223517e-10
4.712893315e-10
4.939805188e-10
5.139932293e-10
5.321419945e-10
5.519846574e-10
5.745983976e-10
5.979758513e-10
6.208324733e-10
6.424176332e-10
6.611538078e-10
6.803068224e-10
7.037815879e-10
7.291336861e-10
6.813490478e-10
5.153084496e-10
1.721112972e-10
-6.654099105e-11
-5.990180669e-11
-5.45894056e-11
-5.655579706e-11
)


101
(
-1.572413263e-09
-1.879781698e-09
-2.234803191e-09
-2.223241828e-09
-2.038679974e-09
-1.790242319e-09
-1.51653749e-09
-1.234132285e-09
-9.602817792e-10
-7.024043307e-10
-4.670902546e-10
-2.598992195e-10
-8.43313327e-11
5.729735759e-11
1.638721785e-10
2.3689609e-10
2.800056924e-10
2.989519823e-10
3.00559713e-10
2.919996442e-10
2.797174834e-10
2.687483289e-10
2.6230785e-10
2.614972642e-10
2.65843169e-10
2.736688999e-10
2.824992036e-10
2.897568201e-10
2.933023322e-10
2.917317039e-10
2.845060449e-10
2.717539235e-10
2.544580534e-10
2.335531218e-10
2.09906294e-10
1.847737185e-10
1.590219443e-10
1.339506532e-10
1.111828268e-10
9.177701322e-11
7.568875571e-11
6.224470639e-11
4.959462e-11
3.522128062e-11
1.835607178e-11
-1.338533501e-13
-1.78259954e-11
-3.185181103e-11
-4.046997967e-11
-4.368299962e-11
-4.286682625e-11
-3.954078521e-11
-3.494613665e-11
-2.952111159e-11
-2.31008244e-11
-1.535033628e-11
-6.50191821e-12
3.44701641e-12
1.457535401e-11
2.664598641e-11
3.960605297e-11
5.33762551e-11
6.79906578e-11
8.343231529e-11
9.968466052e-11
1.167232771e-10
1.345854343e-10
1.532177976e-10
1.724367012e-10
1.921403142e-10
2.122859693e-10
2.328236132e-10
2.537607683e-10
2.750672398e-10
2.967153611e-10
3.188114514e-10
3.414198575e-10
3.643506764e-10
3.874797597e-10
4.108938952e-10
4.348189681e-10
4.590580598e-10
4.827202014e-10
5.044548457e-10
5.236528618e-10
5.43091659e-10
5.653938009e-10
5.893835942e-10
6.129635851e-10
6.355232628e-10
6.556520561e-10
6.753893908e-10
6.989249148e-10
7.251591844e-10
6.752279505e-10
5.021613747e-10
1.663938223e-10
-6.037214188e-11
-5.266204111e-11
-4.605189724e-11
-4.754511807e-11
)


101
(
-1.551844327e-09
-1.85664112e-09
-2.211559773e-09
-2.206670966e-09
-2.029695137e-09
-1.788203535e-09
-1.520989722e-09
-1.244594532e-09
-9.756871541e-10
-7.214261068e-10
-4.881712015e-10
-2.813745905e-10
-1.044318773e-10
4.026455329e-11
1.513047831e-10
2.297346279e-10
2.785412735e-10
3.027281629e-10
3.08542491e-10
3.026990489e-10
2.914826605e-10
2.80172985e-10
2.723519769e-10
2.69663134e-10
2.721962529e-10
2.787407536e-10
2.871513593e-10
2.949688696e-10
2.999504601e-10
3.004320027e-10
2.955672952e-10
2.851800438e-10
2.700456119e-10
2.508796652e-10
2.284391972e-10
2.040448066e-10
1.785309251e-10
1.530317634e-10
1.289971259e-10
1.075460981e-10
8.912475002e-11
7.391962249e-11
6.080805879e-11
4.732643409e-11
3.195557806e-11
1.433675143e-11
-4.09655951e-12
-2.061800286e-11
-3.274698751e-11
-3.940346645e-11
-4.118490966e-11
-3.94586032e-11
-3.584149714e-11
-3.121830025e-11
-2.567121927e-11
-1.887637504e-11
-1.098994326e-11
-1.974335947e-12
8.290130642e-12
1.959627892e-11
3.184963303e-11
4.491652987e-11
5.887583693e-11
7.372379506e-11
8.936836285e-11
1.058055594e-10
1.23090864e-10
1.412458881e-10
1.601411914e-10
1.795986007e-10
1.99543632e-10
2.198582595e-10
2.405265403e-10
2.61583553e-10
2.830821999e-10
3.051896927e-10
3.278629759e-10
3.50804078e-10
3.739321832e-10
3.973341854e-10
4.212935782e-10
4.456869153e-10
4.69875099e-10
4.928565387e-10
5.133798236e-10
5.329567116e-10
5.5472358e-10
5.789087957e-10
6.032544552e-10
6.265726615e-10
6.479660895e-10
6.682616496e-10
6.917717064e-10
7.188470908e-10
6.672037668e-10
4.881847599e-10
1.615840646e-10
-5.193280627e-11
-4.293809647e-11
-3.235756124e-11
-3.072309159e-11
)


101
(
-1.531285765e-09
-1.833459108e-09
-2.188139058e-09
-2.189762007e-09
-2.020259455e-09
-1.78563431e-09
-1.524820405e-09
-1.254368615e-09
-9.90414504e-10
-7.398520237e-10
-5.087983879e-10
-3.026009083e-10
-1.245589353e-10
2.290768371e-11
1.381359502e-10
2.217682145e-10
2.762035935e-10
3.057278507e-10
3.160131123e-10
3.132816306e-10
3.035866738e-10
2.923714128e-10
2.834881291e-10
2.790630152e-10
2.797337804e-10
2.847584104e-10
2.923676476e-10
3.003094598e-10
3.063341518e-10
3.085853474e-10
3.059254346e-10
2.978562575e-10
2.849523434e-10
2.676930495e-10
2.466683421e-10
2.232318636e-10
1.982171333e-10
1.726780618e-10
1.478972757e-10
1.249006196e-10
1.043319413e-10
8.700589059e-11
7.261282621e-11
5.916798648e-11
4.49394271e-11
2.862818033e-11
1.049572385e-11
-7.437016949e-12
-2.249970744e-11
-3.268266557e-11
-3.758073692e-11
-3.803610405e-11
-3.574142745e-11
-3.200128742e-11
-2.728859058e-11
-2.141834756e-11
-1.451030701e-11
-6.475719663e-12
2.849791959e-12
1.329299325e-11
2.477827254e-11
3.711698927e-11
5.037794652e-11
6.457375326e-11
7.956128719e-11
9.534295603e-11
1.119909751e-10
1.295665763e-10
1.479765408e-10
1.670639204e-10
1.867434017e-10
2.068052259e-10
2.271959297e-10
2.479387224e-10
2.691031873e-10
2.910086494e-10
3.136528598e-10
3.366455241e-10
3.597402493e-10
3.830198014e-10
4.069269537e-10
4.313274413e-10
4.557710186e-10
4.796234481e-10
5.013758339e-10
5.214444109e-10
5.427897237e-10
5.667806527e-10
5.917010539e-10
6.156879397e-10
6.381931705e-10
6.591415356e-10
6.825226204e-10
7.102708484e-10
6.57292531e-10
4.732502895e-10
1.580409124e-10
-4.071119746e-11
-3.118559069e-11
-2.412380823e-11
-2.649308995e-11
)


101
(
-1.510738443e-09
-1.81023668e-09
-2.164542587e-09
-2.172516576e-09
-2.010374151e-09
-1.782535772e-09
-1.528031725e-09
-1.263451899e-09
-1.004452016e-09
-7.576647661e-10
-5.289510515e-10
-3.235452989e-10
-1.446652803e-10
5.275917792e-12
1.24407154e-10
2.130145189e-10
2.729699823e-10
3.078821459e-10
3.228490415e-10
3.235975527e-10
3.15885832e-10
3.052253677e-10
2.95644963e-10
2.896847098e-10
2.885201535e-10
2.918570468e-10
2.983282297e-10
3.059748548e-10
3.126314088e-10
3.163190126e-10
3.156473743e-10
3.098000821e-10
2.991447446e-10
2.839154576e-10
2.644983014e-10
2.422298406e-10
2.179350388e-10
1.926520236e-10
1.675569252e-10
1.43520337e-10
1.211867739e-10
1.017385301e-10
8.55386685e-11
7.127874283e-11
5.750333747e-11
4.244279492e-11
2.529963179e-11
7.035358039e-12
-1.005335463e-11
-2.342975418e-11
-3.171375438e-11
-3.492072039e-11
-3.443297556e-11
-3.18040856e-11
-2.796303624e-11
-2.296612606e-11
-1.7003347e-11
-9.975846843e-12
-1.652025646e-12
7.860544011e-12
1.85103781e-11
3.0077681e-11
4.26031744e-11
5.60655935e-11
7.037358706e-11
8.548823566e-11
1.014199947e-10
1.183125407e-10
1.361135493e-10
1.547263686e-10
1.740340854e-10
1.937803238e-10
2.138840041e-10
2.342896298e-10
2.550409434e-10
2.765080233e-10
2.989507086e-10
3.219323811e-10
3.449856417e-10
3.681838139e-10
3.919112377e-10
4.16117614e-10
4.406345374e-10
4.650068621e-10
4.877772888e-10
5.08571362e-10
5.296822259e-10
5.532134568e-10
5.783962548e-10
6.030498679e-10
6.264238402e-10
6.480856917e-10
6.713694461e-10
6.9945319e-10
6.456737355e-10
4.580103283e-10
1.556893195e-10
-2.760231286e-11
-1.746460671e-11
-8.487466126e-12
-9.248259512e-12
)


101
(
-1.490203165e-09
-1.786974646e-09
-2.140771822e-09
-2.154936387e-09
-2.0000404e-09
-1.778909008e-09
-1.530626028e-09
-1.271843275e-09
-1.017789181e-09
-7.748454029e-10
-5.486072894e-10
-3.441762438e-10
-1.647039367e-10
-1.257945243e-11
1.101643577e-10
2.035001729e-10
2.688315555e-10
3.091390308e-10
3.289420585e-10
3.335024102e-10
3.282322986e-10
3.185966055e-10
3.087213993e-10
3.014811655e-10
2.98575912e-10
3.001403898e-10
3.052090225e-10
3.121775386e-10
3.190484719e-10
3.237912068e-10
3.248235203e-10
3.210478035e-10
3.126128397e-10
2.994898957e-10
2.818445257e-10
2.609464938e-10
2.375728132e-10
2.127725679e-10
1.876896374e-10
1.630656847e-10
1.394390075e-10
1.181187985e-10
9.991994611e-11
8.420212791e-11
7.007950667e-11
5.579872447e-11
3.986074547e-11
2.212639508e-11
4.065586387e-12
-1.180888155e-11
-2.339815856e-11
-2.97591735e-11
-3.162210003e-11
-3.047845582e-11
-2.763748349e-11
-2.350639903e-11
-1.84583087e-11
-1.241930394e-11
-5.113766184e-12
3.403363338e-12
1.313937546e-11
2.388704086e-11
3.563652413e-11
4.832199905e-11
6.190560486e-11
7.630006172e-11
9.14910503e-11
1.076495328e-10
1.247653844e-10
1.427851228e-10
1.615658499e-10
1.808997446e-10
2.006699064e-10
2.20719678e-10
2.410582725e-10
2.620388863e-10
2.84007887e-10
3.067360935e-10