/*--------------------------------*- C++ -*----------------------------------*\
| =========                 |                                                 |
| \\      /  F ield         | OpenFOAM: The Open Source CFD Toolbox           |
|  \\    /   O peration     | Version:  2.3.1                                 |
|   \\  /    A nd           | Web:      www.OpenFOAM.org                      |
|    \\/     M anipulation  |                                                 |
\*---------------------------------------------------------------------------*/
FoamFile
{
    version     2.0;
    format      ascii;
    class       dictionary;
    location    "constant";
    object      DPSI15;
}
// * * * * * * * * * * * * * * * * * * * * * * * * * * * * * * * * * * * * * //

DPSI15_table
101
(

101
(
-3.060821938e-13
-2.473535116e-12
-1.097482904e-11
-2.78530345e-11
-5.239995942e-11
-8.358011874e-11
-1.239401851e-10
-1.758274895e-10
-2.411206109e-10
-3.23244211e-10
-4.247518979e-10
-5.451145621e-10
-6.864969527e-10
-8.447654159e-10
-1.009231501e-09
-1.174832764e-09
-1.333976788e-09
-1.468694884e-09
-1.575521684e-09
-1.647436725e-09
-1.674092534e-09
-1.657881074e-09
-1.598390249e-09
-1.503326622e-09
-1.380232347e-09
-1.237435404e-09
-1.084647045e-09
-9.279488304e-10
-7.749849144e-10
-6.322962262e-10
-5.029275112e-10
-3.92947407e-10
-2.848620016e-10
-1.872523477e-10
-1.105711187e-10
-1.647121251e-11
7.347015971e-11
4.739832395e-11
1.418389407e-13
2.1955199e-11
3.705079027e-11
4.820870204e-11
5.701908175e-11
6.299037201e-11
6.767574986e-11
7.168684293e-11
7.517705881e-11
7.847685701e-11
8.183228388e-11
8.57272538e-11
9.039312391e-11
9.596387508e-11
1.025951384e-10
1.105609935e-10
1.198556057e-10
1.311601131e-10
1.433197373e-10
1.569349215e-10
1.723679754e-10
1.889026488e-10
2.081958148e-10
2.285182822e-10
2.498633201e-10
2.734710971e-10
2.990493838e-10
3.255573965e-10
3.523379947e-10
3.815999159e-10
4.128366012e-10
4.452589964e-10
4.804783907e-10
5.199684722e-10
5.65167909e-10
6.536904254e-10
6.969433656e-10
6.39876062e-10
6.218817307e-10
6.571223099e-10
6.915529977e-10
7.286902661e-10
7.726403366e-10
8.244999295e-10
9.119435757e-10
9.185292159e-10
8.60076195e-10
8.736124675e-10
9.1265992e-10
9.602417999e-10
1.056680256e-09
1.057956239e-09
1.012022276e-09
1.085211168e-09
1.133846535e-09
1.170397757e-09
1.179144734e-09
1.161501602e-09
5.876083987e-10
1.722845218e-17
2.750804685e-27
2.279658476e-29
-6.107047697e-27
)


101
(
-2.77864322e-13
-2.369570644e-12
-1.060513571e-11
-2.698900511e-11
-5.082847725e-11
-8.108692493e-11
-1.200916829e-10
-1.701301348e-10
-2.329928137e-10
-3.119403681e-10
-4.095263651e-10
-5.256042188e-10
-6.620131793e-10
-8.157409558e-10
-9.773525454e-10
-1.141323746e-09
-1.300710083e-09
-1.440484952e-09
-1.553736602e-09
-1.635278868e-09
-1.675838738e-09
-1.673213208e-09
-1.628546499e-09
-1.547778234e-09
-1.436751443e-09
-1.303290099e-09
-1.156511098e-09
-1.00307937e-09
-8.501920395e-10
-7.04639604e-10
-5.705266229e-10
-4.532769635e-10
-3.430312083e-10
-2.409269697e-10
-1.552451185e-10
-6.529278514e-11
2.573446441e-11
4.787763877e-11
2.084878592e-11
1.768034158e-11
2.853019539e-11
4.060802591e-11
5.148978138e-11
6.006690924e-11
6.658349503e-11
7.168167444e-11
7.581022693e-11
7.947028002e-11
8.302476634e-11
8.685057729e-11
9.124942131e-11
9.638645306e-11
1.023075088e-10
1.093985006e-10
1.181038651e-10
1.286396189e-10
1.405605619e-10
1.537482648e-10
1.685189669e-10
1.847004424e-10
2.028980066e-10
2.228875862e-10
2.441069582e-10
2.670264896e-10
2.923411766e-10
3.193690486e-10
3.470161375e-10
3.75943402e-10
4.070199023e-10
4.398982879e-10
4.742775569e-10
5.110361399e-10
5.518241123e-10
6.144828856e-10
6.79174929e-10
6.961529649e-10
6.849662502e-10
6.862403531e-10
7.061845492e-10
7.40274558e-10
7.820909077e-10
8.283359249e-10
8.940636233e-10
9.523153802e-10
9.562787809e-10
9.389992493e-10
9.496091336e-10
9.869744642e-10
1.048119678e-09
1.111370886e-09
1.121274532e-09
1.122391939e-09
1.1772897e-09
1.228233637e-09
1.254232988e-09
1.248963154e-09
6.249073656e-10
1.983546963e-11
1.194880343e-11
3.920119876e-12
3.867691566e-12
)


101
(
-2.507684466e-13
-2.268463735e-12
-1.024371381e-11
-2.614283273e-11
-4.928928578e-11
-7.864755726e-11
-1.163372012e-10
-1.64578324e-10
-2.250781969e-10
-3.009323445e-10
-3.946779443e-10
-5.06495986e-10
-6.379691808e-10
-7.869936793e-10
-9.453565796e-10
-1.107283684e-09
-1.266325386e-09
-1.409950277e-09
-1.529022942e-09
-1.619169147e-09
-1.672409886e-09
-1.68314689e-09
-1.652883848e-09
-1.586481045e-09
-1.488165263e-09
-1.364968078e-09
-1.225397668e-09
-1.07632372e-09
-9.247494069e-10
-7.774913986e-10
-6.394000763e-10
-5.158153412e-10
-4.015966227e-10
-2.956609616e-10
-2.030094605e-10
-1.119798934e-10
-2.027311325e-11
3.068096858e-11
3.14114324e-11
2.453329819e-11
2.738503653e-11
3.666334532e-11
4.807389286e-11
5.872931003e-11
6.753702423e-11
7.448038061e-11
7.98135217e-11
8.419054957e-11
8.818297888e-11
9.219275457e-11
9.656007195e-11
1.015431015e-10
1.073086516e-10
1.139911174e-10
1.219502115e-10
1.314885866e-10
1.426844608e-10
1.553676861e-10
1.694912695e-10
1.851185952e-10
2.024767423e-10
2.216220863e-10
2.42494834e-10
2.652581752e-10
2.900920403e-10
3.166376585e-10
3.4438862e-10
3.735032563e-10
4.043250727e-10
4.371194038e-10
4.713616368e-10
5.071365121e-10
5.448292623e-10
5.928161307e-10
6.530064182e-10
7.025761606e-10
7.254161901e-10
7.296171686e-10
7.341030801e-10
7.548924843e-10
7.922774622e-10
8.363856073e-10
8.881274353e-10
9.498553506e-10
9.991548279e-10
1.010180659e-09
1.00357866e-09
1.022145998e-09
1.070039984e-09
1.128088329e-09
1.181221092e-09
1.198596695e-09
1.220147166e-09
1.288275957e-09
1.319732398e-09
1.282241054e-09
6.655380555e-10
7.960640362e-11
7.434307021e-11
6.913194168e-11
7.197005686e-11
)


101
(
-2.247778214e-13
-2.170179825e-12
-9.890469949e-12
-2.53142944e-11
-4.778189741e-11
-7.626103899e-11
-1.126747712e-10
-1.591697235e-10
-2.173741178e-10
-2.902187099e-10
-3.802096604e-10
-4.878059096e-10
-6.143898465e-10
-7.585890724e-10
-9.133542673e-10
-1.072842877e-09
-1.230995968e-09
-1.377383586e-09
-1.501560037e-09
-1.599372381e-09
-1.664089784e-09
-1.687734533e-09
-1.671462069e-09
-1.619357793e-09
-1.53422514e-09
-1.422125262e-09
-1.290890955e-09
-1.147323387e-09
-9.983072344e-10
-8.505949589e-10
-7.094899995e-10
-5.804979322e-10
-4.614402258e-10
-3.51465833e-10
-2.536645473e-10
-1.593733078e-10
-6.572937664e-11
2.653212563e-12
2.945298838e-11
3.229316434e-11
3.243537944e-11
3.766159434e-11
4.737328145e-11
5.876333799e-11
6.969743918e-11
7.895796806e-11
8.617190373e-11
9.178796649e-11
9.653565425e-11
1.009855129e-10
1.05529347e-10
1.105268378e-10
1.161758919e-10
1.226533543e-10
1.302931369e-10
1.391201546e-10
1.494093801e-10
1.613970027e-10
1.748300462e-10
1.897681259e-10
2.063813773e-10
2.24699145e-10
2.448170176e-10
2.668890279e-10
2.909708408e-10
3.168993831e-10
3.44234941e-10
3.731932141e-10
4.039679664e-10
4.365303646e-10
4.70720651e-10
5.064219185e-10
5.431295275e-10
5.837878511e-10
6.33916888e-10
6.891182673e-10
7.35364308e-10
7.611149985e-10
7.690364528e-10
7.780416328e-10
8.041813059e-10
8.452305312e-10
8.927254997e-10
9.464541965e-10
1.005294797e-09
1.050689269e-09
1.0608344e-09
1.062385736e-09
1.094323004e-09
1.148011591e-09
1.208255346e-09
1.256281476e-09
1.28107092e-09
1.334611726e-09
1.36729413e-09
1.301243559e-09
6.986093147e-10
1.538247619e-10
1.449705487e-10
1.370878657e-10
1.429705914e-10
)


101
(
-1.998757064e-13
-2.074684407e-12
-9.545311828e-12
-2.450317237e-11
-4.630583585e-11
-7.392640685e-11
-1.091024281e-10
-1.539019002e-10
-2.098777116e-10
-2.79797432e-10
-3.661232617e-10
-4.695474479e-10
-5.912974157e-10
-7.305854584e-10
-8.814490768e-10
-1.038128002e-09
-1.19488813e-09
-1.343058868e-09
-1.4715537e-09
-1.576139572e-09
-1.651165434e-09
-1.687081138e-09
-1.684338129e-09
-1.646350566e-09
-1.574703282e-09
-1.474409746e-09
-1.352542668e-09
-1.215627506e-09
-1.070413475e-09
-9.235532378e-10
-7.805700946e-10
-6.47193912e-10
-5.230945531e-10
-4.085689783e-10
-3.055415862e-10
-2.082294849e-10
-1.127956209e-10
-3.234695061e-11
1.595846836e-11
3.471720421e-11
3.951153406e-11
4.304449767e-11
5.023653325e-11
6.079780429e-11
7.286885169e-11
8.434303233e-11
9.386341356e-11
1.012897115e-10
1.072788705e-10
1.125347597e-10
1.175355782e-10
1.227516199e-10
1.284588087e-10
1.348383022e-10
1.421421109e-10
1.506242175e-10
1.603672496e-10
1.715793124e-10
1.842052179e-10
1.983105407e-10
2.141740197e-10
2.316908188e-10
2.509870028e-10
2.722125574e-10
2.952672602e-10
3.202473782e-10
3.47057101e-10
3.755617885e-10
4.058370158e-10
4.377169153e-10
4.713983765e-10
5.070282946e-10
5.438799634e-10
5.82184246e-10
6.251751393e-10
6.751782008e-10
7.284198102e-10
7.729283736e-10
7.971805992e-10
8.065316362e-10
8.209478065e-10
8.534899778e-10
8.990653429e-10
9.493416351e-10
1.004231067e-09
1.060971746e-09
1.098906903e-09
1.107820689e-09
1.123490199e-09
1.168899778e-09
1.228079488e-09
1.28828004e-09
1.327499951e-09
1.377158481e-09
1.407969778e-09
1.331351119e-09
7.377841233e-10
2.166570269e-10
1.968407734e-10
1.771301425e-10
1.824127741e-10
)


101
(
-1.76045214e-13
-1.981942984e-12
-9.208148141e-12
-2.370925314e-11
-4.486063539e-11
-7.164271292e-11
-1.056182158e-10
-1.487723329e-10
-2.025859035e-10
-2.696659148e-10
-3.524193114e-10
-4.517315441e-10
-5.687113329e-10
-7.030343431e-10
-8.497367308e-10
-1.003261129e-09
-1.158161177e-09
-1.307232898e-09
-1.439227496e-09
-1.549716406e-09
-1.633923979e-09
-1.681337715e-09
-1.691584404e-09
-1.667426818e-09
-1.609405114e-09
-1.521480605e-09
-1.409896389e-09
-1.280737722e-09
-1.14055058e-09
-9.958431449e-10
-8.522450577e-10
-7.156480182e-10
-5.868146176e-10
-4.675272863e-10
-3.595874602e-10
-2.58603184e-10
-1.609199129e-10
-7.249954933e-11
-7.280389634e-12
2.916980507e-11
4.438471299e-11
5.056497655e-11
5.644050688e-11
6.535434672e-11
7.729032911e-11
9.029335667e-11
1.022374184e-10
1.120455354e-10
1.198164509e-10
1.262395183e-10
1.319766281e-10
1.37648767e-10
1.436303108e-10
1.501335105e-10
1.572977236e-10
1.654661079e-10
1.747930427e-10
1.855078357e-10
1.974848796e-10
2.106722237e-10
2.256918705e-10
2.423777826e-10
2.607611027e-10
2.811403186e-10
3.032494047e-10
3.271454668e-10
3.52965986e-10
3.80601398e-10
4.103269254e-10
4.416133512e-10
4.743381753e-10
5.091160394e-10
5.456725593e-10
5.834878175e-10
6.234065302e-10
6.680013729e-10
7.186815212e-10
7.703286626e-10
8.108778893e-10
8.321880607e-10
8.43442914e-10
8.647519743e-10
9.040714166e-10
9.532209289e-10
1.005730074e-09
1.061937346e-09
1.113609469e-09
1.141348511e-09
1.154520981e-09
1.188276469e-09
1.245711205e-09
1.309691065e-09
1.359818347e-09
1.412827153e-09
1.441550414e-09
1.357789856e-09
7.637266436e-10
2.547237651e-10
2.553490923e-10
2.570002588e-10
2.662643186e-10
)


101
(
-1.532694209e-13
-1.891921174e-12
-8.878888759e-12
-2.2932328e-11
-4.344584223e-11
-6.940902828e-11
-1.022201948e-10
-1.437784322e-10
-1.954954409e-10
-2.598210714e-10
-3.390972917e-10
-4.343669014e-10
-5.466484793e-10
-6.759811677e-10
-8.183055572e-10
-9.683595067e-10
-1.120968324e-09
-1.270147488e-09
-1.404817422e-09
-1.520350669e-09
-1.612654026e-09
-1.670696297e-09
-1.693302291e-09
-1.682585333e-09
-1.638177946e-09
-1.563028486e-09
-1.462509228e-09
-1.342137171e-09
-1.208165124e-09
-1.06691377e-09
-9.240022526e-10
-7.854324529e-10
-6.525584409e-10
-5.285503973e-10
-4.157990888e-10
-3.107928584e-10
-2.104417189e-10
-1.16437555e-10
-3.845474738e-11
1.479304109e-11
4.387463066e-11
5.728751144e-11
6.468774616e-11
7.245972933e-11
8.339159231e-11
9.690734444e-11
1.10858954e-10
1.23305647e-10
1.334128419e-10
1.415454721e-10
1.484102612e-10
1.547906307e-10
1.612614399e-10
1.681382355e-10
1.754326056e-10
1.834115443e-10
1.924032364e-10
2.026771961e-10
2.141632457e-10
2.267936133e-10
2.41051475e-10
2.56859256e-10
2.742297502e-10
2.935611097e-10
3.147467177e-10
3.376055119e-10
3.622859804e-10
3.888288861e-10
4.174764343e-10
4.480250597e-10
4.800930303e-10
5.138301141e-10
5.49380209e-10
5.865101885e-10
6.252103867e-10
6.667511965e-10
7.129651291e-10
7.635534746e-10
8.124300853e-10
8.481278228e-10
8.664112756e-10
8.809303113e-10
9.101651764e-10
9.556291256e-10
1.007387868e-09
1.061769618e-09
1.117048759e-09
1.160187263e-09
1.181018326e-09
1.206024478e-09
1.257658275e-09
1.323982406e-09
1.383408653e-09
1.440139402e-09
1.463116198e-09
1.374327871e-09
7.987432525e-10
3.112535315e-10
3.091128009e-10
3.065372171e-10
3.147567044e-10
)


101
(
-1.315313543e-13
-1.804584457e-12
-8.557443967e-12
-2.217219131e-11
-4.206101138e-11
-6.722443786e-11
-9.890643631e-11
-1.389175411e-10
-1.886028997e-10
-2.50259355e-10
-3.261556637e-10
-4.174600583e-10
-5.251231251e-10
-6.494654829e-10
-7.872362064e-10
-9.335349123e-10
-1.083456618e-09
-1.232029979e-09
-1.368565715e-09
-1.488295072e-09
-1.587646303e-09
-1.655383599e-09
-1.689629931e-09
-1.69186369e-09
-1.660918426e-09
-1.598790516e-09
-1.509968945e-09
-1.399310117e-09
-1.272678498e-09
-1.136152762e-09
-9.952533009e-10
-8.560290165e-10
-7.200810183e-10
-5.917063084e-10
-4.742259187e-10
-3.649416481e-10
-2.615447091e-10
-1.633067434e-10
-7.592452223e-11
-8.149342357e-12
3.600612192e-11
6.036816654e-11
7.293863075e-11
8.144355442e-11
9.142427046e-11
1.045702082e-10
1.196846911e-10
1.345380468e-10
1.473512629e-10
1.577643258e-10
1.6624746e-10
1.737280926e-10
1.809909097e-10
1.884281819e-10
1.961071329e-10
2.042617011e-10
2.130872688e-10
2.229626208e-10
2.340084736e-10
2.46141625e-10
2.597852396e-10
2.748817841e-10
2.914245717e-10
3.097185488e-10
3.298341041e-10
3.516182062e-10
3.751994035e-10
4.006217945e-10
4.280230659e-10
4.575124916e-10
4.886627693e-10
5.21309842e-10
5.556130329e-10
5.916413707e-10
6.293468306e-10
6.692621244e-10
7.123390928e-10
7.593669259e-10
8.090783447e-10
8.53915258e-10
8.837105466e-10
8.998651663e-10
9.200607618e-10
9.577928199e-10
1.007773375e-09
1.061099377e-09
1.116142619e-09
1.16725888e-09
1.199196313e-09
1.222510145e-09
1.266276104e-09
1.330772927e-09
1.396969898e-09
1.457270554e-09
1.479609732e-09
1.393593177e-09
8.341511453e-10
3.631108371e-10
3.622041662e-10
3.607148558e-10
3.697354519e-10
)


101
(
-1.108139142e-13
-1.719898422e-12
-8.243725364e-12
-2.14286425e-11
-4.070571059e-11
-6.508804813e-11
-9.567503532e-11
-1.341869598e-10
-1.819047262e-10
-2.4097683e-10
-3.135919904e-10
-4.010155638e-10
-5.041470211e-10
-6.235213899e-10
-7.56601692e-10
-8.98893136e-10
-1.045766766e-09
-1.193094838e-09
-1.330716278e-09
-1.453806864e-09
-1.559194738e-09
-1.635654203e-09
-1.680741182e-09
-1.695337211e-09
-1.677568564e-09
-1.628550911e-09
-1.551900897e-09
-1.451754622e-09
-1.333501576e-09
-1.202915035e-09
-1.065343778e-09
-9.268202287e-10
-7.889559728e-10
-6.568823173e-10
-5.349160541e-10
-4.211988329e-10
-3.14382693e-10
-2.125725553e-10
-1.183052616e-10
-3.873770303e-11
1.999325405e-11
5.756738337e-11
7.880960871e-11
9.087453265e-11
1.01065166e-10
1.135631779e-10
1.289900227e-10
1.456649299e-10
1.61197544e-10
1.742726765e-10
1.849009665e-10
1.939762674e-10
2.023212329e-10
2.105675673e-10
2.189586276e-10
2.275643111e-10
2.364844802e-10
2.462115395e-10
2.569688655e-10
2.687139246e-10
2.818393165e-10
2.962599941e-10
3.120741971e-10
3.295313857e-10
3.486950325e-10
3.6949154e-10
3.919176406e-10
4.160696213e-10
4.420235762e-10
4.70145854e-10
5.002146675e-10
5.319231142e-10
5.651128903e-10
5.996431185e-10
6.359483984e-10
6.74530906e-10
7.15583426e-10
7.59389667e-10
8.064448605e-10
8.541443894e-10
8.935415191e-10
9.172855335e-10
9.338132679e-10
9.622055245e-10
1.007163958e-09
1.059440435e-09
1.113528036e-09
1.167216829e-09
1.208615587e-09
1.234275387e-09
1.270978947e-09
1.332601444e-09
1.402695611e-09
1.465842583e-09
1.488599627e-09
1.401521827e-09
8.642070462e-10
4.183965908e-10
4.21614817e-10
4.257685837e-10
4.374590024e-10
)


101
(
-9.109988304e-14
-1.637828471e-12
-7.937644634e-12
-2.070148338e-11
-3.937951613e-11
-6.299898207e-11
-9.252410657e-11
-1.295839427e-10
-1.753972327e-10
-2.319691888e-10
-3.014029769e-10
-3.850360973e-10
-4.837295253e-10
-5.981779761e-10
-7.264674467e-10
-8.645333262e-10
-1.008032828e-09
-1.153543594e-09
-1.291511408e-09
-1.417147313e-09
-1.527594691e-09
-1.611784806e-09
-1.66684576e-09
-1.69312129e-09
-1.688116673e-09
-1.652144091e-09
-1.587978699e-09
-1.499003767e-09
-1.390061128e-09
-1.26655318e-09
-1.133590531e-09
-9.971276881e-10
-8.586271394e-10
-7.237979986e-10
-5.978320213e-10
-4.796621118e-10
-3.690552951e-10
-2.638595291e-10
-1.644256765e-10
-7.574706939e-11
-4.146244486e-12
4.73543922e-11
8.004599114e-11
9.889091357e-11
1.114561832e-10
1.238862046e-10
1.390967153e-10
1.567885763e-10
1.746492438e-10
1.906246139e-10
2.039505664e-10
2.151226842e-10
2.249589006e-10
2.343004705e-10
2.435455743e-10
2.528985802e-10
2.622593139e-10
2.721082393e-10
2.828484813e-10
2.943511781e-10
3.070947126e-10
3.210121991e-10
3.361953384e-10
3.529032713e-10
3.711655767e-10
3.910107299e-10
4.123643613e-10
4.353015029e-10
4.599505099e-10
4.866467575e-10
5.153592041e-10
5.457549501e-10
5.776529817e-10
6.108511601e-10
6.456524445e-10
6.825982232e-10
7.219140313e-10
7.634778773e-10
8.073933295e-10
8.536354038e-10
8.978515101e-10
9.302758192e-10
9.491371974e-10
9.701507535e-10
1.00722457e-09
1.056967076e-09
1.109826686e-09
1.163312271e-09
1.210558108e-09
1.240799757e-09
1.272857614e-09
1.329663812e-09
1.40066109e-09
1.465937502e-09
1.490068391e-09
1.408166071e-09
8.955774942e-10
4.715347527e-10
4.81992184e-10
4.957716465e-10
5.115417899e-10
)


101
(
-7.237204168e-14
-1.558340113e-12
-7.639114783e-12
-1.999052112e-11
-3.808201842e-11
-6.095638976e-11
-8.945180458e-11
-1.251057267e-10
-1.690766334e-10
-2.232318337e-10
-2.895846296e-10
-3.695226765e-10
-4.638776543e-10
-5.734596296e-10
-6.968917036e-10
-8.305478236e-10
-9.703820935e-10
-1.113565843e-09
-1.25118844e-09
-1.378580209e-09
-1.493145171e-09
-1.58406921e-09
-1.648184868e-09
-1.685372722e-09
-1.692600672e-09
-1.669459371e-09
-1.617928778e-09
-1.540631301e-09
-1.441804169e-09
-1.326416728e-09
-1.199286127e-09
-1.066228373e-09
-9.28430956e-10
-7.919779029e-10
-6.627592892e-10
-5.40354511e-10
-4.256882945e-10
-3.170098066e-10
-2.1342996e-10
-1.17871534e-10
-3.563935594e-11
2.915047654e-11
7.486306984e-11
1.034394463e-10
1.211997738e-10
1.350972225e-10
1.501693565e-10
1.681559061e-10
1.876972455e-10
2.06477594e-10
2.228821855e-10
2.367144098e-10
2.485412893e-10
2.592609831e-10
2.696070488e-10
2.800219297e-10
2.901770066e-10
3.004732263e-10
3.114302505e-10
3.229076412e-10
3.353949145e-10
3.489872977e-10
3.637191055e-10
3.797426568e-10
3.971634063e-10
4.161985322e-10
4.366743453e-10
4.585554188e-10
4.81958991e-10
5.071529483e-10
5.343327236e-10
5.633235534e-10
5.93879872e-10
6.256528145e-10
6.587734218e-10
6.938535292e-10
7.31402079e-10
7.710060025e-10
8.122519245e-10
8.556937173e-10
9.003980674e-10
9.388227386e-10
9.63305388e-10
9.811518454e-10
1.009462118e-09
1.05400307e-09
1.105219136e-09
1.15730082e-09
1.20720771e-09
1.242172932e-09
1.271341831e-09
1.322319604e-09
1.392005837e-09
1.458547032e-09
1.483609097e-09
1.407676854e-09
9.282086106e-10
5.322713052e-10
5.478958253e-10
5.619072472e-10
5.735617704e-10
)


101
(
-5.461295488e-14
-1.481398601e-12
-7.348048716e-12
-1.929556468e-11
-3.681281571e-11
-5.89594385e-11
-8.645630977e-11
-1.207495233e-10
-1.629390366e-10
-2.147598739e-10
-2.781322455e-10
-3.544747511e-10
-4.445961385e-10
-5.493861968e-10
-6.679255482e-10
-7.970216741e-10
-9.329343334e-10
-1.073339702e-09
-1.209977433e-09
-1.338368398e-09
-1.456146702e-09
-1.55281579e-09
-1.625030275e-09
-1.672290169e-09
-1.691110559e-09
-1.68044744e-09
-1.641541275e-09
-1.576264455e-09
-1.488213394e-09
-1.381868989e-09
-1.261703278e-09
-1.13334443e-09
-9.976050875e-10
-8.607843309e-10
-7.292970735e-10
-6.031700253e-10
-4.843947447e-10
-3.720036924e-10
-2.647073399e-10
-1.638806533e-10
-7.329563336e-11
3.191469184e-12
6.218492184e-11
1.02634947e-10
1.285229246e-10
1.462151466e-10
1.620807372e-10
1.800957992e-10
2.006079856e-10
2.217341134e-10
2.412778778e-10
2.582363191e-10
2.726241343e-10
2.852038392e-10
2.970499192e-10
3.087229216e-10
3.199049389e-10
3.309808983e-10
3.424693214e-10
3.542723356e-10
3.667332627e-10
3.801161246e-10
3.945285068e-10
4.101126992e-10
4.269042765e-10
4.45095389e-10
4.647790103e-10
4.858312168e-10
5.081455981e-10
5.319975171e-10
5.576258983e-10
5.85028326e-10
6.140634388e-10
6.443386734e-10
6.757933986e-10
7.089625631e-10
7.445534329e-10
7.820083149e-10
8.208462478e-10
8.615257336e-10
9.042799123e-10
9.450566649e-10
9.752720174e-10
9.938036091e-10
1.014727505e-09
1.051795299e-09
1.100177657e-09
1.150463929e-09
1.19991576e-09
1.238326518e-09
1.266443842e-09
1.31078334e-09
1.377083561e-09
1.443775224e-09
1.47035978e-09
1.402745945e-09
9.606862087e-10
5.975496195e-10
6.276191272e-10
6.584538177e-10
6.754937413e-10
)


101
(
-3.780509372e-14
-1.406969097e-12
-7.064359989e-12
-1.861642683e-11
-3.557151796e-11
-5.70073202e-11
-8.353584199e-11
-1.165125394e-10
-1.569804823e-10
-2.065481934e-10
-2.670405364e-10
-3.398903547e-10
-4.258876443e-10
-5.259734096e-10
-6.396131411e-10
-7.640323228e-10
-8.958019514e-10
-1.033031391e-09
-1.168099448e-09
-1.296772895e-09
-1.416899945e-09
-1.518345101e-09
-1.597682911e-09
-1.65411806e-09
-1.683797689e-09
-1.685126789e-09
-1.658672245e-09
-1.605588117e-09
-1.528814852e-09
-1.432299297e-09
-1.320115021e-09
-1.197656881e-09
-1.065306038e-09
-9.294469554e-10
-7.968546938e-10
-6.678055219e-10
-5.451721842e-10
-4.288984011e-10
-3.179081498e-10
-2.127621877e-10
-1.157706001e-10
-2.964364278e-11
4.172734099e-11
9.502175825e-11
1.315156799e-10
1.557943091e-10
1.743196274e-10
1.928135267e-10
2.137771262e-10
2.365747009e-10
2.589947463e-10
2.793289429e-10
2.968215796e-10
3.118741036e-10
3.255975996e-10
3.387942688e-10
3.512843443e-10
3.634480649e-10
3.758089756e-10
3.882519864e-10
4.010278389e-10
4.144490068e-10
4.287221683e-10
4.439919046e-10
4.604187568e-10
4.780173313e-10
4.969099258e-10
5.172303026e-10
5.38642091e-10
5.613472633e-10
5.856094679e-10
6.113472334e-10
6.386717733e-10
6.673726219e-10
6.972526366e-10
7.285338208e-10
7.618845227e-10
7.971078566e-10
8.335848913e-10
8.714247136e-10
9.113147733e-10
9.515867856e-10
9.854005362e-10
1.00694437e-09
1.023478157e-09
1.051768973e-09
1.094993035e-09
1.143021119e-09
1.19034669e-09
1.229884071e-09
1.257873768e-09
1.29600144e-09
1.356505544e-09
1.421426636e-09
1.449518821e-09
1.391907805e-09
9.985563555e-10
6.79118654e-10
7.266083941e-10
7.726489825e-10
7.910135422e-10
)


101
(
-2.193083692e-14
-1.335016613e-12
-6.78796252e-12
-1.79529234e-11
-3.435774556e-11
-5.50992506e-11
-8.068866225e-11
-1.123919793e-10
-1.511969433e-10
-1.98591485e-10
-2.563037021e-10
-3.257662241e-10
-4.077528734e-10
-5.032332559e-10
-6.119920162e-10
-7.316494743e-10
-8.590891956e-10
-9.927961338e-10
-1.125764757e-09
-1.254049013e-09
-1.375705726e-09
-1.48098677e-09
-1.56646532e-09
-1.631134647e-09
-1.670859851e-09
-1.683577056e-09
-1.66924933e-09
-1.628358589e-09
-1.563195687e-09
-1.477143336e-09
-1.373826118e-09
-1.258357441e-09
-1.130652522e-09
-9.970946012e-10
-8.646815948e-10
-7.337527026e-10
-6.078270683e-10
-4.876957161e-10
-3.728678853e-10
-2.637998579e-10
-1.617965196e-10
-6.808393003e-11
1.399348856e-11
7.990669659e-11
1.285625456e-10
1.620977548e-10
1.857976538e-10
2.061318043e-10
2.276179578e-10
2.514243042e-10
2.761226346e-10
2.998079668e-10
3.20834541e-10
3.389173097e-10
3.549971776e-10
3.701544517e-10
3.843006054e-10
3.97849511e-10
4.113945616e-10
4.248081581e-10
4.382543088e-10
4.519754675e-10
4.66377938e-10
4.816462599e-10
4.978757349e-10
5.150279383e-10
5.333551464e-10
5.529758941e-10
5.736714895e-10
5.955441e-10
6.186525765e-10
6.428628762e-10
6.683850186e-10
6.953321893e-10
7.235247017e-10
7.530271001e-10
7.843125958e-10
8.170389013e-10
8.509220962e-10
8.860083305e-10
9.227590743e-10
9.606757601e-10
9.953397221e-10
1.020072375e-09
1.035166734e-09
1.055172147e-09
1.090946564e-09
1.135402062e-09
1.179838779e-09
1.218174079e-09
1.245511721e-09
1.277799497e-09
1.330942273e-09
1.392018137e-09
1.420828547e-09
1.375207798e-09
1.044721756e-09
7.831042017e-10
8.493737073e-10
9.16627469e-10
9.426645845e-10
)


101
(
-6.972361574e-15
-1.265505944e-12
-6.518770349e-12
-1.730487263e-11
-3.317112812e-11
-5.323446723e-11
-7.791307191e-11
-1.083850581e-10
-1.45584345e-10
-1.908842639e-10
-2.459154621e-10
-3.120979457e-10
-3.901906755e-10
-4.811740517e-10
-5.850933827e-10
-6.99935176e-10
-8.228920139e-10
-9.527780171e-10
-1.083172701e-09
-1.210444302e-09
-1.332859087e-09
-1.441073225e-09
-1.531717681e-09
-1.603650128e-09
-1.652539931e-09
-1.675937191e-09
-1.673274414e-09
-1.644416482e-09
-1.591024188e-09
-1.515901576e-09
-1.422188726e-09
-1.31467461e-09
-1.192778532e-09
-1.062811628e-09
-9.318929123e-10
-8.00282614e-10
-6.719140387e-10
-5.482430143e-10
-4.295019586e-10
-3.165676817e-10
-2.103369e-10
-1.107078795e-10
-1.989919621e-11
5.742326643e-11
1.186606863e-10
1.634782719e-10
1.950402185e-10
2.193401787e-10
2.42192045e-10
2.667529606e-10
2.93101865e-10
3.197797935e-10
3.444908591e-10
3.661205361e-10
3.851836279e-10
4.027674221e-10
4.189574778e-10
4.341818528e-10
4.491779521e-10
4.639602905e-10
4.784896882e-10
4.928337181e-10
5.076540209e-10
5.232659853e-10
5.39510154e-10
5.564901575e-10
5.744275574e-10
5.93556326e-10
6.137659332e-10
6.348848199e-10
6.570936451e-10
6.801053756e-10
7.040159496e-10
7.29117563e-10
7.5540284e-10
7.831445913e-10
8.124300208e-10
8.426669165e-10
8.738958808e-10
9.059584701e-10
9.393397615e-10
9.741441622e-10
1.007467138e-09
1.033652715e-09
1.049013949e-09
1.062870473e-09
1.08968233e-09
1.1284492e-09
1.169356264e-09
1.204411654e-09
1.230166217e-09
1.256188156e-09
1.300237858e-09
1.355948717e-09
1.384571402e-09
1.350994557e-09
1.098502504e-09
9.115373331e-10
9.943650417e-10
1.088847879e-09
1.132743942e-09
)


101
(
7.088276196e-15
-1.198401791e-12
-6.25669813e-12
-1.667209642e-11
-3.201130707e-11
-5.141223384e-11
-7.520742108e-11
-1.044890189e-10
-1.401385921e-10
-1.834209007e-10
-2.358691708e-10
-2.988800999e-10
-3.731981843e-10
-4.598008134e-10
-5.589425605e-10
-6.689438208e-10
-7.872982989e-10
-9.131104131e-10
-1.040511458e-09
-1.16619827e-09
-1.28864922e-09
-1.398935941e-09
-1.493790812e-09
-1.572001437e-09
-1.629122624e-09
-1.662402419e-09
-1.670818974e-09
-1.653681136e-09
-1.612049883e-09
-1.548148212e-09
-1.464612031e-09
-1.365878131e-09
-1.250836239e-09
-1.125663683e-09
-9.975277393e-10
-8.665093508e-10
-7.367642194e-10
-6.101829046e-10
-4.876680381e-10
-3.708017272e-10
-2.606554045e-10
-1.562527281e-10
-5.853452234e-11
2.847070018e-11
1.016482337e-10
1.587385699e-10
2.004903504e-10
2.313119179e-10
2.571710392e-10
2.829261692e-10
3.105404549e-10
3.396211132e-10
3.678509939e-10
3.93393379e-10
4.160213053e-10
4.365879231e-10
4.553042669e-10
4.726032058e-10
4.893558142e-10
5.057436872e-10
5.217703017e-10
5.372800743e-10
5.529423972e-10
5.691954146e-10
5.857082486e-10
6.027474759e-10
6.206246955e-10
6.39583773e-10
6.594248612e-10
6.7996356e-10
7.015286781e-10
7.236152545e-10
7.462750296e-10
7.697564197e-10
7.939258321e-10
8.195708535e-10
8.468496542e-10
8.749456591e-10
9.034698957e-10
9.32240038e-10
9.621875176e-10
9.932231959e-10
1.023663527e-09
1.049584388e-09
1.065199782e-09
1.074565767e-09
1.092379609e-09
1.123310146e-09
1.159258593e-09
1.189383206e-09
1.212137111e-09
1.23181068e-09
1.265100849e-09
1.313330894e-09
1.34036722e-09
1.318128577e-09
1.159909825e-09
1.06356143e-09
1.149523376e-09
1.232839094e-09
1.268490913e-09
)


101
(
2.026915186e-14
-1.133668685e-12
-6.001660834e-12
-1.605441949e-11
-3.087793397e-11
-4.96318386e-11
-7.25701082e-11
-1.007011385e-10
-1.348555789e-10
-1.761956465e-10
-2.261578445e-10
-2.861063882e-10
-3.567709743e-10
-4.391155201e-10
-5.335592741e-10
-6.387223075e-10
-7.523873218e-10
-8.739164563e-10
-9.979573699e-10
-1.121539234e-09
-1.243356595e-09
-1.354902823e-09
-1.453043176e-09
-1.536548504e-09
-1.600931192e-09
-1.643222302e-09
-1.662023483e-09
-1.656150245e-09
-1.626104899e-09
-1.573545358e-09
-1.500592631e-09
-1.411303484e-09
-1.304020791e-09
-1.184731112e-09
-1.060584666e-09
-9.314263098e-10
-8.015018415e-10
-6.729130983e-10
-5.470497524e-10
-4.262989118e-10
-3.122962565e-10
-2.036893695e-10
-1.004460707e-10
-5.623899419e-12
7.809240042e-11
1.474232244e-10
2.00925254e-10
2.407157756e-10
2.718196837e-10
3.000171884e-10
3.290101765e-10
3.599553811e-10
3.913020747e-10
4.208187808e-10
4.473945233e-10
4.715758904e-10
4.934606876e-10
5.133105569e-10
5.321580903e-10
5.505053326e-10
5.684275216e-10
5.856213403e-10
6.026518217e-10
6.197676147e-10
6.370153863e-10
6.545735578e-10
6.72495955e-10
6.914609318e-10
7.111944406e-10
7.315609053e-10
7.527217027e-10
7.74112953e-10
7.958808893e-10
8.180248684e-10
8.402755464e-10
8.63399283e-10
8.88534925e-10
9.145477737e-10
9.403140767e-10
9.660592322e-10
9.922737488e-10
1.018809997e-09
1.045326637e-09
1.06905593e-09
1.084077236e-09
1.090199839e-09
1.099450545e-09
1.12079701e-09
1.149799676e-09
1.173710858e-09
1.191423662e-09
1.204297066e-09
1.225814075e-09
1.263791034e-09
1.288099999e-09
1.277664054e-09
1.222613936e-09
1.223264946e-09
1.293969834e-09
1.359427989e-09
1.397159515e-09
)


101
(
3.258856718e-14
-1.071269371e-12
-5.753572399e-12
-1.545166743e-11
-2.977066441e-11
-4.789258522e-11
-6.999956737e-11
-9.701872141e-11
-1.297311889e-10
-1.692026165e-10
-2.167741429e-10
-2.737696695e-10
-3.409031583e-10
-4.191173542e-10
-5.089577501e-10
-6.093099837e-10
-7.182296581e-10
-8.353076311e-10
-9.556739058e-10
-1.07668394e-09
-1.197250457e-09
-1.30929574e-09
-1.409837166e-09
-1.497669918e-09
-1.568326667e-09
-1.618699069e-09
-1.647092436e-09
-1.65189614e-09
-1.633103216e-09
-1.591840035e-09
-1.529714325e-09
-1.45036763e-09
-1.351590082e-09
-1.239134168e-09
-1.120069018e-09
-9.939741255e-10
-8.65104279e-10
-7.356097598e-10
-6.071449881e-10
-4.827782223e-10
-3.649034092e-10
-2.52294006e-10
-1.443904972e-10
-4.331764468e-11
4.921624376e-11
1.298412133e-10
1.956160574e-10
2.463315039e-10
2.851685617e-10
3.17691752e-10
3.488458186e-10
3.815208083e-10
4.15498126e-10
4.488012584e-10
4.795620286e-10
5.07848453e-10
5.334838714e-10
5.565252469e-10
5.780245811e-10
5.986735011e-10
6.188110087e-10
6.382083915e-10
6.571590594e-10