/*--------------------------------*- C++ -*----------------------------------*\
| =========                 |                                                 |
| \\      /  F ield         | OpenFOAM: The Open Source CFD Toolbox           |
|  \\    /   O peration     | Version:  2.3.1                                 |
|   \\  /    A nd           | Web:      www.OpenFOAM.org                      |
|    \\/     M anipulation  |                                                 |
\*---------------------------------------------------------------------------*/
FoamFile
{
    version     2.0;
    format      ascii;
    class       dictionary;
    location    "constant";
    object      DPSI22;
}
// * * * * * * * * * * * * * * * * * * * * * * * * * * * * * * * * * * * * * //

DPSI22_table
101
(

101
(
-3.497449474e-10
-2.185203859e-09
-7.794160537e-09
-1.574960876e-08
-2.346543889e-08
-2.96624364e-08
-3.435019761e-08
-3.760948054e-08
-3.949029008e-08
-4.029390332e-08
-4.020984629e-08
-3.942441638e-08
-3.803692762e-08
-3.616754752e-08
-3.397096546e-08
-3.149419061e-08
-2.875335226e-08
-2.599602595e-08
-2.308780557e-08
-2.012823141e-08
-1.741280208e-08
-1.461602946e-08
-1.185740689e-08
-9.349727308e-09
-7.017802608e-09
-4.848246589e-09
-2.864409957e-09
-1.046760896e-09
5.993220859e-10
2.062043822e-09
3.352587212e-09
4.436890656e-09
5.502198285e-09
6.471191896e-09
7.224948284e-09
7.929380675e-09
8.550356304e-09
9.03476412e-09
9.468458642e-09
9.888329619e-09
1.021516331e-08
1.049471942e-08
1.075043105e-08
1.095401262e-08
1.112763663e-08
1.12758948e-08
1.13957762e-08
1.149252291e-08
1.156570296e-08
1.161894488e-08
1.165313145e-08
1.167147989e-08
1.167515271e-08
1.166621247e-08
1.164604285e-08
1.161166993e-08
1.15702137e-08
1.152071095e-08
1.146206021e-08
1.139828948e-08
1.132808918e-08
1.125503802e-08
1.117711122e-08
1.109596802e-08
1.101256254e-08
1.092784997e-08
1.084315986e-08
1.075595378e-08
1.06697261e-08
1.058566019e-08
1.05017497e-08
1.041778086e-08
1.033884214e-08
1.027767942e-08
1.020976816e-08
1.011498176e-08
1.00301556e-08
9.968015118e-09
9.912759882e-09
9.862989146e-09
9.816049624e-09
9.77701795e-09
9.754641054e-09
9.716080825e-09
9.668084817e-09
9.644648187e-09
9.633376907e-09
9.629737402e-09
9.644057297e-09
9.637101222e-09
9.622052793e-09
9.643178864e-09
9.658881862e-09
9.672204421e-09
9.67590999e-09
9.670033024e-09
4.839500412e-09
-5.46793909e-18
2.504775505e-26
1.176689456e-27
-5.560839545e-26
)


101
(
-3.272764931e-10
-2.114694256e-09
-7.592811554e-09
-1.539523599e-08
-2.300721326e-08
-2.916634747e-08
-3.385284549e-08
-3.715118444e-08
-3.910985913e-08
-4.000755028e-08
-4.003289991e-08
-3.936615371e-08
-3.810333716e-08
-3.636051102e-08
-3.428546403e-08
-3.192551696e-08
-2.93004841e-08
-2.662566313e-08
-2.381265176e-08
-2.092578725e-08
-1.822684394e-08
-1.549032204e-08
-1.276666946e-08
-1.023738457e-08
-7.882151435e-09
-5.683322089e-09
-3.65486131e-09
-1.788369677e-09
-8.396600433e-11
1.448237315e-09
2.812292521e-09
3.9883517e-09
5.079160429e-09
6.096355081e-09
6.954013313e-09
7.711130536e-09
8.390470669e-09
8.957307488e-09
9.44212933e-09
9.893099619e-09
1.028777609e-08
1.06192005e-08
1.091001495e-08
1.11649268e-08
1.13795267e-08
1.156418455e-08
1.172094796e-08
1.185199427e-08
1.195941861e-08
1.204525957e-08
1.211172146e-08
1.215872428e-08
1.21902723e-08
1.220799799e-08
1.221289538e-08
1.220075691e-08
1.218201829e-08
1.21538524e-08
1.211423798e-08
1.206855622e-08
1.201506123e-08
1.195750217e-08
1.189394582e-08
1.182579473e-08
1.175432842e-08
1.168049023e-08
1.160526019e-08
1.152707847e-08
1.144850433e-08
1.137071338e-08
1.1292736e-08
1.121452361e-08
1.113922807e-08
1.107383735e-08
1.101256119e-08
1.093901084e-08
1.085833859e-08
1.078686147e-08
1.072684743e-08
1.067559295e-08
1.062887815e-08
1.058814965e-08
1.05588595e-08
1.053298105e-08
1.049910675e-08
1.046609385e-08
1.044683555e-08
1.044062631e-08
1.044580468e-08
1.045728953e-08
1.045858681e-08
1.046145493e-08
1.048370435e-08
1.050612708e-08
1.051943582e-08
1.052006547e-08
5.117275145e-09
-3.033564145e-10
-3.026194456e-10
-3.01509212e-10
-3.153301438e-10
)


101
(
-3.05445069e-10
-2.045374486e-09
-7.393805398e-09
-1.50436078e-08
-2.255037447e-08
-2.866904059e-08
-3.335193474e-08
-3.668566546e-08
-3.871808631e-08
-3.97065554e-08
-3.983781817e-08
-3.92866338e-08
-3.81457436e-08
-3.652735948e-08
-3.457296789e-08
-3.232935557e-08
-2.98194947e-08
-2.723311294e-08
-2.451290094e-08
-2.170435219e-08
-1.903533744e-08
-1.635120533e-08
-1.366970095e-08
-1.113627673e-08
-8.762724312e-09
-6.539166855e-09
-4.473539933e-09
-2.562837199e-09
-8.061283073e-10
7.889616097e-10
2.2223471e-09
3.481520676e-09
4.619323635e-09
5.677952696e-09
6.61470037e-09
7.437972591e-09
8.175822377e-09
8.813288141e-09
9.358031695e-09
9.849618934e-09
1.029718132e-08
1.068233999e-08
1.101517138e-08
1.131489748e-08
1.157260981e-08
1.17957635e-08
1.198919822e-08
1.215502395e-08
1.229629724e-08
1.24148288e-08
1.251328541e-08
1.259025111e-08
1.265026111e-08
1.269522583e-08
1.272588069e-08
1.273729515e-08
1.274131949e-08
1.273519087e-08
1.271590721e-08
1.268927138e-08
1.265349242e-08
1.261243945e-08
1.256429521e-08
1.251039545e-08
1.245193561e-08
1.238991984e-08
1.232533509e-08
1.22569522e-08
1.218713046e-08
1.211677231e-08
1.204531202e-08
1.197322122e-08
1.190290587e-08
1.183826808e-08
1.177900745e-08
1.171639549e-08
1.164650156e-08
1.157653339e-08
1.151232815e-08
1.145707966e-08
1.140899497e-08
1.136746216e-08
1.133394258e-08
1.130837788e-08
1.128493238e-08
1.125730973e-08
1.123167998e-08
1.121957248e-08
1.122068252e-08
1.123142187e-08
1.12450628e-08
1.125235008e-08
1.126719915e-08
1.129793842e-08
1.131690452e-08
1.13131044e-08
5.357686098e-09
-6.296197712e-10
-6.167998092e-10
-6.036053221e-10
-6.282773834e-10
)


101
(
-2.842493304e-10
-1.977248707e-09
-7.197163039e-09
-1.469478101e-08
-2.209503407e-08
-2.817067215e-08
-3.284762805e-08
-3.621319049e-08
-3.831526229e-08
-3.939116909e-08
-3.962486352e-08
-3.918607059e-08
-3.816429029e-08
-3.666810962e-08
-3.483325845e-08
-3.270534104e-08
-3.030992057e-08
-2.781661819e-08
-2.518829475e-08
-2.246182431e-08
-1.983451113e-08
-1.719939502e-08
-1.456373227e-08
-1.204063833e-08
-9.656650713e-09
-7.413394425e-09
-5.317226138e-09
-3.367659859e-09
-1.564343865e-09
8.708858349e-11
1.584699584e-09
2.919681959e-09
4.115640135e-09
5.218199021e-09
6.216949367e-09
7.106286193e-09
7.904997367e-09
8.606658941e-09
9.213392012e-09
9.753480807e-09
1.024927711e-08
1.068532659e-08
1.106333711e-08
1.140632756e-08
1.170669873e-08
1.196968819e-08
1.220046452e-08
1.240151758e-08
1.257659175e-08
1.272774894e-08
1.285796882e-08
1.296535019e-08
1.305429195e-08
1.31269221e-08
1.318400779e-08
1.321998934e-08
1.324730298e-08
1.326367e-08
1.326557111e-08
1.325890451e-08
1.324181688e-08
1.321828482e-08
1.318647886e-08
1.314771675e-08
1.31032529e-08
1.305419009e-08
1.300138898e-08
1.294377207e-08
1.288385181e-08
1.282214671e-08
1.275826e-08
1.269308725e-08
1.262883898e-08
1.256788072e-08
1.251071757e-08
1.245353376e-08
1.239263663e-08
1.233010043e-08
1.226760202e-08
1.22092586e-08
1.21580004e-08
1.211535109e-08
1.208037333e-08
1.205237979e-08
1.20305827e-08
1.201062282e-08
1.198734245e-08
1.196865081e-08
1.196368977e-08
1.197303862e-08
1.198874365e-08
1.200369379e-08
1.201922284e-08
1.204685586e-08
1.206853699e-08
1.206036211e-08
5.557395054e-09
-9.846770613e-10
-9.579112954e-10
-9.308337309e-10
-9.647297385e-10
)


101
(
-2.636878504e-10
-1.91032095e-09
-7.002905381e-09
-1.434881286e-08
-2.16413041e-08
-2.76713994e-08
-3.234009019e-08
-3.573402422e-08
-3.790168391e-08
-3.906165137e-08
-3.939430619e-08
-3.9064693e-08
-3.815914038e-08
-3.678280758e-08
-3.506616199e-08
-3.305314358e-08
-3.077133244e-08
-2.837465085e-08
-2.583827027e-08
-2.31964892e-08
-2.062088937e-08
-1.803459078e-08
-1.544678327e-08
-1.294544659e-08
-1.056022366e-08
-8.303254443e-09
-6.182777792e-09
-4.199963541e-09
-2.355625037e-09
-6.54223677e-10
9.018648136e-10
2.305820368e-09
3.564623787e-09
4.716321776e-09
5.769974222e-09
6.71869575e-09
7.575883013e-09
8.339875518e-09
9.007904893e-09
9.601024583e-09
1.014554559e-08
1.063036724e-08
1.105430308e-08
1.144036387e-08
1.178261477e-08
1.20857378e-08
1.235447747e-08
1.259132843e-08
1.280046887e-08
1.298429193e-08
1.314610731e-08
1.328397581e-08
1.340220316e-08
1.350285979e-08
1.358663796e-08
1.364791619e-08
1.369928514e-08
1.373858593e-08
1.376221978e-08
1.377620796e-08
1.377868495e-08
1.377360305e-08
1.375908987e-08
1.373643093e-08
1.370686513e-08
1.367169464e-08
1.363186186e-08
1.358611371e-08
1.353710206e-08
1.348511265e-08
1.342987542e-08
1.337268638e-08
1.331568321e-08
1.326057919e-08
1.320728346e-08
1.315394241e-08
1.309922577e-08
1.304498715e-08
1.298903449e-08
1.293183117e-08
1.287781757e-08
1.283292302e-08
1.279738991e-08
1.276851395e-08
1.274527876e-08
1.272771614e-08
1.271048618e-08
1.269169393e-08
1.267978393e-08
1.268571632e-08
1.270006176e-08
1.27165502e-08
1.273510649e-08
1.276051428e-08
1.27819171e-08
1.277373271e-08
5.723553843e-09
-1.374432631e-09
-1.333242627e-09
-1.293224949e-09
-1.336754572e-09
)


101
(
-2.437589983e-10
-1.844595093e-09
-6.811053258e-09
-1.400576061e-08
-2.118929698e-08
-2.717138086e-08
-3.182948813e-08
-3.524842922e-08
-3.747765336e-08
-3.87182717e-08
-3.914642404e-08
-3.89227439e-08
-3.813047567e-08
-3.687152657e-08
-3.527154831e-08
-3.337246933e-08
-3.120333299e-08
-2.890588381e-08
-2.646206714e-08
-2.39068773e-08
-2.139131488e-08
-1.885575836e-08
-1.631725601e-08
-1.384645316e-08
-1.146936172e-08
-9.205551554e-09
-7.067004185e-09
-5.056676433e-09
-3.176848874e-09
-1.431557466e-09
1.768983369e-10
1.643039371e-09
2.965151095e-09
4.170294594e-09
5.27562582e-09
6.27941905e-09
7.192304387e-09
8.014685332e-09
8.742440088e-09
9.390920026e-09
9.985755319e-09
1.051889507e-08
1.098883565e-08
1.141796201e-08
1.180148544e-08
1.214449239e-08
1.24515657e-08
1.272487735e-08
1.296852112e-08
1.318511295e-08
1.337838385e-08
1.35466262e-08
1.36942645e-08
1.382329909e-08
1.393415771e-08
1.402106065e-08
1.409691384e-08
1.415973583e-08
1.420566243e-08
1.42407371e-08
1.426341786e-08
1.427757593e-08
1.428114921e-08
1.427555518e-08
1.426190315e-08
1.424152463e-08
1.421548788e-08
1.418251007e-08
1.414560636e-08
1.410464275e-08
1.405908711e-08
1.401078289e-08
1.39619772e-08
1.391426867e-08
1.3866929e-08
1.381846833e-08
1.37686307e-08
1.372110761e-08
1.367353043e-08
1.362233073e-08
1.356920587e-08
1.352213494e-08
1.348542606e-08
1.345683269e-08
1.34331855e-08
1.341572068e-08
1.340184574e-08
1.338683475e-08
1.337164772e-08
1.337265449e-08
1.338507916e-08
1.340021623e-08
1.341962706e-08
1.344308948e-08
1.34617484e-08
1.345223392e-08
5.85208971e-09
-1.801591752e-09
-1.725916608e-09
-1.651292954e-09
-1.699606786e-09
)


101
(
-2.244610299e-10
-1.78007494e-09
-6.621627561e-09
-1.366568182e-08
-2.073912593e-08
-2.667077673e-08
-3.131599159e-08
-3.475666665e-08
-3.704347807e-08
-3.836130961e-08
-3.888150382e-08
-3.876048112e-08
-3.807849824e-08
-3.693436833e-08
-3.544933073e-08
-3.366306662e-08
-3.160556353e-08
-2.940917094e-08
-2.705880824e-08
-2.459167741e-08
-2.2142972e-08
-1.966136182e-08
-1.717366181e-08
-1.474009308e-08
-1.237994876e-08
-1.011673922e-08
-7.966583938e-09
-5.934589935e-09
-4.024791945e-09
-2.24148936e-09
-5.867605794e-10
9.348155929e-10
2.317881316e-09
3.578976495e-09
4.735600106e-09
5.791514602e-09
6.757077728e-09
7.634138695e-09
8.418875032e-09
9.122970573e-09
9.769487177e-09
1.035151977e-08
1.086787691e-08
1.134029625e-08
1.176480426e-08
1.214728041e-08
1.249267743e-08
1.280294285e-08
1.308169133e-08
1.333151955e-08
1.355638476e-08
1.375489747e-08
1.393190945e-08
1.408958189e-08
1.422796684e-08
1.43408684e-08
1.444156539e-08
1.452822474e-08
1.459687919e-08
1.46537424e-08
1.469722747e-08
1.473120142e-08
1.475342549e-08
1.476549581e-08
1.476866902e-08
1.476395482e-08
1.475245624e-08
1.473300635e-08
1.470879661e-08
1.467986296e-08
1.464537626e-08
1.460698636e-08
1.456710242e-08
1.452761408e-08
1.448764806e-08
1.444570658e-08
1.440117759e-08
1.435920579e-08
1.431934794e-08
1.427662756e-08
1.42291055e-08
1.418261721e-08
1.414468588e-08
1.41165455e-08
1.409360671e-08
1.407671297e-08
1.406481917e-08
1.405427168e-08
1.403955552e-08
1.403647197e-08
1.404539314e-08
1.405867117e-08
1.407855737e-08
1.409886993e-08
1.411027979e-08
1.409680667e-08
5.958565736e-09
-2.237233359e-09
-2.12506028e-09
-2.0176323e-09
-2.072089605e-09
)


101
(
-2.05792073e-10
-1.716764052e-09
-6.43464882e-09
-1.332863365e-08
-2.029090404e-08
-2.616974793e-08
-3.079977191e-08
-3.425899531e-08
-3.659946923e-08
-3.799105376e-08
-3.85998406e-08
-3.857817627e-08
-3.800342973e-08
-3.697146279e-08
-3.559946503e-08
-3.392472763e-08
-3.197770693e-08
-2.988353392e-08
-2.762757189e-08
-2.524967752e-08
-2.287336018e-08
-2.04495744e-08
-1.801450846e-08
-1.562336662e-08
-1.328805632e-08
-1.103305569e-08
-8.878011952e-09
-6.830368461e-09
-4.896145247e-09
-3.080492407e-09
-1.385441164e-09
1.849446184e-10
1.62478006e-09
2.942106165e-09
4.150584765e-09
5.257332078e-09
6.273174069e-09
7.201606189e-09
8.04008404e-09
8.798409164e-09
9.496966536e-09
1.012876176e-08
1.069246581e-08
1.12089017e-08
1.167469613e-08
1.209648647e-08
1.247997201e-08
1.282742728e-08
1.314203364e-08
1.342596228e-08
1.36830005e-08
1.39121311e-08
1.411877874e-08
1.430526172e-08
1.447159532e-08
1.461131246e-08
1.473743328e-08
1.484827305e-08
1.493993425e-08
1.501875922e-08
1.508348381e-08
1.513789415e-08
1.517951783e-08
1.520981209e-08
1.523024825e-08
1.524170981e-08
1.524538924e-08
1.524008669e-08
1.522893286e-08
1.521247507e-08
1.518949969e-08
1.516157822e-08
1.513114251e-08
1.510034408e-08
1.506834601e-08
1.503386583e-08
1.499573209e-08
1.495936998e-08
1.492590101e-08
1.489097908e-08
1.485148804e-08
1.480990927e-08
1.477264689e-08
1.474484819e-08
1.472334436e-08
1.470775481e-08
1.469763318e-08
1.469127193e-08
1.467997992e-08
1.467610532e-08
1.46809543e-08
1.469107836e-08
1.471151827e-08
1.472823884e-08
1.473175081e-08
1.471279668e-08
6.049496799e-09
-2.669432686e-09
-2.506242979e-09
-2.353212258e-09
-2.411381145e-09
)


101
(
-1.877500636e-10
-1.654665923e-09
-6.25013778e-09
-1.299467385e-08
-1.984474556e-08
-2.566845757e-08
-3.028100364e-08
-3.375567317e-08
-3.614594242e-08
-3.760780265e-08
-3.830173851e-08
-3.837611465e-08
-3.79055107e-08
-3.698296713e-08
-3.572194842e-08
-3.415728754e-08
-3.231948763e-08
-3.032813606e-08
-2.816743875e-08
-2.587974334e-08
-2.358023679e-08
-2.121839663e-08
-1.883821216e-08
-1.649365725e-08
-1.419001798e-08
-1.195065475e-08
-9.797607417e-09
-7.74050599e-09
-5.787484313e-09
-3.94499761e-09
-2.215370217e-09
-6.025645755e-10
8.888578732e-10
2.260633341e-09
3.521028501e-09
4.678324466e-09
5.743147626e-09
6.720553834e-09
7.609702668e-09
8.419954047e-09
9.169938002e-09
9.852006776e-09
1.046408885e-08
1.102579488e-08
1.153397437e-08
1.199571399e-08
1.24175351e-08
1.280256432e-08
1.315379512e-08
1.347270722e-08
1.376298599e-08
1.40237874e-08
1.426042307e-08
1.447604065e-08
1.467117422e-08
1.483833011e-08
1.499034675e-08
1.512607948e-08
1.524132228e-08
1.534236487e-08
1.542840174e-08
1.550299054e-08
1.556408599e-08
1.561321091e-08
1.565156026e-08
1.567995199e-08
1.569882968e-08
1.57073079e-08
1.570853358e-08
1.570405104e-08
1.569288778e-08
1.567648129e-08
1.565646916e-08
1.563381598e-08
1.560928278e-08
1.558240093e-08
1.555096541e-08
1.552043914e-08
1.549245806e-08
1.546417817e-08
1.543265309e-08
1.539855012e-08
1.536497365e-08
1.533823885e-08
1.531776127e-08
1.530427728e-08
1.529642545e-08
1.529333043e-08
1.528699011e-08
1.528509077e-08
1.528660629e-08
1.529444549e-08
1.53159835e-08
1.532885307e-08
1.53221795e-08
1.528873238e-08
6.129781833e-09
-3.074186305e-09
-2.852275069e-09
-2.643294242e-09
-2.700358537e-09
)


101
(
-1.703327511e-10
-1.593783775e-09
-6.06811473e-09
-1.266385955e-08
-1.940076437e-08
-2.51670693e-08
-2.975986297e-08
-3.324695593e-08
-3.56832156e-08
-3.721186326e-08
-3.798751028e-08
-3.815459491e-08
-3.778500072e-08
-3.696906515e-08
-3.581681828e-08
-3.436062571e-08
-3.263067206e-08
-3.074227295e-08
-2.867751915e-08
-2.648079911e-08
-2.426161353e-08
-2.196576812e-08
-1.964306476e-08
-1.734861321e-08
-1.508246597e-08
-1.286571036e-08
-1.072156747e-08
-8.661372374e-09
-6.695309227e-09
-4.831444433e-09
-3.072765189e-09
-1.423604621e-09
1.137588437e-10
1.536604269e-09
2.847867234e-09
4.055741648e-09
5.169346541e-09
6.194515951e-09
7.132057826e-09
7.991725938e-09
8.791506871e-09
9.523787932e-09
1.018542812e-08
1.079409312e-08
1.134647209e-08
1.184961519e-08
1.231075176e-08
1.273391456e-08
1.312230152e-08
1.347730103e-08
1.380235221e-08
1.409609808e-08
1.436360398e-08
1.460870569e-08
1.483231335e-08
1.502746396e-08
1.520589026e-08
1.536675031e-08
1.550645212e-08
1.562983973e-08
1.57370964e-08
1.583189868e-08
1.59120714e-08
1.597959678e-08
1.603543908e-08
1.608075403e-08
1.611503631e-08
1.613724667e-08
1.615135478e-08
1.615869491e-08
1.615876544e-08
1.615261134e-08
1.61421706e-08
1.612872459e-08
1.611216456e-08
1.609208425e-08
1.606682819e-08
1.604296454e-08
1.602038809e-08
1.599633124e-08
1.597173517e-08
1.594581746e-08
1.591871167e-08
1.589461478e-08
1.58744315e-08
1.586395837e-08
1.585853365e-08
1.585781413e-08
1.58562949e-08
1.585847262e-08
1.585904796e-08
1.586466491e-08
1.588682982e-08
1.589628859e-08
1.587593083e-08
1.582373104e-08
6.205561082e-09
-3.446485134e-09
-3.169763154e-09
-2.904514636e-09
-2.956438762e-09
)


101
(
-1.535377973e-10
-1.534120794e-09
-5.888600289e-09
-1.233624882e-08
-1.895907601e-08
-2.466574958e-08
-2.923653014e-08
-3.27330995e-08
-3.521161036e-08
-3.680355224e-08
-3.765747885e-08
-3.791392989e-08
-3.764217901e-08
-3.692996798e-08
-3.588415144e-08
-3.453466583e-08
-3.291106944e-08
-3.11253566e-08
-2.915698866e-08
-2.70518311e-08
-2.491569103e-08
-2.268961316e-08
-2.042725115e-08
-1.81860493e-08
-1.59623168e-08
-1.377450463e-08
-1.164600513e-08
-9.589185954e-09
-7.615986926e-09
-5.736198753e-09
-3.953840179e-09
-2.274064165e-09
-6.964052662e-10
7.732089302e-10
2.133083881e-09
3.391114991e-09
4.55388928e-09
5.62678536e-09
6.611605439e-09
7.518805423e-09
8.366539982e-09
9.148329421e-09
9.86027455e-09
1.051759469e-08
1.111639866e-08
1.166291199e-08
1.216454476e-08
1.26263773e-08
1.30524716e-08
1.344446431e-08
1.380541715e-08
1.413339946e-08
1.443284497e-08
1.470714452e-08
1.495894102e-08
1.51827066e-08
1.538803994e-08
1.557408254e-08
1.573812959e-08
1.58840032e-08
1.601185879e-08
1.612673044e-08
1.622587031e-08
1.631055679e-08
1.638274948e-08
1.644518476e-08
1.649583874e-08
1.653241459e-08
1.655916003e-08
1.657713121e-08
1.658745657e-08
1.659188624e-08
1.659139953e-08
1.658667388e-08
1.657724116e-08
1.656352896e-08
1.654485023e-08
1.652722603e-08
1.651027248e-08
1.649057843e-08
1.647107672e-08
1.645194774e-08
1.643241769e-08
1.641335565e-08
1.639353046e-08
1.638500456e-08
1.638319471e-08
1.638483113e-08
1.638811064e-08
1.63954115e-08
1.639574299e-08
1.639979599e-08
1.642266635e-08
1.642985312e-08
1.639042562e-08
1.630687957e-08
6.272424709e-09
-3.781108711e-09
-3.469335653e-09
-3.186970156e-09
-3.257248677e-09
)


101
(
-1.373625873e-10
-1.475679842e-09
-5.711614568e-09
-1.2011899e-08
-1.85197955e-08
-2.416466525e-08
-2.871118695e-08
-3.221435781e-08
-3.473144952e-08
-3.638319371e-08
-3.731197559e-08
-3.765444498e-08
-3.747734307e-08
-3.68659127e-08
-3.592406277e-08
-3.467937564e-08
-3.316053429e-08
-3.147689978e-08
-2.960509595e-08
-2.759189849e-08
-2.554086175e-08
-2.338791292e-08
-2.11888666e-08
-1.900386724e-08
-1.682676476e-08
-1.467353814e-08
-1.256706564e-08
-1.052004924e-08
-8.545726728e-09
-6.655507495e-09
-4.854677732e-09
-3.149693117e-09
-1.53715208e-09
-2.545241454e-11
1.379808091e-09
2.686725117e-09
3.898953764e-09
5.020363268e-09
6.052647626e-09
7.006563067e-09
7.900708844e-09
8.730669346e-09
9.492835407e-09
1.019998464e-08
1.084710197e-08
1.143890061e-08
1.198234125e-08
1.248354401e-08
1.294773674e-08
1.337696722e-08
1.377406931e-08
1.413700419e-08
1.446922487e-08
1.477331343e-08
1.505399243e-08
1.530552745e-08
1.553697819e-08
1.574803987e-08
1.593635255e-08
1.61055741e-08
1.625400326e-08
1.6387994e-08
1.650532751e-08
1.660733113e-08
1.669577104e-08
1.677326395e-08
1.683989833e-08
1.689213533e-08
1.693207308e-08
1.696113737e-08
1.698116886e-08
1.699516972e-08
1.700405793e-08
1.700807694e-08
1.700615751e-08
1.699916853e-08
1.698693763e-08
1.697447237e-08
1.696302619e-08
1.694916257e-08
1.693377806e-08
1.691974102e-08
1.690779768e-08
1.689485756e-08
1.687646191e-08
1.686918884e-08
1.687215262e-08
1.687753374e-08
1.688247052e-08
1.689503141e-08
1.689825877e-08
1.689989784e-08
1.692303622e-08
1.692943226e-08
1.686832899e-08
1.674450263e-08
6.318211514e-09
-4.106029266e-09
-3.755999461e-09
-3.434568847e-09
-3.502890447e-09
)


101
(
-1.218043354e-10
-1.418463615e-09
-5.537177653e-09
-1.169086767e-08
-1.808303864e-08
-2.366398506e-08
-2.818401845e-08
-3.169098454e-08
-3.424305814e-08
-3.595112014e-08
-3.695134132e-08
-3.737647829e-08
-3.729080829e-08
-3.677716165e-08
-3.593670413e-08
-3.479476613e-08
-3.337896098e-08
-3.17965107e-08
-3.002117115e-08
-2.810012702e-08
-2.613570459e-08
-2.405877431e-08
-2.192599211e-08
-1.980005863e-08
-1.767327845e-08
-1.555956812e-08
-1.348096095e-08
-1.144994417e-08
-9.480529571e-09
-7.585433138e-09
-5.771204746e-09
-4.045988101e-09
-2.403626176e-09
-8.546133967e-10
5.921911819e-10
1.945761402e-09
3.206991305e-09
4.377786103e-09
5.458782424e-09
6.459741123e-09
7.399222185e-09
8.275638465e-09
9.08681194e-09
9.843703939e-09
1.054016029e-08
1.117903862e-08
1.176598835e-08
1.230736225e-08
1.280970175e-08
1.327588524e-08
1.370881377e-08
1.410673641e-08
1.447230074e-08
1.480733083e-08
1.511644589e-08
1.539500856e-08
1.565225478e-08
1.588798453e-08
1.610036022e-08
1.62928515e-08
1.646259781e-08
1.661583701e-08
1.67510281e-08
1.686934207e-08
1.697421081e-08
1.706697165e-08
1.714785149e-08
1.72154425e-08
1.726946145e-08
1.731043065e-08
1.734088948e-08
1.736364708e-08
1.738090199e-08
1.739384329e-08
1.740066637e-08
1.740098824e-08
1.739403437e-08
1.738717574e-08
1.738155271e-08
1.737266293e-08
1.736183621e-08
1.735230319e-08
1.734626113e-08
1.734093018e-08
1.732691477e-08
1.731946462e-08
1.73254525e-08
1.73364802e-08
1.734295309e-08
1.7359377e-08
1.736750314e-08
1.736852186e-08
1.739010714e-08
1.739500369e-08
1.730974744e-08
1.713736417e-08
6.346257261e-09
-4.418948105e-09
-4.041133095e-09
-3.700129979e-09
-3.778063794e-09
)


101
(
-1.068600826e-10
-1.362474583e-09
-5.365309452e-09
-1.137321243e-08
-1.76489217e-08
-2.316387926e-08
-2.765521256e-08
-3.1163233e-08
-3.374676277e-08
-3.550767158e-08
-3.657592613e-08
-3.708038017e-08
-3.708290791e-08
-3.666400268e-08
-3.592226402e-08
-3.488089024e-08
-3.356628272e-08
-3.208387227e-08
-3.040463378e-08
-2.857573352e-08
-2.669895367e-08
-2.470044379e-08
-2.263672378e-08
-2.057261083e-08
-1.849944959e-08
-1.642956917e-08
-1.438407302e-08
-1.237485782e-08
-1.041624838e-08
-8.521845538e-09
-6.69924302e-09
-4.958462552e-09
-3.290852275e-09
-1.709087165e-09
-2.249691818e-10
1.17210688e-09
2.480851568e-09
3.701344379e-09
4.832487841e-09
5.881610325e-09
6.866113778e-09
7.787302318e-09
8.645359932e-09
9.450477745e-09
1.019598949e-08
1.088295771e-08
1.151504938e-08
1.209785437e-08
1.263879771e-08
1.314125632e-08
1.360885079e-08
1.404153169e-08
1.44407683e-08
1.48070103e-08
1.514439158e-08
1.545031235e-08
1.573352373e-08
1.599354955e-08
1.622943939e-08
1.644485974e-08
1.663626182e-08
1.68087286e-08
1.696221231e-08
1.709775765e-08
1.721837703e-08
1.732540119e-08
1.742036867e-08
1.750195635e-08
1.757059244e-08
1.762526781e-08
1.766695083e-08
1.769888385e-08
1.772373204e-08
1.774470135e-08
1.776014553e-08
1.776912179e-08
1.776918484e-08
1.776709443e-08
1.77665887e-08
1.776342206e-08
1.775772046e-08
1.775214006e-08
1.775035969e-08
1.775277348e-08
1.774558411e-08
1.773897814e-08
1.774615174e-08
1.776276615e-08
1.777270426e-08
1.779198447e-08
1.780433164e-08
1.780630997e-08
1.782684656e-08
1.782931617e-08
1.771631889e-08
1.749010688e-08
6.354483531e-09
-4.729253377e-09
-4.330924701e-09
-3.968676619e-09
-4.047532252e-09
)


101
(
-9.252659792e-11
-1.307714943e-09
-5.196029585e-09
-1.105899059e-08
-1.721756104e-08
-2.266451932e-08
-2.71249598e-08
-3.063135606e-08
-3.324289098e-08
-3.505319468e-08
-3.618608861e-08
-3.676651276e-08
-3.685399167e-08
-3.652674737e-08
-3.588096622e-08
-3.493784437e-08
-3.372247665e-08
-3.233874199e-08
-3.075498141e-08
-2.90180101e-08
-2.722949593e-08
-2.53113122e-08
-2.331919398e-08
-2.131952455e-08
-1.93029719e-08
-1.728070265e-08
-1.527296673e-08
-1.329087989e-08
-1.134871229e-08
-9.460489859e-09
-7.63449984e-09
-5.882660397e-09
-4.194075252e-09
-2.58381961e-09
-1.066633218e-09
3.701774633e-10
1.723822187e-09
2.993150104e-09
4.175215599e-09
5.273821954e-09
6.303826938e-09
7.268721275e-09
8.171195598e-09
9.02177744e-09
9.81470296e-09
1.054960401e-08
1.122773666e-08
1.185330618e-08
1.243348493e-08
1.297199262e-08
1.347375351e-08
1.394054697e-08
1.437305435e-08
1.47708521e-08
1.513743233e-08
1.547056351e-08
1.577959662e-08
1.606346132e-08
1.632213931e-08
1.656064279e-08
1.677410742e-08
1.696598722e-08
1.713802637e-08
1.729174683e-08
1.742812936e-08
1.754967952e-08
1.765798921e-08
1.775305826e-08
1.783639655e-08
1.790452654e-08
1.795861214e-08
1.800129938e-08
1.803450916e-08
1.806270968e-08
1.808574066e-08
1.810397351e-08
1.811212379e-08
1.811567685e-08
1.812065768e-08
1.812242941e-08
1.812182257e-08
1.812132186e-08
1.812362503e-08
1.813141326e-08
1.813190012e-08
1.813017521e-08
1.813781847e-08
1.815797261e-08
1.817330298e-08
1.819541314e-08
1.821188195e-08
1.821407153e-08
1.823327161e-08
1.823465359e-08
1.809102684e-08
1.780267823e-08
6.335731457e-09
-5.046793736e-09
-4.628838291e-09
-4.229507583e-09
-4.291203692e-09
)


101
(
-7.880044881e-11
-1.254186713e-09
-5.029357721e-09
-1.074825987e-08
-1.678907403e-08
-2.216607898e-08
-2.659345454e-08
-3.00956076e-08
-3.273177229e-08
-3.458804296e-08
-3.578219684e-08
-3.643525047e-08
-3.660442516e-08
-3.636572957e-08
-3.58130673e-08
-3.496576962e-08
-3.384756781e-08
-3.256095423e-08
-3.107181708e-08
-2.942634613e-08
-2.772633622e-08
-2.588988127e-08
-2.397157579e-08
-2.20388191e-08
-2.008161319e-08
-1.811028064e-08
-1.614439265e-08
-1.419422633e-08
-1.227375824e-08
-1.039702061e-08
-8.57260616e-09
-6.814232478e-09
-5.108772255e-09
-3.474031682e-09
-1.927964939e-09
-4.555718594e-10
9.393655751e-10
2.255302194e-09
3.487839131e-09
4.636840383e-09
5.713217138e-09
6.721351419e-09
7.666283404e-09
8.559442461e-09
9.396992218e-09
1.017809894e-08
1.090228762e-08
1.157158339e-08
1.21917029e-08
1.276701286e-08
1.330308201e-08
1.380281191e-08
1.426787219e-08
1.46975429e-08
1.509391309e-08
1.545458301e-08
1.57895295e-08
1.609735213e-08
1.637840597e-08
1.663883085e-08
1.687458858e-08
1.708743977e-08
1.727886197e-08
1.74508987e-08
1.760337195e-08
1.773967239e-08
1.786184299e-08
1.797040116e-08
1.806717075e-08
1.814861144e-08
1.821596317e-08
1.827057438e-08
1.831372647e-08
1.834986374e-08
1.837921211e-08
1.840517625e-08
1.842205407e-08
1.843380171e-08
1.84448656e-08
1.845115075e-08
1.845611691e-08
1.846046145e-08
1.846722569e-08
1.848059399e-08
1.848762223e-08
1.849196635e-08
1.850211498e-08
1.852428917e-08
1.854457514e-08
1.857069824e-08
1.859140299e-08
1.859456033e-08
1.861173634e-08
1.861214453e-08
1.843504884e-08
1.807603956e-08
6.292323994e-09
-5.37097225e-09
-4.94044463e-09
-4.555315053e-09
-4.646660494e-09
)


101
(
-6.567798587e-11
-1.201891683e-09
-4.865313408e-09
-1.044107813e-08
-1.636357875e-08
-2.166873395e-08
-2.606089468e-08
-2.955624243e-08
-3.221373762e-08
-3.411257628e-08
-3.536462771e-08
-3.608697956e-08
-3.633458946e-08
-3.618130467e-08
-3.571885598e-08
-3.496484942e-08
-3.394163067e-08
-3.27504092e-08
-3.135483046e-08
-2.980022556e-08
-2.818860928e-08
-2.643480301e-08
-2.459212477e-08
-2.272853362e-08
-2.083320002e-08
-1.891576535e-08
-1.699530414e-08
-1.508126981e-08
-1.318726934e-08
-1.13271158e-08
-9.509284168e-09
-7.748996316e-09
-6.030802188e-09
-4.375448942e-09
-2.804486975e-09
-1.300758643e-09
1.311273228e-10
1.490080317e-09
2.771206973e-09
3.970335839e-09
5.093712494e-09
6.145630938e-09
7.131987017e-09
8.064824524e-09
8.943668071e-09
9.768608933e-09
1.053794901e-08
1.125096591e-08
1.191167224e-08
1.252494868e-08
1.309597544e-08
1.362796254e-08
1.412476859e-08
1.458595692e-08
1.50118868e-08
1.540099674e-08
1.57628686e-08
1.60948509e-08
1.639796059e-08
1.668007774e-08
1.693802591e-08
1.717264279e-08
1.738449395e-08
1.757440681e-08
1.774425858e-08
1.789675062e-08
1.80322831e-08
1.815373469e-08
1.826347363e-08
1.835865281e-08
1.843948339e-08
1.85067526e-08
1.856135115e-08
1.860651313e-08
1.864269509e-08
1.867443189e-08
1.869958154e-08
1.872061968e-08
1.873889623e-08
1.875165347e-08
1.876186439e-08
1.877006594e-08
1.878179905e-08
1.880067301e-08
1.881394079e-08
1.882538926e-08
1.883951757e-08
1.886320771e-08
1.888724342e-08
1.89192058e-08
1.894369848e-08
1.894851315e-08
1.89641003e-08
1.896216269e-08
1.875015936e-08
1.831639941e-08
6.22397094e-09
-5.709883269e-09
-5.267603174e-09
-4.862958857e-09
-4.947538525e-09
)


101
(
-5.315523482e-11
-1.15083083e-09
-4.703915231e-09
-1.013750207e-08
-1.594119174e-08
-2.117265933e-08
-2.552747882e-08
-2.901351354e-08
-3.168911666e-08
-3.362715792e-08
-3.493376416e-08
-3.572209583e-08
-3.60448798e-08
-3.597384873e-08
-3.559865255e-08
-3.493530818e-08
-3.400478237e-08
-3.290706569e-08
-3.160378328e-08
-3.013921065e-08
-2.861558059e-08
-2.694490109e-08
-2.517923206e-08
-2.338678108e-08
-2.155563251e-08
-1.969475265e-08
-1.782283551e-08
-1.594857967e-08
-1.408527424e-08
-1.224652328e-08
-1.044036268e-08
-8.682980437e-09
-6.956376949e-09
-5.284332218e-09
-3.69229862e-09
-2.16137875e-09
-6.97163615e-10
7.001406322e-10
2.02617984e-09
3.273815285e-09
4.444449974e-09
5.540860679e-09
6.568520725e-09
7.539333912e-09
8.45637555e-09
9.321928763e-09
1.013422654e-08
1.089051953e-08
1.159255424e-08
1.224453543e-08
1.285119827e-08
1.341581136e-08
1.394380122e-08
1.443598793e-08
1.489151569e-08
1.530925776e-08
1.569840462e-08
1.605558617e-08
1.638156812e-08
1.668493793e-08
1.69643815e-08
1.722120528e-08
1.745432338e-08
1.766292771e-08
1.785081039e-08
1.801971813e-08
1.816961247e-08
1.830441636e-08