/*--------------------------------*- C++ -*----------------------------------*\
| =========                 |                                                 |
| \\      /  F ield         | OpenFOAM: The Open Source CFD Toolbox           |
|  \\    /   O peration     | Version:  2.3.1                                 |
|   \\  /    A nd           | Web:      www.OpenFOAM.org                      |
|    \\/     M anipulation  |                                                 |
\*---------------------------------------------------------------------------*/
FoamFile
{
    version     2.0;
    format      ascii;
    class       dictionary;
    location    "constant";
    object      drealra;
}
// * * * * * * * * * * * * * * * * * * * * * * * * * * * * * * * * * * * * * //

drealra_table
101
(

101
(
1112.920248
1113.733568
1114.501892
1115.226913
1115.905216
1116.536717
1117.123082
1117.661957
1118.155809
1118.605409
1119.011925
1119.375925
1119.699146
1119.980143
1120.220741
1120.421801
1120.583328
1120.704874
1120.791418
1120.837832
1120.850421
1120.830451
1120.77549
1120.689008
1120.572988
1120.42856
1120.25698
1120.059674
1119.837134
1119.590862
1119.321737
1119.031265
1118.72239
1118.389216
1118.038002
1117.668553
1117.282031
1116.879983
1116.461499
1116.02608
1115.575074
1115.11154
1114.63368
1114.142721
1113.640266
1113.125363
1112.599512
1112.062145
1111.514452
1110.956169
1110.388416
1109.811252
1109.225098
1108.630409
1108.027649
1107.417155
1106.798266
1106.172905
1105.540049
1104.900796
1104.254924
1103.603023
1102.945353
1102.282024
1101.613379
1100.939572
1100.260951
1099.577739
1098.889961
1098.198073
1097.502157
1096.802429
1096.098906
1095.392117
1094.682265
1093.969624
1093.253944
1092.535583
1091.81484
1091.091891
1090.366897
1089.639789
1088.910972
1088.180463
1087.448506
1086.715233
1085.980774
1085.245246
1084.508762
1083.771419
1083.033399
1082.29478
1081.55564
1080.816097
1080.076233
1079.336137
1078.598913
1083.990961
1090.341053
1097.525632
1105.427523
)


101
(
1112.921762
1113.777193
1114.585946
1115.352791
1116.075301
1116.753504
1117.388634
1117.979366
1118.527028
1119.032716
1119.497371
1119.921746
1120.306918
1120.653189
1120.960525
1121.230284
1121.463207
1121.659399
1121.819366
1121.946653
1122.037803
1122.097695
1122.128567
1122.12787
1122.098181
1122.041653
1121.959389
1121.852373
1121.722275
1121.569097
1121.394286
1121.198287
1120.981046
1120.752342
1120.49908
1120.228625
1119.941302
1119.637109
1119.31941
1118.989317
1118.643912
1118.280699
1117.907873
1117.5221
1117.122365
1116.713531
1116.292326
1115.862297
1115.420993
1114.971068
1114.510515
1114.041378
1113.563599
1113.077247
1112.5825
1112.079988
1111.572504
1111.054397
1110.531871
1110.001326
1109.465348
1108.922663
1108.373871
1107.819718
1107.259928
1106.694979
1106.124564
1105.549082
1104.969347
1104.384282
1103.794931
1103.201238
1102.603976
1102.001825
1101.395291
1100.784106
1100.169954
1099.551825
1098.929338
1098.302928
1097.672627
1097.039311
1096.401701
1095.760563
1095.115048
1094.465666
1093.812205
1093.155059
1092.493836
1091.829485
1091.159889
1090.487324
1089.811216
1089.131446
1088.448748
1087.773082
1087.113287
1093.808118
1101.295573
1109.457381
1118.188256
)


101
(
1112.923277
1113.820866
1114.67016
1115.478948
1116.245797
1116.970872
1117.655002
1118.297843
1118.89971
1119.461953
1119.985343
1120.470795
1120.91883
1121.331228
1121.706564
1122.046417
1122.35221
1122.624638
1122.860689
1123.070126
1123.243281
1123.386171
1123.505137
1123.594168
1123.655148
1123.690947
1123.702812
1123.691433
1123.659213
1123.605418
1123.531527
1123.437353
1123.320589
1123.200376
1123.055555
1122.893625
1122.715527
1122.520273
1122.313341
1122.098046
1121.869788
1121.621717
1121.365763
1121.098616
1120.817044
1120.528095
1120.227422
1119.919764
1119.601703
1119.276591
1118.941445
1118.598564
1118.248039
1117.889707
1117.523439
1117.149849
1116.773555
1116.386242
1115.995605
1115.597359
1115.194507
1114.785438
1114.370502
1113.950694
1113.525677
1113.095872
1112.660721
1112.220479
1111.776308
1111.326615
1110.872506
1110.413809
1109.951612
1109.484079
1109.011389
1108.532846
1108.050484
1107.563326
1107.070178
1106.571462
1106.066989
1105.557881
1105.042419
1104.521189
1103.992807
1103.457749
1102.914946
1102.365198
1101.807585
1101.244073
1100.670374
1100.090761
1099.50336
1098.908619
1098.307742
1097.723468
1097.172226
1104.934232
1113.336151
1122.265998
1131.631906
)


101
(
1112.924792
1113.864587
1114.754537
1115.605385
1116.416705
1117.188821
1117.92218
1118.617379
1119.27383
1119.893082
1120.475778
1121.022983
1121.534747
1122.014102
1122.458607
1122.869877
1123.249938
1123.600091
1123.914592
1124.2076
1124.465632
1124.694532
1124.903877
1125.085952
1125.241524
1125.373744
1125.4841
1125.573147
1125.64375
1125.694854
1125.727805
1125.741946
1125.733292
1125.726448
1125.697581
1125.652641
1125.592582
1125.51584
1125.428876
1125.336863
1125.235019
1125.113703
1124.985667
1124.848305
1124.697373
1124.540541
1124.373279
1124.200851
1124.019568
1123.833001
1123.637754
1123.436047
1123.228034
1123.013485
1122.792046
1122.564191
1122.335429
1122.096547
1121.855493
1121.607736
1121.356426
1121.099801
1120.838036
1120.572127
1120.301776
1120.027298
1119.747993
1119.463927
1119.176345
1118.883418
1118.586243
1118.284398
1117.979037
1117.668167
1117.351742
1117.028718
1116.700932
1116.367536
1116.026668
1115.678589
1115.322815
1114.960452
1114.589603
1114.210569
1113.82151
1113.422979
1113.012835
1112.591883
1112.158608
1111.716294
1111.258315
1110.79141
1110.31198
1109.820768
1109.320185
1108.847304
1108.427442
1117.04477
1126.163474
1135.678337
1145.511463
)


101
(
1112.926307
1113.908357
1114.839076
1115.732104
1116.588028
1117.40735
1118.190163
1118.937964
1119.649365
1120.326065
1120.968617
1121.578222
1122.154539
1122.701654
1123.21641
1123.700348
1124.156001
1124.585271
1124.980333
1125.358394
1125.703748
1126.021463
1126.323463
1126.601437
1126.855078
1127.08746
1127.300263
1127.494015
1127.671895
1127.832751
1127.977783
1128.105949
1128.212
1128.323609
1128.416593
1128.495671
1128.561198
1128.611154
1128.652354
1128.691259
1128.723527
1128.738048
1128.747367
1128.749214
1128.739002
1128.724558
1128.701262
1128.674691
1128.641096
1128.604178
1128.56032
1128.511634
1128.458217
1128.399806
1128.335917
1128.266872
1128.198569
1128.121454
1128.04357
1127.960143
1127.874371
1127.784368
1127.690189
1127.592747
1127.491778
1127.387483
1127.279066
1127.166412
1127.050714
1126.929952
1126.805249
1126.675889
1126.542952
1126.404357
1126.259895
1126.108255
1125.950927
1125.787196
1125.614558
1125.433104
1125.241898
1125.041883
1124.831084
1124.609495
1124.374868
1124.127901
1123.865396
1123.588194
1123.293621
1122.986425
1122.657752
1122.317056
1121.959087
1121.584347
1121.196897
1120.849501
1120.57652
1129.861703
1139.524294
1149.465868
1159.622436
)


101
(
1112.927822
1113.952176
1114.923778
1115.859106
1116.759765
1117.626459
1118.458948
1119.25959
1120.026293
1120.760865
1121.4638
1122.136426
1122.778079
1123.393728
1123.979741
1124.537523
1125.070019
1125.579708
1126.057215
1126.521816
1126.95661
1127.365697
1127.762572
1128.138957
1128.493717
1128.82963
1129.148451
1129.45073
1129.739869
1130.014736
1130.276435
1130.523614
1130.750047
1130.985026
1131.204804
1131.413559
1131.610985
1131.794519
1131.970973
1132.147549
1132.320466
1132.478006
1132.632352
1132.781202
1132.919825
1133.056101
1133.185292
1133.31315
1133.435908
1133.557385
1133.673849
1133.787324
1133.8978
1134.004944
1134.108188
1134.207733
1134.309624
1134.404114
1134.499334
1134.590307
1134.680207
1134.767016
1134.850681
1134.931992
1135.010696
1135.08687
1135.159661
1135.2288
1135.295362
1135.357116
1135.415218
1135.468662
1135.518396
1135.562265
1135.599918
1135.6298
1135.652969
1135.66891
1135.674525
1135.669746
1135.653132
1135.625244
1135.584072
1135.52931
1135.458354
1135.372113
1135.266361
1135.142035
1134.99532
1134.831928
1134.640947
1134.434791
1134.206585
1133.956799
1133.690649
1133.477751
1133.361172
1143.150422
1153.207307
1163.439695
1173.797204
)


101
(
1112.929337
1113.996043
1115.008645
1115.986394
1116.93192
1117.846148
1118.728531
1119.582247
1120.404591
1121.197444
1121.96127
1122.697511
1123.405242
1124.09017
1124.748376
1125.381104
1125.991619
1126.582944
1127.144579
1127.69717
1128.223264
1128.726022
1129.219893
1129.696936
1130.155478
1130.597914
1131.025955
1131.44016
1131.844092
1132.236694
1132.619037
1132.989536
1133.341213
1133.704094
1134.054969
1134.398004
1134.732433
1135.055171
1135.372818
1135.692883
1136.012001
1136.31831
1136.623755
1136.925843
1137.21972
1137.513281
1137.80165
1138.090639
1138.376451
1138.662991
1138.946487
1139.228912
1139.510128
1139.789705
1140.06699
1140.342078
1140.621033
1140.893985
1141.169111
1141.441297
1141.713658
1141.98404
1142.252273
1142.518994
1142.78393
1143.047003
1143.307338
1143.564549
1143.819579
1144.069976
1144.316888
1144.559026
1144.797178
1145.029146
1145.254448
1145.471304
1145.680268
1145.881045
1146.070002
1146.246979
1146.410058
1146.559313
1146.692584
1146.809269
1146.906449
1146.985298
1147.040655
1147.073625
1147.07933
1147.064195
1147.015168
1146.947697
1146.853456
1146.733128
1146.592635
1146.518956
1146.563451
1156.714853
1167.037518
1177.445229
1187.900329
)


101
(
1112.930852
1114.03996
1115.093677
1116.113968
1117.104493
1118.066416
1118.998906
1119.905926
1120.784237
1121.635769
1122.46097
1123.261395
1124.035907
1124.79083
1125.522099
1126.230799
1126.920441
1127.594537
1128.241804
1128.883767
1129.502812
1130.101286
1130.694145
1131.273873
1131.838517
1132.390102
1132.930198
1133.459336
1133.981177
1134.494754
1135.001154
1135.49864
1135.979671
1136.474489
1136.960254
1137.44136
1137.916853
1138.383262
1138.846898
1139.315279
1139.785232
1140.244916
1140.706176
1141.166319
1141.620363
1142.076186
1142.528784
1142.983938
1143.437771
1143.894223
1144.349517
1144.805619
1145.262289
1145.71897
1146.174906
1146.630093
1147.090526
1147.54623
1148.005392
1148.462822
1148.921567
1149.379347
1149.83587
1150.291591
1150.746189
1151.199381
1151.650278
1152.098409
1152.54462
1152.986248
1153.424395
1153.857477
1154.2861
1154.708044
1155.12272
1155.528161
1155.92437
1156.311249
1156.684674
1157.044469
1157.388292
1157.715743
1158.024429
1158.313388
1158.579403
1158.823937
1159.040924
1159.231823
1159.390733
1159.524898
1159.618694
1159.690791
1159.731459
1159.741869
1159.728409
1159.794856
1160.00138
1170.393129
1180.872026
1191.357064
1201.822454
)


101
(
1112.932367
1114.083927
1115.178877
1116.241832
1117.277487
1118.287264
1119.27007
1120.230619
1121.165211
1122.075803
1122.962844
1123.827998
1124.669957
1125.495558
1126.300701
1127.08633
1127.856131
1128.614057
1129.348301
1130.080932
1130.794396
1131.490395
1132.184075
1132.868322
1133.541091
1134.2041
1134.858731
1135.505437
1136.14791
1136.785261
1137.418622
1138.046174
1138.659973
1139.290195
1139.914158
1140.536501
1141.156269
1141.769787
1142.383114
1143.003627
1143.62814
1144.244823
1144.865481
1145.48726
1146.105054
1146.726704
1147.347103
1147.971946
1148.59724
1149.22688
1149.857069
1150.489786
1151.124739
1151.761265
1152.398478
1153.036259
1153.680479
1154.32107
1154.966157
1155.610517
1156.257131
1156.903631
1157.549612
1158.19534
1158.840414
1159.484297
1160.126046
1160.76513
1161.402334
1162.034855
1162.663726
1163.287038
1163.905174
1164.515917
1165.118595
1165.7111
1166.292892
1166.864031
1167.41992
1167.960411
1168.48283
1168.98632
1169.46826
1169.927259
1170.35982
1170.767703
1171.143913
1171.490447
1171.800414
1172.082047
1172.316971
1172.526916
1172.700932
1172.840751
1172.953344
1173.158614
1173.524506
1184.052527
1194.594559
1205.073946
1215.47591
)


101
(
1112.933883
1114.127944
1115.264244
1116.369987
1117.450903
1118.508693
1119.542021
1120.556319
1121.547494
1122.517514
1123.46684
1124.397239
1125.307276
1126.204207
1127.083981
1127.947424
1128.798348
1129.641085
1130.463512
1131.288008
1132.0972
1132.892311
1133.688473
1134.478892
1135.261547
1136.037937
1136.80924
1137.575788
1138.341249
1139.10477
1139.867531
1140.627687
1141.377032
1142.145536
1142.910507
1143.676723
1144.443299
1145.206502
1145.97224
1146.747712
1147.529592
1148.306002
1149.088659
1149.874584
1150.658564
1151.448371
1152.238835
1153.03554
1153.834355
1154.639069
1155.445828
1156.256589
1157.071034
1157.888446
1158.70783
1159.528932
1160.35745
1161.183237
1162.014267
1162.845298
1163.679247
1164.513691
1165.348138
1166.182689
1167.016867
1167.849835
1168.680532
1169.508341
1170.334001
1171.154649
1171.971301
1172.781713
1173.586016
1174.381961
1175.1688
1175.944338
1176.70755
1177.458648
1178.192523
1178.909081
1179.605434
1180.280311
1180.930873
1181.555245
1182.149702
1182.716316
1183.247137
1183.744708
1184.201409
1184.626385
1184.998743
1185.342803
1185.64668
1185.912635
1186.148431
1186.488951
1187.009226
1197.584837
1208.110968
1218.514397
1228.790378
)


101
(
1112.935398
1114.172011
1115.34978
1116.498435
1117.624744
1118.730701
1119.814753
1120.883017
1121.931066
1122.960866
1123.972902
1124.969042
1125.947751
1126.916633
1127.871741
1128.813817
1129.746757
1130.675214
1131.586901
1132.504355
1133.410441
1134.306042
1135.206165
1136.104236
1136.998308
1137.889742
1138.779525
1139.667849
1140.558297
1141.45001
1142.344195
1143.23901
1144.126096
1145.035169
1145.943438
1146.855678
1147.771039
1148.685802
1149.605817
1150.538154
1151.479313
1152.417318
1153.363698
1154.315348
1155.266948
1156.226169
1157.187813
1158.157363
1159.130546
1160.110982
1161.094734
1162.083692
1163.077496
1164.075393
1165.076341
1166.07996
1167.091735
1168.101462
1169.116883
1170.132723
1171.151816
1172.171709
1173.191846
1174.212203
1175.232264
1176.250895
1177.266847
1178.279349
1179.28907
1180.293153
1181.292668
1182.285091
1183.270263
1184.245887
1185.211116
1186.163707
1187.102182
1188.02696
1188.932456
1189.81854
1190.682173
1191.521838
1192.334485
1193.117717
1193.867538
1194.586482
1195.265651
1195.907944
1196.505349
1197.067859
1197.572423
1198.045317
1198.474085
1198.861456
1199.216129
1199.686662
1200.354669
1210.902183
1221.345087
1231.61278
1241.71039
)


101
(
1112.936913
1114.21613
1115.435486
1116.627179
1117.799012
1118.953291
1120.088265
1121.210705
1122.315907
1123.405829
1124.480981
1125.543331
1126.591274
1127.632694
1128.663791
1129.685255
1130.701034
1131.716048
1132.717958
1133.729357
1134.733369
1135.730652
1136.736029
1137.743056
1138.74987
1139.757746
1140.767514
1141.779215
1142.796313
1143.817891
1144.845143
1145.876236
1146.902742
1147.954108
1149.00743
1150.067359
1151.132996
1152.200622
1153.276079
1154.366376
1155.467874
1156.568503
1157.679524
1158.797648
1159.917437
1161.046418
1162.179371
1163.321686
1164.469002
1165.624725
1166.784806
1167.951006
1169.122902
1170.299703
1171.480337
1172.664345
1173.857005
1175.048079
1176.245016
1177.442474
1178.643165
1179.844615
1181.04622
1182.24786
1183.44903
1184.648346
1185.844384
1187.036113
1188.224067
1189.405391
1190.581272
1191.749009
1192.908196
1194.056461
1195.192816
1196.314961
1197.421002
1198.511616
1199.58085
1200.628481
1201.651259
1202.64758
1203.614314
1204.5485
1205.445797
1206.309215
1207.12919
1207.908682
1208.639399
1209.332443
1209.962669
1210.558055
1211.105643
1211.608665
1212.076795
1212.670922
1213.478555
1223.933346
1234.235458
1244.315996
1254.188761
)


101
(
1112.938428
1114.260299
1115.521364
1116.75622
1117.973708
1119.176463
1120.362553
1121.539377
1122.702002
1123.85237
1124.991026
1126.120031
1127.237738
1128.352253
1129.459948
1130.561492
1131.660864
1132.763203
1133.856194
1134.96242
1136.065263
1137.165247
1138.276989
1139.394102
1140.514787
1141.640266
1142.77124
1143.907609
1145.052693
1146.205476
1147.367092
1148.535694
1149.702832
1150.897695
1152.097295
1153.306087
1154.523033
1155.74435
1156.975843
1158.224501
1159.486632
1160.75013
1162.025942
1163.310535
1164.598314
1165.896605
1167.200162
1168.514274
1169.834521
1171.16412
1172.498896
1173.840436
1175.188195
1176.541321
1177.898725
1179.259898
1180.629927
1181.998603
1183.373037
1184.747806
1186.125435
1187.50342
1188.881108
1190.258298
1191.634546
1193.008271
1194.377935
1195.742231
1197.101451
1198.452684
1199.797237
1201.132324
1202.457397
1203.770035
1205.069074
1206.352111
1207.616872
1208.864302
1210.088161
1211.288216
1212.460943
1213.604625
1214.716272
1215.792462
1216.82837
1217.827322
1218.77951
1219.687845
1220.543591
1221.359157
1222.107636
1222.81831
1223.477805
1224.089952
1224.665307
1225.375838
1226.313863
1236.620186
1246.73178
1256.580728
1266.189317
)


101
(
1112.939944
1114.30452
1115.607414
1116.88556
1118.148836
1119.400218
1120.637614
1121.869025
1123.089331
1124.300459
1125.502988
1126.699072
1127.88704
1129.075174
1130.260031
1131.442289
1132.625944
1133.816304
1135.001138
1136.20297
1137.405433
1138.608977
1139.828017
1141.056173
1142.291673
1143.535699
1144.788843
1146.050878
1147.324972
1148.609982
1149.906932
1151.213924
1152.522507
1153.861595
1155.20819
1156.566525
1157.935356
1159.310756
1160.69841
1162.105279
1163.527679
1164.953561
1166.393578
1167.843938
1169.298821
1170.765281
1172.238017
1173.722187
1175.213361
1176.714576
1178.221546
1179.735662
1181.256222
1182.782264
1184.312656
1185.846871
1187.389803
1188.931341
1190.47827
1192.025079
1193.574048
1195.122625
1196.670087
1198.216142
1199.760418
1201.301224
1202.836977
1204.366136
1205.888711
1207.401624
1208.906255
1210.399764
1211.88157
1213.3493
1214.801635
1216.236036
1217.649794
1219.044122
1220.412598
1221.755043
1223.067692
1224.348626
1225.595109
1226.803474
1227.96841
1229.093271
1230.168219
1231.196336
1232.168296
1233.097585
1233.956209
1234.774394
1235.538326
1236.252498
1236.928237
1237.747219
1238.805696
1248.915219
1258.792819
1268.371406
1277.68012
)


101
(
1112.941459
1114.348793
1115.693638
1117.015203
1118.324398
1119.624556
1120.913447
1122.199644
1123.47788
1124.750065
1126.01682
1127.280383
1128.539077
1129.801323
1131.063867
1132.327416
1133.595976
1134.874988
1136.152336
1137.450456
1138.753216
1140.061032
1141.388134
1142.728118
1144.079202
1145.442517
1146.81856
1148.206988
1149.610818
1151.028768
1152.461715
1153.907659
1155.358136
1156.841772
1158.335611
1159.843681
1161.364511
1162.893966
1164.437509
1166.001985
1167.583748
1169.170904
1170.773863
1172.388619
1174.009084
1175.641943
1177.281811
1178.933668
1180.59306
1182.262897
1183.938819
1185.621994
1187.311539
1189.006361
1190.705235
1192.407604
1194.118192
1195.827037
1197.54062
1199.253364
1200.967275
1202.679715
1204.389882
1206.097361
1207.801846
1209.501573
1211.194983
1212.880409
1214.557576
1216.223203
1217.878624
1219.520926
1221.149531
1222.762236
1224.357669
1225.933175
1227.48556
1229.016236
1230.518623
1231.99271
1233.434637
1234.842158
1236.212743
1237.542729
1238.82652
1240.067216
1241.254872
1242.393118
1243.472039
1244.505823
1245.465972
1246.383399
1247.243907
1248.052618
1248.821475
1249.740443
1250.908957
1260.779335
1270.384656
1279.658271
1288.634226
)


101
(
1112.942975
1114.393119
1115.780037
1117.14515
1118.500397
1119.84948
1121.190049
1122.531226
1123.867632
1125.201161
1126.532475
1127.863894
1129.193752
1130.530571
1131.871284
1133.216649
1134.570675
1135.938901
1137.309351
1138.704345
1140.107972
1141.52064
1142.956406
1144.408833
1145.876095
1147.359255
1148.85871
1150.374009
1151.908024
1153.459334
1155.02864
1156.613803
1158.206309
1159.834448
1161.475366
1163.132908
1164.805391
1166.488447
1168.187223
1169.908333
1171.648131
1173.394922
1175.158958
1176.9361
1178.720025
1180.516958
1182.321345
1184.137949
1185.962287
1187.797124
1189.63808
1191.486139
1193.340206
1195.199025
1197.061256
1198.926261
1200.798598
1202.668507
1204.54219
1206.414054
1208.285827
1210.154732
1212.019877
1213.880709
1215.736975
1217.586826
1219.428777
1221.261114
1223.083367
1224.892073
1226.688417
1228.469367
1230.234282
1231.981202
1233.708835
1235.414535
1237.094643
1238.75064
1240.37573
1241.970167
1243.530078
1245.053063
1246.536628
1247.977141
1249.36903
1250.715152
1252.005145
1253.243378
1254.419669
1255.548479
1256.601164
1257.609268
1258.558106
1259.453604
1260.308033
1261.318109
1262.585846
1272.179432
1281.4779
1290.415047
1299.031126
)


101
(
1112.94449
1114.437497
1115.866612
1117.275404
1118.676835
1120.07499
1121.467418
1122.863765
1124.25857
1125.653717
1127.049907
1128.449539
1129.850967
1131.262788
1132.682116
1134.109769
1135.549762
1137.007699
1138.471757
1139.964123
1141.46909
1142.987063
1144.531943
1146.097262
1147.681128
1149.28451
1150.907693
1152.550116
1154.214505
1155.89931
1157.605051
1159.329413
1161.063796
1162.836084
1164.623551
1166.429887
1168.253237
1170.08901
1171.941983
1173.81842
1175.714578
1177.618961
1179.541703
1181.478652
1183.423323
1185.381456
1187.347253
1189.325174
1191.310675
1193.306373
1195.30789
1197.316057
1199.329603
1201.347072
1203.366982
1205.388588
1207.416218
1209.440361
1211.466986
1213.490537
1215.512473
1217.529871
1219.541704
1221.54728
1223.546391
1225.537082
1227.51792
1229.487231
1231.444445
1233.38597
1235.312829
1237.221755
1239.11207
1240.981995
1242.830384
1244.654757
1246.451157
1248.22102
1249.957287
1251.660361
1253.326545
1254.953441
1256.538553
1258.078157
1259.566952
1261.007703
1262.389461
1263.717203
1264.980955
1266.19516
1267.331074
1268.421129
1269.449801
1270.424097
1271.35642
1272.448625
1273.804175
1283.086838
1292.046491
1300.617205
1308.842138
)


101
(
1112.946006
1114.481929
1115.953365
1117.405968
1118.853715
1120.301089
1121.745553
1123.197257
1124.650683
1126.107707
1127.569073
1129.037253
1130.510631
1131.997853
1133.496203
1135.006571
1136.532971
1138.081053
1139.639149
1141.229301
1142.835983
1144.459601
1146.113906
1147.792407
1149.493137
1151.216947
1152.963993
1154.733586
1156.528303
1158.346473
1160.188445
1162.051712
1163.92755
1165.843357
1167.776536
1169.73063
1171.703655
1173.690836
1175.69657
1177.726695
1179.777251
1181.836873
1183.915558
1186.009235
1188.111394
1190.227333
1192.350956
1194.486314
1196.628764
1198.780728
1200.937849
1203.100852
1205.268313
1207.43858
1209.610005
1211.781692
1213.957717
1216.1288
1218.300689
1220.467944
1222.631804
1224.789232
1226.93897
1229.08021
1231.212759
1233.334511
1235.444167
1237.54005
1239.62158
1241.685113
1243.731562
1245.757437
1247.761887
1249.743283
1251.700602
1253.631615
1255.53228
1257.404138
1259.239724
1261.039442
1262.799792
1264.518618
1266.193487
1267.820498
1269.394633
1270.918857
1272.381634
1273.788186
1275.129173
1276.418973
1277.628604
1278.791677
1279.891615
1280.936482
1281.938927
1283.103957
1284.535727
1293.47556
1302.065749
1310.240351
1318.08382
)


101
(
1112.947521
1114.526414
1116.040297
1117.536843
1119.03104
1120.527779
1122.024452
1123.531695
1125.043956
1126.563105
1128.08993
1129.626973
1131.172652
1132.735643
1134.313386
1135.906848
1137.520041
1139.158639
1140.811132
1142.499398
1144.208081
1145.937577
1147.701489
1149.493315
1151.311006
1153.155283
1155.026151
1156.922775
1158.847561
1160.798724
1162.776453
1164.778058
1166.794669
1168.853118
1170.930905
1173.031412
1175.152557
1177.289442
1179.446106
1181.627929
1183.830633
1186.042883
1188.274458
1190.521405
1192.777311
1195.047138
1197.324537
1199.613053
1201.907831
1204.211083
1206.51845
1208.830565
1211.145916
1213.462678
1215.779017
1218.093857
1220.410966
1222.721311
1225.03036
1227.33287
1229.629933
1231.918367
1234.196788
1236.464177
1238.720341
1240.963062
1243.191083
1245.402759
1247.597531
1249.771799
1251.926437
1254.057737
1256.164678
1258.24571
1260.29984
1262.325086
1264.317523
1266.278952
1268.201592
1270.085702
1271.927866
1273.726217
1275.478669
1277.181133
1278.828776
1280.424867
1281.957632
1283.432152
1284.839829
1286.195202
1287.468944
1288.695805
1289.858375
1290.965457
1292.030069
1293.258486
1294.754495
1303.320559
1311.51068
1319.307317
1326.641633
)


101
(
1112.949037
1114.570954
1116.12741
1117.668033
1119.208814
1120.75506
1122.304114
1123.867075
1125.438374
1127.019885
1128.612437
1130.218636
1131.83694
1133.476038
1135.133512
1136.810403
1138.510721
1140.240146
1141.987323
1143.773951
1145.584835
1147.420344
1149.293928
1151.199079
1153.133674
1155.098293
1157.092774
1159.116114
1161.170521
1163.254086
1165.366851
1167.505963
1169.662406
1171.862375
1174.083433
1176.328752
1178.596165
1180.88069
1183.186063
1185.51722
1187.869522
1190.231551
1192.612745
1195.009223
1197.414746
1199.834086
1202.260728
1204.697702
1207.139847
1209.589057
1212.040961
1214.496097
1216.952896
1219.40943
1221.863708
1224.314396
1226.76494
1229.206456
1231.644201
1234.07311
1236.494215
1238.904266
1241.301723
1243.685354
1246.054913
1248.408101
1250.743674
1253.060013
1255.356594
1257.629922
1259.88087
1262.105617
1264.302996
1266.471488
1268.610043
1270.71684
1272.788122
1274.826151
1276.823084
1278.778968
1280.690301
1282.555426
1284.372842
1286.138476
1287.847451
1289.503449
1291.094748
1292.626158
1294.089661
1295.500265
1296.828342
1298.109515
1299.325792
1300.486579
1301.605203
1302.887267
1304.435167
1312.596134
1320.404631
1327.661553
1334.532561
)


101
(
1112.950552
1114.615548
1116.214705
1117.799541
1119.387039
1120.982937
1122.58454
1124.203392
1125.833928
1127.478024
1129.136554
1130.812183
1132.503412
1134.218925
1135.956433
1137.717047
1139.504773
1141.325278
1143.167357
1145.05252
1146.965719
1148.907286
1150.8905
1152.908849
1154.960141
1157.044819
1159.162543
1161.312118
1163.495527
1165.710711
1167.957565
1170.233101
1172.528179
1174.868309
1177.231083
1179.619395
1182.030967
1184.46077
1186.912282
1189.390046
1191.889062
1194.397762
1196.925106
1199.467183
1202.017924
1204.582001
1207.15291
1209.73322
1212.317417
1214.906955
1217.497383
1220.089143
1222.680588
1225.269777
1227.85457
1230.433458
1233.009471
1235.573848
1238.131542
1240.677675
1243.213251
1245.735089
1248.241517
1250.731098
1253.203468
1255.656246
1258.088198
1260.497732
1262.884342
1265.244652
1267.579599
1269.885353
1272.160639
1274.403978
1276.614235
1278.789629
1280.926507
1283.027695
1285.085567
1287.100065
1289.067504
1290.986325
1292.855612
1294.671612
1296.429414
1298.132893
1299.770734
1301.347575
1302.855669
1304.310736
1305.683054
1307.008649
1308.269394
1309.475081
1310.639294
1311.964801
1313.551668
1321.321454
1328.577654
1335.413184
1342.076185
)


101
(
1112.952068
1114.660197
1116.302184
1117.931369
1119.56572
1121.211411
1122.865727
1124.540642
1126.230603
1127.937499
1129.662242
1131.407554
1133.171981
1134.964189
1136.782
1138.626592
1140.501958
1142.413741
1144.350878
1146.334674
1148.350224
1150.397803
1152.490504
1154.621806
1156.789454
1158.993755
1161.23419
1163.509358
1165.820988
1168.166837
1170.546637
1172.957277
1175.389539
1177.868233
1180.370946
1182.900241
1185.45366
1188.026134
1190.620911
1193.242201
1195.8847
1198.536675
1201.206494
1203.890084
1206.581461
1209.285227
1211.995028
1214.713119
1217.433682
1220.15765
1222.880322
1225.601972
1228.320964
1231.03534
1233.742905
1236.441985
1239.135185
1241.813829
1244.482465
1247.136371
1249.776539
1252.399943
1255.004856
1257.589682
1260.153922
1262.695057
1265.211853
1267.702743
1270.167238
1272.602096
1275.008339
1277.382168
1279.722292
1282.027339
1284.296106
1286.526766
1288.715683
1290.866163
1292.970993
1295.030291
1297.040224
1298.999187
1300.90673
1302.759652
1304.553193
1306.291211
1307.962966
1309.573157
1311.1141
1312.60224
1314.019847
1315.389833
1316.692908
1317.939835
1319.144696
1320.505112
1322.116376
1329.333152
1336.208445
1342.879714
1349.336442
)


101
(
1112.953584
1114.704903
1116.389848
1118.06352
1119.744859
1121.440486
1123.147677
1124.878821
1126.628391
1128.398289
1130.189466
1132.004696
1133.842571
1135.711723
1137.610076
1139.538861
1141.502055
1143.505259
1145.537548
1147.620005
1149.737864
1151.891328
1154.093281
1156.337186
1158.620719
1160.944061
1163.30652
1165.706484
1168.145401
1170.620809
1173.132242
1175.676465
1178.244218
1180.85963
1183.50029
1186.168363
1188.861143
1191.573476
1194.308406
1197.069847
1199.852262
1202.643791
1205.452161
1208.273023
1211.100337
1213.938572
1216.781595
1219.631554
1222.482384
1225.33449
1228.182893
1231.027546
1233.866744
1236.698543
1239.520769
1242.331651
1245.133421
1247.917432
1250.687774
1253.439776
1256.1744
1258.888809
1261.581341
1264.250288
1266.895062
1269.512944
1272.10269
1274.662715
1277.19256
1279.689146
1282.153559
1284.582079
1286.973432
1289.326434
1291.639906
1293.911969
1296.138898
1298.324325
1300.4616
1302.55114
1304.589213
1306.574062
1308.505602
1310.381229
1312.2023
1313.968797
1315.66473
1317.296376
1318.85708
1320.364523
1321.790911
1323.171757
1324.489939
1325.7558
1326.982958
1328.361465
1329.984728
1336.857382
1343.591075
1350.03369
1356.296278
)


101
(
1112.9551
1114.749664
1116.477698
1118.195998
1119.924462
1121.670164
1123.43039
1125.217926
1127.02728
1128.860371
1130.718189
1132.603553
1134.515101
1136.461421
1138.440521
1140.453678
1142.504841
1144.59956
1146.727037
1148.908117
1151.128168
1153.387309
1155.698195
1158.054253
1160.453086
1162.894752
1165.3784
1167.902207
1170.467325
1173.071041
1175.712646
1178.38876
1181.090104
1183.84015
1186.616527
1189.420966
1192.250455
1195.099679
1197.971455
1200.869426
1203.787888
1206.714932
1209.657648
1212.61134
1215.569781
1218.537185
1221.507588
1224.483106
1227.45773
1230.431389
1233.398728
1236.359273
1239.311135
1242.252362
1245.180838
1248.094786
1250.996142
1253.876296
1256.738824
1259.57903
1262.397768
1265.192357
1267.961275
1270.702817
1273.416357
1276.098968
1278.749356
1281.365904
1283.948152
1286.493199
1289.002208
1291.471533
1293.899952
1296.286527
1298.630197
1300.929086
1303.179341
1305.384803
1307.539353
1309.643801
1311.699233
1313.69641
1315.634939
1317.514696
1319.333687
1321.096932
1322.795665
1324.436232
1326.01154
1327.538835
1328.990652
1330.401346
1331.753476
1333.056775
1334.324752
1335.746028
1337.416411
1344.157932
1350.658202
1356.905511
1362.970021
)


101
(
1112.956615
1114.794483
1116.565737
1118.328805
1120.104531
1121.900448
1123.713865
1125.557954
1127.42726
1129.323726
1131.248377
1133.204073