/*--------------------------------*- C++ -*----------------------------------*\
| =========                 |                                                 |
| \\      /  F ield         | OpenFOAM: The Open Source CFD Toolbox           |
|  \\    /   O peration     | Version:  2.3.1                                 |
|   \\  /    A nd           | Web:      www.OpenFOAM.org                      |
|    \\/     M anipulation  |                                                 |
\*---------------------------------------------------------------------------*/
FoamFile
{
    version     2.0;
    format      ascii;
    class       dictionary;
    location    "constant";
    object      GRPSI49;
}
// * * * * * * * * * * * * * * * * * * * * * * * * * * * * * * * * * * * * * //

GRPSI49_table
101
(

101
(
-3.040951016e-12
-8.212620228e-09
-5.822217315e-08
-2.127711151e-07
-5.395750437e-07
-1.100642693e-06
-1.964705542e-06
-3.307422392e-06
-5.247876314e-06
-8.067959099e-06
-1.212534451e-05
-1.79855493e-05
-2.617464194e-05
-3.798809019e-05
-5.372838004e-05
-7.401831391e-05
-9.941759645e-05
-0.0001301717064
-0.0001622267069
-0.0002003728688
-0.0002362938634
-0.000271288215
-0.0003067610026
-0.0003381624566
-0.0003654977511
-0.0003890823993
-0.0004088530874
-0.000424899481
-0.0004374774242
-0.0004466648747
-0.0004527098034
-0.0004559472082
-0.0004574386325
-0.0004538025221
-0.0004489491749
-0.0004417029627
-0.0004325562576
-0.0004222507123
-0.0004088785915
-0.0003918351184
-0.0003727505846
-0.0003546414355
-0.0003327033388
-0.0003091970829
-0.0002858390921
-0.0002592539429
-0.0002324210189
-0.000202693364
-0.0001725622774
-0.0001400354716
-0.0001074457202
-7.343314838e-05
-3.842054999e-05
-2.777264258e-06
3.315816647e-05
6.95431691e-05
0.000109305346
0.0001458493266
0.0001854088497
0.0002237605388
0.0002633736332
0.0003025254805
0.0003414460836
0.0003807181122
0.0004196577871
0.0004586077879
0.0004968847303
0.0005346466967
0.0005726667611
0.0006094329377
0.0006458012906
0.0006815833199
0.0007175653965
0.0007518658162
0.0007849610352
0.0008158143747
0.0008467022292
0.0008764791315
0.0009046297532
0.0009313225341
0.0009565564681
0.0009814038181
0.001004280648
0.001026235253
0.001045701431
0.001063542851
0.001080061305
0.001095226135
0.001109062572
0.001122010554
0.001132157221
0.001141337776
0.001149775904
0.001156485222
0.001162365053
0.001168396325
0.001176901062
0.001238492936
0.001300728841
0.001368327838
0.001435928784
)


101
(
-3.040951009e-12
-8.062922821e-09
-5.743199785e-08
-2.101927954e-07
-5.331729514e-07
-1.087258212e-06
-1.939355643e-06
-3.259852955e-06
-5.165379549e-06
-7.926563837e-06
-1.188981362e-05
-1.76006472e-05
-2.55765005e-05
-3.705359107e-05
-5.238902914e-05
-7.218347798e-05
-9.699644918e-05
-0.000127099051
-0.0001588763427
-0.0001962574502
-0.0002322729352
-0.0002673274922
-0.0003026709473
-0.0003345269721
-0.0003624391117
-0.0003866076599
-0.0004070074659
-0.0004237133847
-0.000436948941
-0.000446817376
-0.0004535416002
-0.0004574348332
-0.0004594132634
-0.0004568922474
-0.0004525779567
-0.0004459804218
-0.0004374194422
-0.0004275515451
-0.0004150173185
-0.0003990940546
-0.0003808758913
-0.0003628748912
-0.0003419402567
-0.000319191897
-0.0002961041651
-0.0002704697771
-0.0002440850282
-0.0002153212319
-0.0001857096607
-0.0001540799274
-0.0001219176699
-8.852460792e-05
-5.40867573e-05
-1.890122537e-05
1.671251006e-05
5.27821738e-05
9.139537722e-05
0.0001283245463
0.0001671014671
0.0002054106776
0.0002445646469
0.0002835890876
0.0003224603654
0.0003615482485
0.0004004540919
0.0004393328603
0.0004777315447
0.0005156570625
0.0005536258304
0.0005907121368
0.0006272951257
0.0006632825335
0.0006992009551
0.0007339285967
0.0007675901095
0.0007994474308
0.0008307832408
0.0008610641202
0.0008898891563
0.0009173276032
0.0009433540669
0.0009686322352
0.0009922814968
0.001014864477
0.001035423434
0.001054250951
0.001071545391
0.001087434087
0.001101937884
0.001115406325
0.00112669738
0.001136616576
0.00114549056
0.001152983382
0.001159369384
0.001166375587
0.001175860929
0.001237446543
0.001299667102
0.001367182423
0.001434697849
)


101
(
-3.040951009e-12
-7.76568497e-09
-5.586226902e-08
-2.050725996e-07
-5.204734505e-07
-1.060755188e-06
-1.88928007e-06
-3.16617986e-06
-5.003253635e-06
-7.649480147e-06
-1.142911194e-05
-1.684875499e-05
-2.44075118e-05
-3.522899001e-05
-4.976478572e-05
-6.858043375e-05
-9.223215586e-05
-0.0001210374645
-0.0001521799186
-0.0001881179983
-0.000224136384
-0.0002592952894
-0.0002944251649
-0.0003270427931
-0.0003560532655
-0.0003813805482
-0.0004030249358
-0.0004210390951
-0.0004355888173
-0.000446810331
-0.0004548897202
-0.0004600991596
-0.0004631133256
-0.0004625953312
-0.0004595304541
-0.0004542385292
-0.0004468751845
-0.0004379488207
-0.0004269273673
-0.0004130643797
-0.000396636271
-0.0003792165697
-0.0003599847969
-0.0003387756597
-0.0003164721548
-0.0002924833498
-0.0002671563465
-0.0002401084309
-0.0002116819563
-0.0001816936585
-0.0001505744683
-0.0001183897866
-8.511946602e-05
-5.092206186e-05
-1.605330534e-05
1.934559627e-05
5.612086371e-05
9.314438512e-05
0.0001307570417
0.0001687280096
0.0002071089566
0.0002457502208
0.0002844222306
0.0003231799179
0.0003619504265
0.000400688641
0.0004392224246
0.0004774055443
0.0005153755493
0.0005529278286
0.0005899469621
0.0006263885884
0.0006624102469
0.00069780377
0.000732389677
0.0007658420537
0.0007982490451
0.0008296360369
0.0008597909788
0.000888659882
0.0009162061708
0.0009425800444
0.0009676912406
0.0009915764175
0.00101403017
0.001034822914
0.001053875984
0.001071341832
0.001087310076
0.001102034349
0.001115239391
0.001126886075
0.001136994829
0.001145956668
0.001153749509
0.001162617358
0.001174162307
0.00123576513
0.001297993757
0.001365449712
0.001432902392
)


101
(
-3.040951009e-12
-7.472758062e-09
-5.431373822e-08
-2.000248092e-07
-5.079808116e-07
-1.034775758e-06
-1.840429693e-06
-3.075376701e-06
-4.84673994e-06
-7.383545196e-06
-1.098868595e-05
-1.613199531e-05
-2.329233817e-05
-3.349177401e-05
-4.724943203e-05
-6.511084276e-05
-8.762475714e-05
-0.0001151457053
-0.0001455102746
-0.0001801462683
-0.0002158505397
-0.0002510471288
-0.0002860331336
-0.0003191643426
-0.0003491428266
-0.0003755933438
-0.0003984531911
-0.0004177525122
-0.0004336108537
-0.0004461698868
-0.0004555967794
-0.0004621288027
-0.000466279998
-0.0004674146063
-0.0004658092941
-0.0004618428693
-0.0004557507953
-0.0004478899199
-0.0004381526495
-0.0004260277082
-0.0004114056578
-0.000395125495
-0.0003772470969
-0.0003575492759
-0.0003363891174
-0.0003137397988
-0.0002896570027
-0.0002640477396
-0.00023696985
-0.0002084278157
-0.0001785841312
-0.0001476033843
-0.0001155279555
-8.243314383e-05
-4.848897461e-05
-1.3869752e-05
2.168945897e-05
5.797675058e-05
9.482202619e-05
0.0001321581959
0.0001699136543
0.0002080202426
0.0002463268584
0.000284762877
0.0003232916607
0.000361859725
0.0004003657366
0.0004386718672
0.0004767495287
0.0005145422007
0.0005519428236
0.0005888527186
0.0006252738297
0.0006611642025
0.0006964173725
0.0007308708241
0.0007644094214
0.000796980561
0.0008284362326
0.0008586854653
0.000887672257
0.0009154214925
0.0009419468558
0.0009672308681
0.0009912390502
0.001013855784
0.001034855939
0.001054173223
0.001071834238
0.0010881296
0.001102940687
0.001116464959
0.0011284
0.001138894122
0.001148467589
0.001159260678
0.001172927416
0.001234612667
0.001296923108
0.001364449246
0.001431978085
)


101
(
-3.040951292e-12
-7.184157553e-09
-5.278632798e-08
-1.950485131e-07
-4.956903701e-07
-1.009303986e-06
-1.792759149e-06
-2.987322808e-06
-4.69559605e-06
-7.128236505e-06
-1.056764844e-05
-1.544896112e-05
-2.222938827e-05
-3.183909869e-05
-4.48425885e-05
-6.17749902e-05
-8.317577692e-05
-0.0001094281731
-0.0001389009611
-0.0001723191621
-0.0002074845159
-0.0002426011326
-0.0002774712076
-0.0003109442433
-0.0003417375068
-0.0003692427844
-0.0003932806457
-0.0004138382939
-0.0004309934766
-0.0004448772948
-0.0004556418931
-0.0004634988203
-0.0004688516046
-0.0004714503263
-0.0004713362751
-0.0004687526969
-0.0004639817157
-0.0004572876294
-0.0004487589862
-0.000438136606
-0.00042520581
-0.0004103313821
-0.0003937886296
-0.0003755248064
-0.0003556660049
-0.0003343142599
-0.0003115097343
-0.0002872499551
-0.0002615300048
-0.0002343754506
-0.0002058608844
-0.000176129771
-0.0001452679368
-0.000113337141
-8.044377497e-05
-4.673785652e-05
-1.220167497e-05
2.316291516e-05
5.919370417e-05
9.581326953e-05
0.0001329224583
0.0001704530637
0.0002082946323
0.0002463490346
0.0002845648623
0.0003228956255
0.0003612747069
0.0003995899504
0.0004377534747
0.0004757088099
0.0005133839019
0.0005506852672
0.0005875574698
0.0006239663546
0.0006598366832
0.000695063022
0.0007295320546
0.0007631878815
0.0007958850218
0.0008275012952
0.000857925353
0.000887108607
0.0009150982378
0.0009418634284
0.0009673966863
0.0009916719808
0.001014535678
0.001035833181
0.00105542189
0.001073487203
0.001090048394
0.001105381035
0.001119322765
0.001131715699
0.001143116716
0.001156066995
0.001171942538
0.001233752106
0.001296170404
0.00136366233
0.001431156427
)


101
(
-3.040951016e-12
-6.899904301e-09
-5.127994379e-08
-1.901427958e-07
-4.835976956e-07
-9.843244708e-07
-1.746224395e-06
-2.901901824e-06
-4.549586893e-06
-6.883048731e-06
-1.016512494e-05
-1.47982432e-05
-2.121699743e-05
-3.026812749e-05
-4.254335178e-05
-5.857296138e-05
-7.888658355e-05
-0.0001038890007
-0.0001323809503
-0.00016462601
-0.0001990898682
-0.0002339876308
-0.0002687288581
-0.0003024175231
-0.0003338728533
-0.0003623382065
-0.0003875017058
-0.0004092844491
-0.0004277186582
-0.0004429145099
-0.0004550072982
-0.0004641872759
-0.0004707814703
-0.0004747446618
-0.000476087087
-0.0004749367205
-0.0004715154343
-0.0004660660709
-0.0004587480979
-0.00044948729
-0.0004381069845
-0.0004247175165
-0.0004095633153
-0.0003927055378
-0.0003742072838
-0.0003541768903
-0.0003326703947
-0.0003097310545
-0.0002853540847
-0.000259562756
-0.0002323885247
-0.0002039386652
-0.000174309819
-0.0001435717862
-0.0001118012951
-7.911475022e-05
-4.558571744e-05
-1.119205875e-05
2.394837528e-05
5.977340649e-05
9.617831918e-05
0.0001330874007
0.0001704028501
0.0002080193433
0.0002458664573
0.0002838952052
0.0003220640168
0.0003602924586
0.0003984803847
0.0004365501244
0.0004744278648
0.0005120367397
0.0005493099287
0.000586212672
0.0006226799007
0.0006586164175
0.0006939039251
0.0007285120756
0.0007623326278
0.0007952373478
0.0008270825018
0.0008577359552
0.0008872222639
0.0009155216737
0.0009426228689
0.0009685317433
0.0009931705005
0.001016412681
0.001038072733
0.00105810141
0.001076576184
0.001093820545
0.001109748099
0.001124300929
0.001137686622
0.001152938855
0.001171220962
0.001233047021
0.00129546874
0.001362844997
0.001430235118
)


101
(
-3.040951009e-12
-6.620005225e-09
-4.979453137e-08
-1.853069029e-07
-4.716988258e-07
-9.598228814e-07
-1.700783682e-06
-2.819002882e-06
-4.408488877e-06
-6.647500125e-06
-9.780263512e-06
-1.417846184e-05
-2.02534515e-05
-2.877606292e-05
-4.035046289e-05
-5.550463219e-05
-7.475855186e-05
-9.853230363e-05
-0.0001259759637
-0.0001570658539
-0.0001907073864
-0.0002252442665
-0.0002598093939
-0.0002936116461
-0.0003255862558
-0.0003549004335
-0.0003811202862
-0.0004040850677
-0.0004237732692
-0.0004402655173
-0.0004536769769
-0.0004641757023
-0.000472035419
-0.0004773114115
-0.000480055035
-0.0004803319129
-0.0004782982632
-0.0004741548022
-0.0004680802747
-0.0004601173298
-0.0004501731227
-0.0004382541534
-0.0004245207905
-0.0004090700343
-0.0003919577551
-0.0003732773427
-0.0003530904396
-0.0003314671038
-0.000308421508
-0.000283980753
-0.0002581529758
-0.0002310084552
-0.0002026332452
-0.0001731053978
-0.0001424940085
-0.0001108903315
-7.83976497e-05
-4.500970806e-05
-1.081745188e-05
2.413920547e-05
5.976725289e-05
9.599301799e-05
0.0001327246414
0.0001698525052
0.0002072876459
0.000244965129
0.0002828538132
0.0003209052371
0.0003590371393
0.000397164728
0.000435193881
0.0004730492949
0.0005106604557
0.0005479970524
0.0005850085471
0.0006216124593
0.0006576756574
0.0006931572129
0.0007279868242
0.0007620732234
0.0007952656268
0.0008273930752
0.0008584057092
0.0008882824943
0.0009170034564
0.0009445791858
0.0009709592877
0.000996108092
0.001019822152
0.001041983512
0.00106249316
0.001081794627
0.001099802776
0.00111660451
0.001132173156
0.001149790886
0.001170616107
0.001232351037
0.001294666242
0.001361759024
0.001428903649
)


101
(
-3.040951009e-12
-6.344479667e-09
-4.833003726e-08
-1.805400675e-07
-4.599898465e-07
-9.357851827e-07
-1.656396098e-06
-2.738517387e-06
-4.272084377e-06
-6.421121326e-06
-9.412220691e-06
-1.358822217e-05
-1.933696136e-05
-2.736004532e-05
-3.826224133e-05
-5.256949621e-05
-7.079260671e-05
-9.336171148e-05
-0.0001197079822
-0.0001496444332
-0.0001823705809
-0.000216410114
-0.0002507267536
-0.0002845501693
-0.0003169126687
-0.0003469557061
-0.0003741470814
-0.0003982386751
-0.0004191469405
-0.0004369147031
-0.0004516320818
-0.0004634444063
-0.0004725842043
-0.0004791483308
-0.0004832437974
-0.0004849197698
-0.0004842843552
-0.0004814904546
-0.0004767024826
-0.0004700235091
-0.0004614415902
-0.0004509455949
-0.0004386314291
-0.0004245890987
-0.0004088752338
-0.0003915682433
-0.0003727237777
-0.0003524232162
-0.0003307007361
-0.0003075969202
-0.0002831178185
-0.0002573020203
-0.0002302082404
-0.0002019118483
-0.0001724836216
-0.000142001274
-0.000110573486
-7.821709898e-05
-4.501268048e-05
-1.098461491e-05
2.379396328e-05
5.926401125e-05
9.534293907e-05
0.0001319256369
0.0001689068633
0.000206198292
0.0002437565406
0.0002815538267
0.0003195410501
0.0003576511785
0.0003957787095
0.0004338323154
0.0004717298787
0.000509438503
0.0005469247685
0.0005841297074
0.0006209235006
0.0006572341928
0.000693002175
0.0007281780044
0.0007626344758
0.0007961813779
0.0008287165546
0.0008601854233
0.0008905654905
0.0009198608383
0.0009479900166
0.0009750357799
0.001000769785
0.001025139043
0.001047791039
0.001069252616
0.001089480366
0.001108578386
0.001126523116
0.001146582061
0.001170041932
0.001231589686
0.001293666491
0.001359971925
0.00142635376
)


101
(
-3.040951575e-12
-6.073356306e-09
-4.688641978e-08
-1.758416229e-07
-4.484671796e-07
-9.121984713e-07
-1.613023883e-06
-2.660343962e-06
-4.140167017e-06
-6.203464308e-06
-9.060181013e-06
-1.30261507e-05
-1.846570881e-05
-2.601718265e-05
-3.627660038e-05
-4.976664682e-05
-6.698920184e-05
-8.838026098e-05
-0.0001135956815
-0.0001423712661
-0.0001741083989
-0.0002075244466
-0.0002415027563
-0.0002752555748
-0.000307883855
-0.00033853213
-0.0003665974366
-0.0003917479981
-0.000413832433
-0.0004328483285
-0.0004488552477
-0.0004619737315
-0.000472401726
-0.0004802442589
-0.0004856558985
-0.0004886949133
-0.00048944559
-0.0004880219823
-0.00048455795
-0.0004791754041
-0.0004719201485
-0.0004628014712
-0.0004518843985
-0.0004392411479
-0.0004249253894
-0.0004090047711
-0.000391523458
-0.0003725599446
-0.000352161078
-0.0003303814635
-0.0003072389674
-0.0002827610596
-0.0002569801826
-0.0002299478638
-0.0002017306248
-0.000172403072
-0.0001420683663
-0.000110760535
-7.85669098e-05
-4.550766446e-05
-1.163778918e-05
2.300289396e-05
5.834944915e-05
9.431416057e-05
0.0001307888766
0.0001676624277
0.0002048601472
0.0002423510234
0.0002801112969
0.0003181128216
0.0003562658958
0.0003944641946
0.0004326044452
0.0004706360337
0.0005085314074
0.0005462582631
0.0005837164368
0.0006208146024
0.0006574707601
0.0006936562563
0.0007292985517
0.0007642028105
0.0007982222742
0.0008312572858
0.0008632965395
0.0008943498289
0.0009242724093
0.0009532095807
0.00098097826
0.001007535522
0.001032447722
0.001056133462
0.001078688852
0.001100148496
0.001120600979
0.001143224922
0.001169355393
0.001230426664
0.001291948584
0.001356775234
0.001421528678
)


101
(
-3.040951575e-12
-5.806645396e-09
-4.546363446e-08
-1.712108791e-07
-4.371272116e-07
-8.890500147e-07
-1.5706309e-06
-2.584386717e-06
-4.012537098e-06
-5.99409466e-06
-8.723344585e-06
-1.249089061e-05
-1.76378464e-05
-2.474458772e-05
-3.439112925e-05
-4.709474489e-05
-6.334834815e-05
-8.359035115e-05
-0.0001076551366
-0.0001352585688
-0.0001659471021
-0.0001986256933
-0.0002321650077
-0.0002657522602
-0.0002985303697
-0.0003296595291
-0.0003584912597
-0.0003846206254
-0.0004078266667
-0.0004280552491
-0.000445329958
-0.0004597440802
-0.0004714639324
-0.0004805825103
-0.0004872878284
-0.0004916557043
-0.000493766208
-0.0004937110762
-0.0004915939838
-0.0004875291482
-0.0004815918918
-0.0004738201429
-0.0004642729619
-0.0004530101871
-0.0004400815519
-0.0004255478345
-0.0004094426756
-0.0003918314641
-0.0003727650109
-0.0003523065281
-0.0003304864287
-0.0003073371433
-0.0002828815716
-0.0002571471361
-0.0002301789739
-0.0002020424281
-0.0001728336451
-0.0001425969447
-0.0001114314499
-7.936416142e-05
-4.644317167e-05
-1.269303411e-05
2.184272316e-05
5.710239757e-05
9.299465666e-05
0.0001294025181
0.0001662143841
0.0002033692971
0.0002408445794
0.0002786470162
0.000316729255
0.0003549977016
0.0003933281663
0.0004316400992
0.0004698923449
0.0005080702268
0.0005461070563
0.0005839262849
0.0006214257539
0.0006585526138
0.0006952827253
0.000731474118
0.0007669328291
0.0008015010486
0.0008351526762
0.0008679629008
0.0008997265156
0.0009305283612
0.0009603437358
0.0009890721534
0.001016325111
0.001042286211
0.0010672134
0.00109112996
0.001114158647
0.001139433395
0.00116829288
0.001228328177
0.001288735148
0.001351180699
0.001414014532
)


101
(
-3.040948898e-12
-5.544370918e-09
-4.406165557e-08
-1.66647227e-07
-4.259666175e-07
-8.663278298e-07
-1.52918293e-06
-2.510554842e-06
-3.889004573e-06
-5.792596878e-06
-8.400934988e-06
-1.198110725e-05
-1.685149343e-05
-2.353937101e-05
-3.260314771e-05
-4.455199661e-05
-5.986953762e-05
-7.899380247e-05
-0.00010189952
-0.0001283200892
-0.0001579113245
-0.0001897508811
-0.0002227457032
-0.000256067809
-0.0002888829637
-0.0003203700044
-0.0003498540778
-0.000376870771
-0.0004011322167
-0.0004225283723
-0.0004410415301
-0.0004567348738
-0.0004697447007
-0.000480139172
-0.0004881251087
-0.000493795032
-0.0004972360002
-0.000498533066
-0.0004977690516
-0.0004950387491
-0.0004904243871
-0.0004839848533
-0.0004757837899
-0.0004658801263
-0.0004543210225
-0.0004411636145
-0.0004264377619
-0.0004101930023
-0.0003924696469
-0.0003733352352
-0.0003528308163
-0.0003309990796
-0.0003078633087
-0.0002834420831
-0.000257758892
-0.0002308539401
-0.0002028146791
-0.0001736813035
-0.000143566547
-0.0001125097585
-8.056284001e-05
-4.774592938e-05
-1.408594989e-05
2.038087681e-05
5.559408848e-05
9.145548373e-05
0.0001278370792
0.0001646323516
0.0002017909744
0.0002393279877
0.0002772383503
0.0003154731117
0.0003539140074
0.0003924529958
0.0004310174385
0.0004695865357
0.0005081115409
0.0005465504898
0.0005848258279
0.0006228393681
0.0006605541269
0.0006979227734
0.0007347590923
0.0007708282126
0.0008060365184
0.0008405294864
0.0008741471017
0.0009068045738
0.0009385922679
0.0009695034459
0.0009990970336
0.001027372269
0.001054685988
0.001081132779
0.001106763982
0.001134731408
0.001166327516
0.001224574025
0.001283035867
0.001341602588
0.001400595509
)


101
(
-3.04094344e-12
-5.286569815e-09
-4.268050935e-08
-1.62150267e-07
-4.149827025e-07
-8.440214769e-07
-1.488649008e-06
-2.438764055e-06
-3.769393027e-06
-5.598584539e-06
-8.092216581e-06
-1.149550808e-05
-1.610476455e-05
-2.239860396e-05
-3.09096971e-05
-4.213616994e-05
-5.655170461e-05
-7.459155338e-05
-9.63397352e-05
-0.0001215692748
-0.0001500240728
-0.0001809366366
-0.0002132819251
-0.0002462354949
-0.0002789767407
-0.000310701158
-0.0003407194054
-0.0003685216863
-0.0003937598903
-0.0004162673782
-0.0004359805439
-0.0004529282932
-0.0004672176106
-0.0004788859132
-0.0004881455141
-0.0004950993249
-0.0004998450305
-0.0005024710657
-0.0005030504714
-0.0005016600572
-0.0004983761422
-0.0004932656461
-0.0004863961071
-0.0004778331805
-0.0004676256697
-0.0004558283405
-0.0004424721507
-0.0004275975006
-0.0004112305414
-0.0003934295573
-0.0003742410568
-0.0003537182743
-0.000331892926
-0.0003087837766
-0.0002844020168
-0.0002587677871
-0.0002319451911
-0.0002039617253
-0.0001749313172
-0.0001449086285
-0.0001139574373
-8.2102671e-05
-4.936562531e-05
-1.576540805e-05
1.866958492e-05
5.387654425e-05
8.974373818e-05
0.0001261348484
0.0001629517668
0.0002001808212
0.0002378361357
0.0002759205157
0.000314360069
0.0003530419216
0.0003918604354
0.0004307605874
0.0004696963074
0.000508644187
0.0005475729698
0.0005863895998
0.000625004293
0.0006634052036
0.0007014989299
0.0007390156671
0.0007757396907
0.0008117836945
0.0008471829537
0.0008817010984
0.0009153661086
0.000948391255
0.0009802796072
0.001010863667
0.0010405476
0.001069530505
0.001097769577
0.001128410674
0.001162641519
0.001217931105
0.001273232538
0.001326227401
0.001379677791
)


101
(
-3.040939539e-12
-5.033260614e-09
-4.132018897e-08
-1.577194558e-07
-4.041724633e-07
-8.22120082e-07
-1.448998137e-06
-2.368931747e-06
-3.653528792e-06
-5.411681224e-06
-7.796474445e-06
-1.103281671e-05
-1.53957624e-05
-2.131931715e-05
-2.930753507e-05
-3.984459133e-05
-5.339313447e-05
-7.038354081e-05
-9.09841797e-05
-0.0001150189709
-0.0001423068519
-0.000172217364
-0.0002038131556
-0.0002362928079
-0.0002688490308
-0.00030069152
-0.0003311234935
-0.0003596015656
-0.0003857262666
-0.0004092770588
-0.0004301418336
-0.0004483107861
-0.0004638602288
-0.0004767947087
-0.000487322751
-0.0004955492645
-0.0005015800697
-0.0005055107663
-0.0005074139977
-0.0005073558689
-0.000505404186
-0.0005016245097
-0.0004960816223
-0.0004888463504
-0.0004799753206
-0.0004695222343
-0.0004575198044
-0.0004440070131
-0.000429001138
-0.0004125445822
-0.0003946822203
-0.0003754688144
-0.0003549447431
-0.0003331395832
-0.0003100627644
-0.0002857231032
-0.0002601568129
-0.0002333771453
-0.0002054780496
-0.0001765258423
-0.000146598642
-0.0001157308657
-8.394940375e-05
-5.126927976e-05
-1.769958186e-05
1.673851455e-05
5.197174481e-05
8.786953836e-05
0.0001242941851
0.0001611786975
0.0001985194664
0.0002363466371
0.0002746458584
0.0003133399929
0.0003523164366
0.0003914791862
0.0004307503455
0.0004700992697
0.0005095351145
0.000549014171
0.0005884263352
0.000627708892
0.0006668703411
0.0007057068176
0.0007438826929
0.0007813548943
0.0008183572477
0.000854672446
0.0008901647719
0.00092510165
0.0009592002249
0.0009920358161
0.001024048492
0.001055466758
0.001086272239
0.001119484774
0.00115619459
0.0012070128
0.001257586555
0.001303501207
0.001349663761
)


101
(
-3.040940679e-12
-4.784477036e-09
-3.998072222e-08
-1.533544129e-07
-3.935333792e-07
-8.0061391e-07
-1.410201747e-06
-2.300981068e-06
-3.541250605e-06
-5.231533331e-06
-7.513028965e-06
-1.059180635e-05
-1.472260482e-05
-2.029856224e-05
-2.779325785e-05
-3.767420473e-05
-5.039158878e-05
-6.636915742e-05
-8.583908636e-05
-0.0001086808927
-0.0001347796079
-0.0001636251681
-0.0001943787281
-0.0002262790674
-0.0002585378268
-0.0002903788227
-0.000321102799
-0.0003501417026
-0.0003770537382
-0.0004015690185
-0.0004235265949
-0.0004428750796
-0.0004596579174
-0.0004738444014
-0.0004856331812
-0.0004951240041
-0.0005024256657
-0.0005076396043
-0.0005108419801
-0.0005120985056
-0.0005114722144
-0.0005090228999
-0.0005048058977
-0.0004988911397
-0.0004913440253
-0.0004822213926
-0.0004715575309
-0.0004593929497
-0.0004457434139
-0.0004306376526
-0.0004141113852
-0.0003962168934
-0.0003769958386
-0.0003564874371
-0.0003347130984
-0.000311675713
-0.0002873943593
-0.000261862877
-0.0002351520956
-0.0002073219239
-0.0001784590337
-0.0001486119242
-0.0001178169465
-8.609593558e-05
-5.345608132e-05
-1.988958026e-05
1.457691599e-05
4.985013361e-05
8.578380207e-05
0.0001222631633
0.0001592330067
0.0001967145164
0.0002347304235
0.0002732641945
0.0003122427067
0.0003515580924
0.0003910722529
0.0004307157868
0.0004705038585
0.0005104552952
0.0005505076804
0.0005905283338
0.0006305293634
0.0006704436986
0.0007099430726
0.0007487386124
0.0007870918719
0.0008250200168
0.0008622403924
0.0008988601462
0.0009349858023
0.0009699236161
0.001004182493
0.001037891272
0.001071125892
0.001106699331
0.00114575233
0.001190681396
0.001234988557
0.001272610987
0.001307560251
)


101
(
-3.040941805e-12
-4.540256098e-09
-3.86621171e-08
-1.490546895e-07
-3.830628079e-07
-7.794931827e-07
-1.372231376e-06
-2.234836822e-06
-3.432404303e-06
-5.057805186e-06
-7.241219185e-06
-1.017128536e-05
-1.408341993e-05
-1.933337047e-05
-2.636326223e-05
-3.562146742e-05
-4.754429898e-05
-6.25470584e-05
-8.090938943e-05
-0.000102565857
-0.0001274610322
-0.0001551901449
-0.0001850164649
-0.0002162344723
-0.0002480834553
-0.0002798030685
-0.000310695999
-0.000340176848
-0.0003677697584
-0.0003931608171
-0.0004161416146
-0.0004366183329
-0.0004546001121
-0.0004700174099
-0.0004830544411
-0.0004938000019
-0.0005023610769
-0.0005088414101
-0.0005133197459
-0.0005158681048
-0.000516550238
-0.0005154243005
-0.0005125319275
-0.0005079358068
-0.0005017032334
-0.0004938981109
-0.0004845606458
-0.000473729165
-0.0004614249784
-0.0004476710796
-0.0004324882131
-0.0004159205333
-0.0003980124629
-0.0003788039643
-0.0003583266034
-0.0003365946472
-0.0003136172361
-0.0002893691756
-0.0002639008134
-0.0002372515904
-0.0002095072658
-0.0001807296937
-0.000150964301
-0.000120242879
-8.858139681e-05
-5.59668069e-05
-2.239060169e-05
1.210463185e-05
4.739968231e-05
8.336417457e-05
0.0001198837367
0.0001569356974
0.0001945415556
0.0002327248841
0.0002714852421
0.0003107634367
0.0003503889786
0.0003902119302
0.000430182416
0.0004703863974
0.000510844969
0.0005514174972
0.000592042321
0.0006327171566
0.0006732650998
0.0007132499554
0.0007527158749
0.0007919553178
0.0008307171446
0.0008688152017
0.0009066996789
0.0009435322905
0.0009797568064
0.001015593499
0.001051031529
0.00108871317
0.00112984934
0.001167470858
0.001204125802
0.001233302804
0.001263048417
)


101
(
-3.04093954e-12
-4.300624188e-09
-3.736436605e-08
-1.448197741e-07
-3.72758008e-07
-7.587480925e-07
-1.335058989e-06
-2.170425926e-06
-3.326841004e-06
-4.890176594e-06
-6.980408417e-06
-9.770101927e-06
-1.347636789e-05
-1.842078763e-05
-2.501377859e-05
-3.368244964e-05
-4.484789265e-05
-5.89151693e-05
-7.619810811e-05
-9.668342675e-05
-0.0001203683603
-0.0001469402856
-0.000175763541
-0.0002062004606
-0.0002375286044
-0.0002690072689
-0.0002999453728
-0.0003297461945
-0.0003579063096
-0.000384074462
-0.0004079987693
-0.0004295429637
-0.0004486802058
-0.0004652992254
-0.0004795656223
-0.0004915524693
-0.0005013613048
-0.0005090949291
-0.0005148311832
-0.0005186473749
-0.0005206156516
-0.0005207983132
-0.0005192241492
-0.0005159455977
-0.0005110239982
-0.0005045262235
-0.0004965028872
-0.0004869915126
-0.0004760188644
-0.0004636082886
-0.0004497713771
-0.0004345401534
-0.000417955725
-0.000400056328
-0.0003808800847
-0.0003604547239
-0.0003387935126
-0.0003158607877
-0.0002916818911
-0.0002662753318
-0.000239714521
-0.000212068419
-0.0001833917231
-0.0001537259489
-0.000123096692
-9.150255265e-05
-5.892194968e-05
-2.535444267e-05
9.128041247e-06
4.441276746e-05
8.035244608e-05
0.0001168711196
0.0001539491568
0.0001916077307
0.0002299006361
0.0002688646615
0.0003083873455
0.0003482179348
0.0003882193804
0.000428440704
0.0004689883528
0.0005098396035
0.0005508697749
0.0005919853903
0.0006332108604
0.0006741305293
0.0007145060894
0.0007546825253
0.0007947207183
0.0008340905935
0.0008733360452
0.0009119018146
0.0009496774574
0.0009873793686
0.001024778466
0.001064178217
0.001106718645
0.001136316599
0.0011646314
0.001185795596
0.001208237202
)


101
(
-3.040939539e-12
-4.065624037e-09
-3.60878811e-08
-1.406496172e-07
-3.626174893e-07
-7.38371512e-07
-1.298661726e-06
-2.107685244e-06
-3.224430724e-06
-4.728361602e-06
-6.730017152e-06
-9.387180869e-06
-1.289969113e-05
-1.755796596e-05
-2.374103681e-05
-3.185311997e-05
-4.229856103e-05
-5.54707453e-05
-7.170652185e-05
-9.104051523e-05
-0.0001135159709
-0.000138901377
-0.0001666567231
-0.000196220698
-0.0002269197024
-0.000258039361
-0.00028889879
-0.0003188949257
-0.000347502345
-0.0003743393075
-0.0003991173087
-0.0004216588912
-0.0004418985583
-0.0004596823933
-0.0004751522436
-0.0004883615014
-0.0004994032892
-0.0005083776275
-0.0005153586537
-0.0005204235182
-0.0005236547555
-0.0005251227336
-0.0005248529157
-0.0005228877835
-0.0005192772311
-0.0005140815182
-0.0005073602893
-0.000499158215
-0.0004895046105
-0.0004784242437
-0.0004659288972
-0.0004520402912
-0.0004367901699
-0.0004202127225
-0.0004023488657
-0.0003832363593
-0.0003628984518
-0.000341304714
-0.0003184599189
-0.0002943603443
-0.0002690572625
-0.0002426164485
-0.000215103749
-0.0001865683051
-0.0001570449419
-0.0001265478135
-9.505787636e-05
-6.255634341e-05
-2.906553704e-05
5.334139141e-06
4.050625257e-05
7.634265881e-05
0.0001127603642
0.0001497445035
0.0001873467592
0.0002256762164
0.0002647472666
0.0003043437651
0.0003442010899
0.0003842196208
0.0004245324891
0.0004653237487
0.0005064450842
0.0005477141029
0.0005892283292
0.0006307280851
0.0006718111542
0.0007125742574
0.0007535220123
0.0007939310685
0.0008340882435
0.0008741600644
0.0009132154876
0.0009523679074
0.0009915185255
0.001032168478
0.001075486559
0.001097224194
0.001117476581
0.001131679417
0.001142985348
)


101
(
-3.040941805e-12
-3.835294335e-09
-3.483241283e-08
-1.365439373e-07
-3.526392191e-07
-7.183553847e-07
-1.263015421e-06
-2.046550564e-06
-3.125045885e-06
-4.572087696e-06
-6.489486556e-06
-9.021472815e-06
-1.235165879e-05
-1.674209185e-05
-2.254119864e-05
-3.012918478e-05
-3.989211711e-05
-5.221023558e-05
-6.743440537e-05
-8.564119155e-05
-0.0001069147887
-0.0001310947407
-0.0001577301292
-0.0001863382068
-0.0002163043564
-0.0002469487763
-0.0002776061915
-0.0003076717465
-0.0003366028231
-0.0003639928202
-0.0003895239079
-0.0004129816998
-0.0004342606454
-0.0004531637396
-0.0004698045456
-0.0004842122962
-0.000496468376
-0.0005066687977
-0.0005148824497
-0.0005211812857
-0.0005256535182
-0.0005283819251
-0.0005293955832
-0.0005287321627
-0.0005264291902
-0.0005225339126
-0.0005171086791
-0.000510206362
-0.0005018596086
-0.0004920969542
-0.0004809353889
-0.0004683909283
-0.0004544845462
-0.0004392442403