/*--------------------------------*- C++ -*----------------------------------*\
| =========                 |                                                 |
| \\      /  F ield         | OpenFOAM: The Open Source CFD Toolbox           |
|  \\    /   O peration     | Version:  2.3.1                                 |
|   \\  /    A nd           | Web:      www.OpenFOAM.org                      |
|    \\/     M anipulation  |                                                 |
\*---------------------------------------------------------------------------*/
FoamFile
{
    version     2.0;
    format      ascii;
    class       dictionary;
    location    "constant";
    object      GRPSI10;
}
// * * * * * * * * * * * * * * * * * * * * * * * * * * * * * * * * * * * * * //

GRPSI10_table
101
(

101
(
8.596248009e-05
0.0001012618239
0.0001168932354
0.0001113523928
9.754073206e-05
8.137884751e-05
6.434125229e-05
4.749396578e-05
3.212308417e-05
1.858876815e-05
7.383896857e-06
-1.201147926e-06
-7.144878946e-06
-1.061953926e-05
-1.194908261e-05
-1.184160254e-05
-1.095633259e-05
-9.95588686e-06
-9.253042327e-06
-9.006961396e-06
-9.186039796e-06
-9.616971598e-06
-1.006002597e-05
-1.026145247e-05
-1.011365663e-05
-9.589686981e-06
-8.749626711e-06
-7.674423515e-06
-6.467619152e-06
-5.235603611e-06
-4.061020516e-06
-3.04124579e-06
-2.05639692e-06
-1.242192441e-06
-7.913195187e-07
-1.15106745e-06
-1.822161887e-06
1.136707837e-07
2.266594939e-06
2.342310092e-06
2.325313143e-06
2.23756891e-06
2.081077699e-06
1.879004902e-06
1.623425143e-06
1.319522136e-06
9.712591133e-07
5.835781314e-07
1.616947245e-07
-2.885382897e-07
-7.567621163e-07
-1.254122078e-06
-1.768054623e-06
-2.294495305e-06
-2.832326437e-06
-3.418859479e-06
-3.990701708e-06
-4.563367119e-06
-5.161652378e-06
-5.750936985e-06
-6.361642337e-06
-6.959813319e-06
-7.558918451e-06
-8.166403385e-06
-8.777560405e-06
-9.381490854e-06
-9.96915775e-06
-1.057185168e-05
-1.117532471e-05
-1.177049906e-05
-1.238105343e-05
-1.302410469e-05
-1.370322464e-05
-1.476539753e-05
-1.540384517e-05
-1.510608551e-05
-1.513962646e-05
-1.56271008e-05
-1.608786554e-05
-1.655871517e-05
-1.708574269e-05
-1.767247735e-05
-1.857188172e-05
-1.876263132e-05
-1.834275834e-05
-1.852127835e-05
-1.891462394e-05
-1.937253886e-05
-2.023837966e-05
-2.032123936e-05
-1.999167531e-05
-2.061999663e-05
-2.107573858e-05
-2.143641365e-05
-2.160167379e-05
-2.155759958e-05
-1.084369653e-05
4.04641487e-13
-5.165236036e-23
-3.074731457e-24
1.033047207e-22
)


101
(
8.499628759e-05
0.0001001404737
0.0001157621819
0.0001105557235
9.711458719e-05
8.129901754e-05
6.46234212e-05
4.810182657e-05
3.297227607e-05
1.959780853e-05
8.441341886e-06
-2.13238338e-07
-6.319783307e-06
-1.002625583e-05
-1.161742576e-05
-1.17203794e-05
-1.096699672e-05
-9.993206074e-06
-9.228723359e-06
-8.877894539e-06
-8.955254661e-06
-9.315314841e-06
-9.75519756e-06
-1.003694608e-05
-1.001602556e-05
-9.641124319e-06
-8.943822527e-06
-7.990590631e-06
-6.87260491e-06
-5.689833057e-06
-4.526059545e-06
-3.469262636e-06
-2.475753666e-06
-1.607629755e-06
-1.021725444e-06
-1.030343534e-06
-1.47349104e-06
-5.914542564e-07
1.161920362e-06
2.020640216e-06
2.266073794e-06
2.276326905e-06
2.16587723e-06
1.990575449e-06
1.766335403e-06
1.500036449e-06
1.194771613e-06
8.501985779e-07
4.694549615e-07
5.703575648e-08
-3.789330079e-07
-8.393374112e-07
-1.319031287e-06
-1.814970993e-06
-2.327716839e-06
-2.870045623e-06
-3.425065413e-06
-3.981356161e-06
-4.54925335e-06
-5.122042154e-06
-5.704256415e-06
-6.289432112e-06
-6.872584127e-06
-7.458974412e-06
-8.053785024e-06
-8.649478619e-06
-9.234381386e-06
-9.816781356e-06
-1.040453884e-05
-1.099171433e-05
-1.157623636e-05
-1.216869518e-05
-1.278241794e-05
-1.356925577e-05
-1.436540221e-05
-1.474954059e-05
-1.487961239e-05
-1.508784101e-05
-1.542405015e-05
-1.585730207e-05
-1.634210658e-05
-1.685284472e-05
-1.751434398e-05
-1.811686701e-05
-1.827781804e-05
-1.824404423e-05
-1.840204308e-05
-1.875464354e-05
-1.928320395e-05
-1.982913563e-05
-1.998266184e-05
-2.005041615e-05
-2.049308935e-05
-2.092793908e-05
-2.105512594e-05
-2.074119322e-05
-9.834309648e-06
7.609897573e-07
7.847320328e-07
8.076110888e-07
8.093062847e-07
)


101
(
8.40302297e-05
9.901832241e-05
0.0001146253074
0.0001097461982
9.667002913e-05
8.119566603e-05
6.487449045e-05
4.867468977e-05
3.378645836e-05
2.057455034e-05
9.474095324e-06
7.616457325e-07
-5.497002356e-06
-9.425567808e-06
-1.127362483e-05
-1.159498379e-05
-1.098804369e-05
-1.006175292e-05
-9.255274158e-06
-8.810443498e-06
-8.785017716e-06
-9.065789245e-06
-9.482225581e-06
-9.816401103e-06
-9.902371743e-06
-9.663958539e-06
-9.106087885e-06
-8.277882421e-06
-7.257686669e-06
-6.137575669e-06
-5.000542871e-06
-3.927808665e-06
-2.919656441e-06
-2.009871779e-06
-1.318086091e-06
-1.08847948e-06
-1.297347738e-06
-9.109883267e-07
3.172603137e-07
1.409291687e-06
1.995078022e-06
2.203900838e-06
2.191200499e-06
2.063850422e-06
1.870409416e-06
1.633764163e-06
1.364165097e-06
1.059541317e-06
7.189718844e-07
3.44789657e-07
-5.709577612e-08
-4.843424048e-07
-9.339607024e-07
-1.401604793e-06
-1.885893449e-06
-2.391629164e-06
-2.917331975e-06
-3.453297929e-06
-3.997546908e-06
-4.549610589e-06
-5.109198684e-06
-5.674440714e-06
-6.242802811e-06
-6.815779304e-06
-7.394325277e-06
-7.9742444e-06
-8.550018887e-06
-9.122799705e-06
-9.696607186e-06
-1.027259044e-05
-1.084483629e-05
-1.141457916e-05
-1.198540731e-05
-1.26244066e-05
-1.335093325e-05
-1.39887584e-05
-1.440913562e-05
-1.466655087e-05
-1.489826558e-05
-1.522913881e-05
-1.566906887e-05
-1.614753773e-05
-1.667275708e-05
-1.726752511e-05
-1.777085633e-05
-1.79877582e-05
-1.804913684e-05
-1.82614648e-05
-1.867020792e-05
-1.914588591e-05
-1.95914106e-05
-1.979644041e-05
-2.000210529e-05
-2.050790892e-05
-2.049029676e-05
-1.956148653e-05
-8.954919216e-06
1.039228066e-06
1.022108624e-06
1.006698801e-06
1.006500652e-06
)


101
(
8.306433165e-05
9.789540741e-05
0.0001134827017
0.0001089239663
9.620727703e-05
8.106913152e-05
6.509505812e-05
4.921305494e-05
3.456609465e-05
2.151938709e-05
1.048237327e-05
1.723596975e-06
-4.675884243e-06
-8.81629608e-06
-1.091528073e-05
-1.146069605e-05
-1.101324278e-05
-1.015381725e-05
-9.324982027e-06
-8.798745912e-06
-8.672341157e-06
-8.867331242e-06
-9.243354723e-06
-9.604542729e-06
-9.775790055e-06
-9.659258731e-06
-9.234480417e-06
-8.531809195e-06
-7.615826821e-06
-6.569288099e-06
-5.473144642e-06
-4.403559457e-06
-3.385653736e-06
-2.445017987e-06
-1.657388576e-06
-1.256328137e-06
-1.266510126e-06
-1.065987759e-06
-2.676960469e-07
7.520713695e-07
1.546280112e-06
1.983305459e-06
2.127685953e-06
2.087850957e-06
1.939145181e-06
1.731496146e-06
1.490717812e-06
1.220643523e-06
9.182594661e-07
5.821224792e-07
2.158437171e-07
-1.782072291e-07
-5.963463483e-07
-1.035307684e-06
-1.493499795e-06
-1.9688844e-06
-2.463026685e-06
-2.973668116e-06
-3.494706664e-06
-4.024945325e-06
-4.563690243e-06
-5.109201419e-06
-5.659840209e-06
-6.216034741e-06
-6.777594999e-06
-7.342397703e-06
-7.905803792e-06
-8.468606264e-06
-9.033130111e-06
-9.598540543e-06
-1.016210692e-05
-1.072230656e-05
-1.127527653e-05
-1.184337338e-05
-1.247082327e-05
-1.312971421e-05
-1.371867726e-05
-1.414956272e-05
-1.443085079e-05
-1.469259397e-05
-1.505267302e-05
-1.550179087e-05
-1.598396216e-05
-1.650067937e-05
-1.704937642e-05
-1.750784478e-05
-1.771832812e-05
-1.783839925e-05
-1.813096699e-05
-1.855979107e-05
-1.903153807e-05
-1.943724288e-05
-1.967730313e-05
-2.006133253e-05
-1.986548817e-05
-1.835919713e-05
-8.120831313e-06
1.113365562e-06
1.118174637e-06
1.115650494e-06
1.108778084e-06
)


101
(
8.209861964e-05
9.677176657e-05
0.0001123344542
0.0001080891753
9.572654521e-05
8.091974188e-05
6.528569706e-05
4.971740099e-05
3.531159216e-05
2.243261994e-05
1.146625993e-05
2.67249375e-06
-3.8561443e-06
-8.197653313e-06
-1.054059005e-05
-1.131354677e-05
-1.103700175e-05
-1.026256724e-05
-9.430840631e-06
-8.837168992e-06
-8.614282831e-06
-8.719451417e-06
-9.041209534e-06
-9.406875089e-06
-9.64131933e-06
-9.629933441e-06
-9.329396332e-06
-8.750543354e-06
-7.942897069e-06
-6.978218789e-06
-5.934563699e-06
-4.884179668e-06
-3.866310185e-06
-2.909036604e-06
-2.068634331e-06
-1.509702039e-06
-1.321266687e-06
-1.171824871e-06
-6.606785657e-07
1.719602806e-07
1.014171504e-06
1.627213957e-06
1.95101773e-06
2.039541882e-06
1.965148494e-06
1.797829327e-06
1.58505994e-06
1.344335392e-06
1.075815557e-06
7.757954643e-07
4.452465907e-07
8.493546603e-08
-3.015188451e-07
-7.106676813e-07
-1.140126895e-06
-1.588834597e-06
-2.055324696e-06
-2.538357798e-06
-3.034167887e-06
-3.540891401e-06
-4.058774466e-06
-4.584800415e-06
-5.117469704e-06
-5.656471169e-06
-6.199863178e-06
-6.747887587e-06
-7.299118293e-06
-7.851057941e-06
-8.404534818e-06
-8.957612692e-06
-9.510690145e-06
-1.006400573e-05
-1.061155654e-05
-1.115507603e-05
-1.171934824e-05
-1.232428924e-05
-1.294706908e-05
-1.350591361e-05
-1.391489409e-05
-1.420179372e-05
-1.449659178e-05
-1.488978592e-05
-1.535394454e-05
-1.583822132e-05
-1.634511327e-05
-1.686342324e-05
-1.726355749e-05
-1.746373173e-05
-1.766760687e-05
-1.803498663e-05
-1.848220928e-05
-1.894293722e-05
-1.928636363e-05
-1.964902002e-05
-1.927174227e-05
-1.735115017e-05
-7.429067251e-06
1.21385622e-06
1.312230363e-06
1.405179021e-06
1.410935984e-06
)


101
(
8.113312004e-05
9.564743796e-05
0.000111180654
0.0001072419715
9.522804342e-05
8.074781476e-05
6.544694973e-05
5.018817303e-05
3.602328333e-05
2.331443062e-05
1.242562883e-05
3.607943312e-06
-3.037942517e-06
-7.569418343e-06
-1.014841059e-05
-1.115048293e-05
-1.105463922e-05
-1.038189899e-05
-9.566410597e-06
-8.920494813e-06
-8.608000964e-06
-8.621677619e-06
-8.878233592e-06
-9.228636053e-06
-9.504668439e-06
-9.580451033e-06
-9.392862711e-06
-8.933611527e-06
-8.236274118e-06
-7.360911339e-06
-6.378601041e-06
-5.359383839e-06
-4.352409773e-06
-3.387900822e-06
-2.509729891e-06
-1.837356069e-06
-1.477564253e-06
-1.282075576e-06
-9.331514427e-07
-2.998347343e-07
4.804244635e-07
1.181826832e-06
1.66303198e-06
1.901644228e-06
1.934050016e-06
1.828955342e-06
1.650542988e-06
1.435844534e-06
1.196786155e-06
9.30915758e-07
6.359085841e-07
3.098103566e-07
-4.468874474e-08
-4.240632674e-07
-8.245990199e-07
-1.245510089e-06
-1.684913184e-06
-2.142067465e-06
-2.613002921e-06
-3.094500282e-06
-3.589989514e-06
-4.095806939e-06
-4.609515375e-06
-5.1316806e-06
-5.658418618e-06
-6.189374302e-06
-6.725186255e-06
-7.263707378e-06
-7.807164172e-06
-8.350425459e-06
-8.891211718e-06
-9.433311095e-06
-9.973897249e-06
-1.050948057e-05
-1.104720294e-05
-1.160683059e-05
-1.219955806e-05
-1.279416356e-05
-1.331118141e-05
-1.369286512e-05
-1.398940522e-05
-1.432282688e-05
-1.474823292e-05
-1.522225851e-05
-1.570748954e-05
-1.621058711e-05
-1.668803652e-05
-1.702072975e-05
-1.723729985e-05
-1.754111204e-05
-1.796926187e-05
-1.843625574e-05
-1.884087268e-05
-1.923126297e-05
-1.870308736e-05
-1.64187467e-05
-6.69912775e-06
1.479086052e-06
1.399849731e-06
1.320079419e-06
1.309524808e-06
)


101
(
8.016786085e-05
9.452246091e-05
0.0001100213906
0.0001063825004
9.471197775e-05
8.055365911e-05
6.557934099e-05
5.06258073e-05
3.670147359e-05
2.416495984e-05
1.336028225e-05
4.529437589e-06
-2.221661926e-06
-6.93164848e-06
-9.737980664e-06
-1.096899144e-05
-1.106198786e-05
-1.050617837e-05
-9.725530682e-06
-9.043492217e-06
-8.650363714e-06
-8.57328464e-06
-8.756547066e-06
-9.074711496e-06
-9.371739816e-06
-9.516124247e-06
-9.428249386e-06
-9.081823003e-06
-8.494292091e-06
-7.712997968e-06
-6.800717059e-06
-5.823697599e-06
-4.837146873e-06
-3.875131047e-06
-2.973229643e-06
-2.219725165e-06
-1.718505374e-06
-1.430998894e-06
-1.144083672e-06
-6.700473875e-07
-5.112868848e-09
7.009266038e-07
1.287231585e-06
1.669779478e-06
1.830953443e-06
1.814302826e-06
1.685943008e-06
1.500335997e-06
1.287317684e-06
1.051565339e-06
7.903558711e-07
4.988113138e-07
1.769743091e-07
-1.725330589e-07
-5.444842864e-07
-9.37040413e-07
-1.348870665e-06
-1.779448937e-06
-2.225689562e-06
-2.68405067e-06
-3.156743565e-06
-3.640900857e-06
-4.134074382e-06
-4.63738077e-06
-5.147860276e-06
-5.662637546e-06
-6.182251076e-06
-6.706034142e-06
-7.235860607e-06
-7.769170044e-06
-8.301518214e-06
-8.832670681e-06
-9.362589429e-06
-9.890037391e-06
-1.041670226e-05
-1.095300246e-05
-1.151032441e-05
-1.208804602e-05
-1.265046803e-05
-1.312715916e-05
-1.34862771e-05
-1.379810869e-05
-1.417182176e-05
-1.462560694e-05
-1.510491527e-05
-1.559186443e-05
-1.608237227e-05
-1.650778632e-05
-1.679285118e-05
-1.706537274e-05
-1.745812718e-05
-1.793006572e-05
-1.838248527e-05
-1.880189974e-05
-1.811480564e-05
-1.55030227e-05
-6.124772865e-06
1.539381241e-06
1.492577314e-06
1.456182648e-06
1.461368707e-06
)


101
(
7.920286993e-05
9.339687375e-05
0.0001088567516
0.000105510903
9.417854005e-05
8.033755288e-05
6.568334822e-05
5.103073395e-05
3.734646642e-05
2.498429839e-05
1.426994763e-05
5.436340407e-06
-1.407906893e-06
-6.284685249e-06
-9.308943923e-06
-1.0767029e-05
-1.105529991e-05
-1.063018734e-05
-9.902282714e-06
-9.200879336e-06
-8.737898874e-06
-8.572946811e-06
-8.677411586e-06
-8.949128389e-06
-9.247976568e-06
-9.442353169e-06
-9.439781068e-06
-9.197438733e-06
-8.716927754e-06
-8.032326445e-06
-7.196982852e-06
-6.271758902e-06
-5.314865122e-06
-4.364661622e-06
-3.452134855e-06
-2.643151157e-06
-2.029366319e-06
-1.63398539e-06
-1.33796699e-06
-9.635931837e-07
-4.213131521e-07
2.295425179e-07
8.583489022e-07
1.353803978e-06
1.647015833e-06
1.740510373e-06
1.684163602e-06
1.538975947e-06
1.352433494e-06
1.142981182e-06
9.125783786e-07
6.542531646e-07
3.649990963e-07
4.645260854e-08
-2.966758764e-07
-6.621668223e-07
-1.046488068e-06
-1.449598693e-06
-1.870167558e-06
-2.304422365e-06
-2.754156747e-06
-3.21669938e-06
-3.689706525e-06
-4.173429942e-06
-4.666068802e-06
-5.164432972e-06
-5.668378393e-06
-6.177311655e-06
-6.692400496e-06
-7.213663563e-06
-7.736224867e-06
-8.257186054e-06
-8.776180002e-06
-9.293864902e-06
-9.81205007e-06
-1.033672858e-05
-1.087255395e-05
-1.142349687e-05
-1.198371342e-05
-1.251225292e-05
-1.294963229e-05
-1.329156694e-05
-1.362976114e-05
-1.404672126e-05
-1.451880875e-05
-1.499980089e-05
-1.54851848e-05
-1.59527559e-05
-1.631326905e-05
-1.660194305e-05
-1.695966867e-05
-1.741365388e-05
-1.789933895e-05
-1.834609628e-05
-1.755578131e-05
-1.470254578e-05
-5.618717179e-06
1.604419585e-06
1.555259545e-06
1.518056242e-06
1.523864473e-06
)


101
(
7.823817708e-05
9.227071703e-05
0.0001076868266
0.0001046273202
9.362791439e-05
8.009974703e-05
6.575939582e-05
5.140337018e-05
3.795856114e-05
2.577249969e-05
1.515426083e-05
6.327877442e-06
-5.975022807e-07
-5.629130359e-06
-8.86128145e-06
-1.054304508e-05
-1.103127174e-05
-1.074905326e-05
-1.009092884e-05
-9.387317129e-06
-8.866854436e-06
-8.61890182e-06
-8.641572814e-06
-8.855535373e-06
-9.138792581e-06
-9.364819264e-06
-9.432328217e-06
-9.283724904e-06
-8.905333998e-06
-8.317886205e-06
-7.564577646e-06
-6.699406792e-06
-5.780738301e-06
-4.850800237e-06
-3.938968063e-06
-3.095313737e-06
-2.396083753e-06
-1.895090237e-06
-1.54557937e-06
-1.211543224e-06
-7.696764162e-07
-2.033483591e-07
4.131104516e-07
9.76039965e-07
1.384683387e-06
1.597813965e-06
1.634089629e-06
1.546199998e-06
1.392871632e-06
1.209292892e-06
1.006393401e-06
7.786048847e-07
5.220129079e-07
2.350443953e-07
-7.952754163e-08
-4.178829884e-07
-7.749832248e-07
-1.151353888e-06
-1.5462567e-06
-1.955934741e-06
-2.381925765e-06
-2.821438224e-06
-3.273399901e-06
-3.737752913e-06
-4.212552008e-06
-4.694791281e-06
-5.182566046e-06
-5.675385001e-06
-6.173992026e-06
-6.680701819e-06
-7.192442312e-06
-7.705012969e-06
-8.215148652e-06
-8.721404352e-06
-9.229173555e-06
-9.744924048e-06
-1.026845241e-05
-1.079927199e-05
-1.134010268e-05
-1.188065449e-05
-1.237524612e-05
-1.277497459e-05
-1.311277129e-05
-1.349195667e-05
-1.394293772e-05
-1.442261656e-05
-1.490405879e-05
-1.5383505e-05
-1.580099283e-05
-1.61241688e-05
-1.646112889e-05
-1.690112517e-05
-1.740640955e-05
-1.787514454e-05
-1.700047606e-05
-1.389784987e-05
-5.128177488e-06
1.618383805e-06
1.544451454e-06
1.471460485e-06
1.464314643e-06
)


101
(
7.727381136e-05
9.11440297e-05
0.0001065117016
0.0001037318893
9.306028286e-05
7.98404893e-05
6.580789094e-05
5.174412155e-05
3.853805155e-05
2.652961312e-05
1.601283584e-05
7.203214672e-06
2.085814815e-07
-4.96580041e-06
-8.395279017e-06
-1.029594824e-05
-1.098708993e-05
-1.085832346e-05
-1.028597646e-05
-9.597444949e-06
-9.033244828e-06
-8.709031077e-06
-8.649310464e-06
-8.797246617e-06
-9.049766316e-06
-9.289640833e-06
-9.411079681e-06
-9.344215956e-06
-9.061016196e-06
-8.56896455e-06
-7.900739844e-06
-7.102511418e-06
-6.230202858e-06
-5.328078397e-06
-4.426582726e-06
-3.566091661e-06
-2.806803326e-06
-2.212999773e-06
-1.787117203e-06
-1.443512057e-06
-1.063263945e-06
-5.834214928e-07
-1.804463461e-08
5.638425556e-07
1.055721465e-06
1.382796928e-06
1.525429863e-06
1.514036164e-06
1.406815662e-06
1.25192911e-06
1.073779537e-06
8.737195254e-07
6.483342223e-07
3.932480885e-07
1.090695745e-07
-2.019428957e-07
-5.324343806e-07
-8.82445203e-07
-1.252459916e-06
-1.637408058e-06
-2.039341202e-06
-2.455626729e-06
-2.885441684e-06
-3.329133233e-06
-3.784802078e-06
-4.250119662e-06
-4.721948685e-06
-5.198963253e-06
-5.6819782e-06
-6.173240794e-06
-6.671654534e-06
-7.172964248e-06
-7.673372522e-06
-8.170433921e-06
-8.668146781e-06
-9.173446502e-06
-9.687054559e-06
-1.020615459e-05
-1.072900713e-05
-1.125835649e-05
-1.177840041e-05
-1.223365721e-05
-1.260253237e-05
-1.29606401e-05
-1.338051812e-05
-1.385465848e-05
-1.433508699e-05
-1.481486957e-05
-1.526605137e-05
-1.563006136e-05
-1.59652126e-05
-1.638886403e-05
-1.689918007e-05
-1.738722446e-05
-1.644725374e-05
-1.31688868e-05
-4.704895659e-06
1.631516826e-06
1.519542179e-06
1.393569119e-06
1.366070942e-06
)


101
(
7.630980561e-05
9.001685416e-05
0.0001053314639
0.0001028247448
9.247582228e-05
7.956002839e-05
6.582924624e-05
5.205335754e-05
3.908514506e-05
2.725565724e-05
1.684531896e-05
8.061537652e-06
1.009308239e-06
-4.295660663e-06
-7.911468442e-06
-1.002502958e-05
-1.092036481e-05
-1.095391586e-05
-1.048210996e-05
-9.825796882e-06
-9.232846045e-06
-8.841303464e-06
-8.700778843e-06
-8.776980324e-06
-8.986153028e-06
-9.223031801e-06
-9.381634557e-06
-9.383030896e-06
-9.186316094e-06
-8.785927068e-06
-8.203571978e-06
-7.477106097e-06
-6.658683963e-06
-5.792026291e-06
-4.90921049e-06
-4.046366948e-06
-3.249580106e-06
-2.581027835e-06
-2.072427715e-06
-1.684399113e-06
-1.32380378e-06
-9.118114526e-07
-4.148977501e-07
1.449494763e-07
6.796676882e-07
1.100097144e-06
1.352059567e-06
1.433660685e-06
1.388654672e-06
1.27037821e-06
1.117390996e-06
9.421736251e-07
7.454430358e-07
5.22187876e-07
2.691671606e-07
-1.419495635e-08
-3.182920294e-07
-6.422766735e-07
-9.873354004e-07
-1.347782329e-06
-1.7252985e-06
-2.118287955e-06
-2.525635978e-06
-2.947121944e-06
-3.381961036e-06
-3.829584098e-06
-4.285851324e-06
-4.747789912e-06
-5.21533277e-06
-5.690082972e-06
-6.173145756e-06
-6.66196514e-06
-7.152186265e-06
-7.639771503e-06
-8.126931031e-06
-8.620999651e-06
-9.124924755e-06
-9.634449053e-06
-1.014456491e-05
-1.065908663e-05
-1.118053932e-05
-1.167058864e-05
-1.208249801e-05
-1.244404586e-05
-1.283388998e-05
-1.329152195e-05
-1.377292149e-05
-1.425150601e-05
-1.472061371e-05
-1.512133639e-05
-1.54646983e-05
-1.587485616e-05
-1.638306592e-05
-1.688864508e-05
-1.589254986e-05
-1.246257599e-05
-4.339037494e-06
1.578894078e-06
1.471206109e-06
1.388554935e-06
1.403034616e-06
)


101
(
7.534619125e-05
8.888923098e-05
0.0001041461987
0.0001019060186
9.187470624e-05
7.925860804e-05
6.582386423e-05
5.2331442e-05
3.960002334e-05
2.795063709e-05
1.765136081e-05
8.902015852e-06
1.803568473e-06
-3.619834146e-06
-7.410641514e-06
-9.729964362e-06
-1.08291312e-05
-1.10321795e-05
-1.067436767e-05
-1.006695149e-05
-9.461061907e-06
-9.013166544e-06
-8.795585098e-06
-8.796768608e-06
-8.952573838e-06
-9.170863586e-06
-9.34968821e-06
-9.404885558e-06
-9.284484761e-06
-8.970301154e-06
-8.472763787e-06
-7.820940388e-06
-7.062602263e-06
-6.238687424e-06
-5.381886762e-06
-4.5278531e-06
-3.712268426e-06
-2.98933314e-06
-2.404154104e-06
-1.952506026e-06
-1.574941264e-06
-1.200422527e-06
-7.689078138e-07
-2.575257417e-07
2.804151671e-07
7.627187544e-07
1.113503039e-06
1.296637704e-06
1.330074659e-06
1.261272193e-06
1.138448813e-06
9.869711365e-07
8.159474336e-07
6.223608157e-07
3.996496016e-07
1.453143069e-07
-1.31307802e-07
-4.292419219e-07
-7.494994237e-07
-1.086266952e-06
-1.439669553e-06
-1.808886864e-06
-2.19326012e-06
-2.592543685e-06
-3.005890654e-06
-3.433179954e-06
-3.872527736e-06
-4.31989774e-06
-4.772585818e-06
-5.231564181e-06
-5.698404486e-06
-6.172431991e-06
-6.650435215e-06
-7.12786293e-06
-7.604999991e-06
-8.088271359e-06
-8.581777821e-06
-9.080529831e-06
-9.580069496e-06
-1.008303658e-05
-1.059529261e-05
-1.109858478e-05
-1.154829461e-05
-1.193107191e-05
-1.230232776e-05
-1.273585568e-05
-1.321536152e-05
-1.369596346e-05
-1.416877598e-05
-1.459749712e-05
-1.495901852e-05
-1.535684654e-05
-1.585826437e-05
-1.637926672e-05
-1.53454222e-05
-1.180207279e-05
-4.003984472e-06
1.520288788e-06
1.375182938e-06
1.245625928e-06
1.24455112e-06
)


101
(
7.438300164e-05
8.776120213e-05
0.0001029559915
0.000100975843
9.125710893e-05
7.893647391e-05
6.579214135e-05
5.257871616e-05
4.008285035e-05
2.861457291e-05
1.843061438e-05
9.723788904e-06
2.59017816e-06
-2.939580423e-06
-6.893811594e-06
-9.410833163e-06
-1.071192635e-05
-1.108992797e-05
-1.085813835e-05
-1.031544721e-05
-9.712687871e-06
-9.220950123e-06
-8.932136087e-06
-8.857060502e-06
-8.951832583e-06
-9.138425355e-06
-9.321765442e-06
-9.415910129e-06
-9.360257654e-06
-9.12504826e-06
-8.709605299e-06
-8.133704819e-06
-7.439861577e-06
-6.664728901e-06
-5.840351297e-06
-5.00368984e-06
-4.183970312e-06
-3.426295209e-06
-2.7786461e-06
-2.258423565e-06
-1.837574728e-06
-1.467285571e-06
-1.082457606e-06
-6.281131079e-07
-1.180067102e-07
3.898473098e-07
8.160683234e-07
1.098086341e-06
1.222239894e-06
1.218186244e-06
1.135108213e-06
1.009565187e-06
8.620640607e-07
6.9498346e-07
5.017135993e-07
2.769061311e-07
2.835833107e-08
-2.430659708e-07
-5.38383954e-07
-8.514852155e-07
-1.181506586e-06
-1.52730628e-06
-1.88865843e-06
-2.265132322e-06
-2.656825201e-06
-3.06306104e-06
-3.482964963e-06
-3.91439359e-06
-4.352424224e-06
-4.796419058e-06
-5.247613217e-06
-5.70534077e-06
-6.168701049e-06
-6.634597029e-06
-7.102119992e-06
-7.575086814e-06
-8.056899686e-06
-8.544739066e-06
-9.033976594e-06
-9.525857929e-06
-1.002699251e-05
-1.052977613e-05
-1.100240041e-05
-1.141426022e-05
-1.178421865e-05
-1.219123026e-05
-1.265917987e-05
-1.314357698e-05
-1.361660638e-05
-1.406166833e-05
-1.444555979e-05
-1.483896431e-05
-1.53274675e-05
-1.585749413e-05
-1.479928003e-05
-1.117506738e-05
-3.724612134e-06
1.406324475e-06
1.237835356e-06
1.10417699e-06
1.120747397e-06
)


101
(
7.342027156e-05
8.663281034e-05
0.0001017609279
0.0001000343502
9.062320367e-05
7.859387873e-05
6.573448167e-05
5.279547522e-05
4.053371654e-05
2.924753364e-05
1.918280234e-05
1.052599166e-05
3.367954058e-06
-2.25620657e-06
-6.362176916e-06
-9.068172459e-06
-1.056800253e-05
-1.112463635e-05
-1.10291771e-05
-1.056574289e-05
-9.98184564e-06
-9.459899076e-06
-9.108075889e-06
-8.958199188e-06
-8.986621927e-06
-9.130515145e-06
-9.304031811e-06
-9.42242693e-06
-9.418980801e-06
-9.253863043e-06
-8.916062145e-06
-8.415863021e-06
-7.789427439e-06
-7.067748058e-06
-6.281109922e-06
-5.468439086e-06
-4.655775036e-06
-3.880610691e-06
-3.187905709e-06
-2.60488391e-06
-2.126941328e-06
-1.732232325e-06
-1.36710096e-06
-9.618850244e-07
-4.967636668e-07
3.590325166e-09
4.740062532e-07
8.397858584e-07
1.058172841e-06
1.132927406e-06
1.102959627e-06
1.009508083e-06
8.854547781e-07
7.42469133e-07
5.768022477e-07
3.805790262e-07
1.60088195e-07
-8.430039217e-08
-3.541098845e-07
-6.432119458e-07
-9.500621814e-07
-1.272545028e-06
-1.611291407e-06
-1.965722974e-06
-2.335292394e-06
-2.719301112e-06
-3.118507624e-06
-3.531578468e-06
-3.954213222e-06
-4.384109574e-06
-4.820306194e-06
-5.261751385e-06
-5.708683865e-06
-6.160526212e-06
-6.616757797e-06
-7.079871055e-06
-7.551403718e-06
-8.027195758e-06
-8.504761089e-06
-8.986142052e-06
-9.47647076e-06
-9.971594939e-06
-1.045241838e-05
-1.089019117e-05
-1.127249552e-05
-1.165947524e-05
-1.210767478e-05
-1.259159925e-05
-1.306676271e-05
-1.351999737e-05
-1.392256197e-05
-1.431714168e-05
-1.479303144e-05
-1.532662701e-05
-1.42527699e-05
-1.058256449e-05
-3.499074813e-06
1.241270944e-06
1.059711223e-06
9.078825202e-07
9.190271665e-07
)


101
(
7.245803613e-05
8.550409841e-05
0.0001005610928
9.908167167e-05
8.997316186e-05
7.823106988e-05
6.565128543e-05
5.298202302e-05
4.095269585e-05
2.984957359e-05
1.990766727e-05
1.1307754e-05
4.135658158e-06
-1.571115519e-06
-5.817091635e-06
-8.702790062e-06
-1.039704255e-05
-1.113429311e-05
-1.11837939e-05
-1.081274381e-05
-1.026271053e-05
-9.724827576e-06
-9.320219521e-06
-9.09972294e-06
-9.059116387e-06
-9.151445603e-06
-9.302033647e-06
-9.430158129e-06
-9.465850473e-06
-9.361007039e-06
-9.094889096e-06
-8.668235095e-06
-8.110536733e-06
-7.446081419e-06
-6.701898549e-06
-5.918620898e-06
-5.1213177e-06
-4.342473724e-06
-3.621774703e-06
-2.988152779e-06
-2.451104877e-06
-2.012760378e-06
-1.639644831e-06
-1.26398761e-06
-8.455514121e-07
-3.759116148e-07
1.064611805e-07
5.311761571e-07
8.365118044e-07
9.982161097e-07
1.034912328e-06
9.837017034e-07
8.866330447e-07
7.664467137e-07
6.256224076e-07
4.567239351e-07
2.640379286e-07
4.710932202e-08
-1.96484725e-07
-4.61418699e-07
-7.451560113e-07
-1.044331923e-06
-1.36058618e-06
-1.693629547e-06
-2.041171832e-06
-2.402993544e-06
-2.780234268e-06
-3.173261427e-06
-3.579057733e-06
-3.993625058e-06
-4.415299178e-06
-4.841541668e-06
-5.272077919e-06
-5.707777847e-06
-6.149877618e-06
-6.602093226e-06
-7.063571783e-06
-7.527930195e-06
-7.993684636e-06
-8.462829566e-06
-8.941589026e-06
-9.427470315e-06
-9.907161607e-06
-1.035993586e-05
-1.076012687e-05
-1.113986162e-05
-1.156510291e-05
-1.204032321e-05
-1.25187867e-05
-1.297565211e-05
-1.339355037e-05
-1.378899206e-05
-1.425150502e-05
-1.478798834e-05
-1.370740083e-05
-1.001296773e-05
-3.30690435e-06
1.040166512e-06
8.424385814e-07
6.2243724e-07
5.798528734e-07
)


101
(
7.149633334e-05
8.437511186e-05
9.935657309e-05
9.811794132e-05
8.930715798e-05
7.784829077e-05
6.554294708e-05
5.313866946e-05
4.133985156e-05
3.042066602e-05
2.060500075e-05
1.206829735e-05
4.891944132e-06
-8.858876612e-07
-5.260115396e-06
-8.315645162e-06
-1.019883572e-05
-1.111705994e-05
-1.131811635e-05
-1.105130726e-05
-1.054996561e-05
-1.001107696e-05
-9.565342692e-06
-9.280389727e-06
-9.170653867e-06
-9.204896431e-06
-9.320901572e-06
-9.444712318e-06
-9.506158629e-06
-9.451065842e-06
-9.249587224e-06
-8.892569699e-06
-8.403150234e-06
-7.798558765e-06
-7.10098252e-06
-6.35181187e-06
-5.576095001e-06
-4.803887964e-06
-4.069930282e-06
-3.400557067e-06
-2.810967082e-06
-2.320368221e-06
-1.917270371e-06
-1.547093299e-06
-1.163922756e-06
-7.345968163e-07
-2.668858279e-07
1.874376663e-07
5.621758319e-07
8.097188044e-07
9.234050436e-07
9.270797296e-07
8.643103714e-07
7.679336221e-07
6.499446998e-07
5.064061262e-07
3.40624773e-07
1.509575837e-07
-6.598056369e-08
-3.05728281e-07
-5.661905822e-07
-8.427778957e-07
-1.136836914e-06
-1.448430676e-06
-1.774156637e-06
-2.113935315e-06
-2.469237997e-06
-2.841276208e-06
-3.227868711e-06
-3.625534909e-06
-4.032379038e-06
-4.443916946e-06
-4.859073845e-06
-5.278447713e-06
-5.703604733e-06
-6.141380529e-06
-6.591767133e-06
-7.04656329e-06
-7.500848421e-06
-7.956501374e-06
-8.422906432e-06
-8.897398332e-06
-9.370865828e-06
-9.830580861e-06
-1.024614978e-05
-1.062654241e-05
-1.103263455e-05
-1.149203812e-05
-1.197011281e-05
-1.242893024e-05
-1.285857561e-05
-1.325698095e-05
-1.370499345e-05
-1.424113949e-05
-1.316097757e-05
-9.459798012e-06
-3.151935602e-06
7.952920161e-07
5.972059512e-07
4.532370546e-07
4.88644496e-07
)


101
(
7.05352035e-05
8.324589805e-05
9.814745698e-05
9.714329338e-05
8.862536474e-05
7.744578105e-05
6.54098601e-05
5.326573638e-05
4.169524263e-05
3.09607324e-05
2.127462421e-05
1.280692412e-05
5.63540487e-06
-2.022446541e-07
-4.692986922e-06
-7.907913991e-06
-9.973335539e-06
-1.107133681e-05
-1.142856206e-05
-1.127661863e-05
-1.083856674e-05
-1.031394334e-05
-9.839834436e-06
-9.498216884e-06
-9.321635948e-06
-9.293691624e-06
-9.365282179e-06
-9.471797028e-06
-9.545645248e-06
-9.528766701e-06
-9.383492288e-06
-9.091042643e-06
-8.668102685e-06
-8.12473166e-06
-7.477317787e-06
-6.766556224e-06
-6.017283946e-06
-5.259013617e-06
-4.523350488e-06
-3.832413422e-06
-3.201658768e-06
-2.660029569e-06
-2.213812879e-06
-1.826489747e-06
-1.459281346e-06
-1.066925998e-06
-6.301317583e-07
-1.736525811e-07
2.459684037e-07
5.683251275e-07
7.628319939e-07
8.331112912e-07
8.149257971e-07
7.46851214e-07
6.516674453e-07
5.31252046e-07
3.90471904e-07
2.274727851e-07
3.741029359e-08
-1.768058666e-07
-4.136178511e-07
-6.677893217e-07
-9.399785518e-07
-1.229479037e-06
-1.534082042e-06
-1.852784118e-06
-2.185677823e-06
-2.535721603e-06
-2.901635162e-06
-3.281260891e-06
-3.672032914e-06
-4.068554259e-06
-4.469180086e-06
-4.872844014e-06
-5.280550802e-06
-5.700036986e-06
-6.136677426e-06
-6.581454465e-06
-7.025013997e-06
-7.469008215e-06
-7.921424269e-06
-8.381370494e-06
-8.845610631e-06
-9.30525207e-06
-9.73156845e-06
-1.011752556e-05
-1.050938002e-05
-1.094876711e-05
-1.142059409e-05
-1.18815037e-05
-1.231778693e-05
-1.272040936e-05
-1.315546966e-05
-1.36849421e-05
-1.261499085e-05
-8.932771907e-06
-3.029390366e-06
5.264575432e-07
3.267467077e-07
1.558772902e-07
1.66823134e-07
)


101
(
6.957468413e-05
8.211649447e-05
9.693382783e-05
9.615786417e-05
8.792794932e-05
7.702377294e-05
6.525241535e-05
5.336359865e-05
4.201897387e-05
3.146962215e-05
2.191630901e-05
1.352300134e-05
6.364681142e-06
4.780680699e-07
-4.117544554e-06
-7.481044198e-06
-9.720977036e-06
-1.099617143e-05
-1.151219215e-05
-1.148426704e-05
-1.112358099e-05
-1.062831704e-05
-1.013933653e-05
-9.750253966e-06
-9.511100988e-06
-9.419556447e-06
-9.43945076e-06
-9.517279421e-06