/*--------------------------------*- C++ -*----------------------------------*\
| =========                 |                                                 |
| \\      /  F ield         | OpenFOAM: The Open Source CFD Toolbox           |
|  \\    /   O peration     | Version:  2.3.1                                 |
|   \\  /    A nd           | Web:      www.OpenFOAM.org                      |
|    \\/     M anipulation  |                                                 |
\*---------------------------------------------------------------------------*/
FoamFile
{
    version     2.0;
    format      ascii;
    class       dictionary;
    location    "constant";
    object      GRPSI6;
}
// * * * * * * * * * * * * * * * * * * * * * * * * * * * * * * * * * * * * * //

GRPSI6_table
101
(

101
(
0.05271166508
0.052418362
0.05216414729
0.05245454013
0.05306731448
0.05383416907
0.0547000405
0.05561502399
0.05652279597
0.05741812739
0.05829192796
0.05913092528
0.0599499647
0.06074511294
0.06149323079
0.06221269898
0.06291687695
0.063566322
0.06420494873
0.06482630195
0.06537988351
0.06594118652
0.06649293791
0.06699870106
0.06747799161
0.06793681629
0.0683727868
0.06879242689
0.0691955913
0.06957990351
0.06994544938
0.07027513405
0.07063114989
0.07098568577
0.07129076577
0.07158633536
0.07185959368
0.07214164076
0.07243990741
0.07272421773
0.0729713877
0.07320872658
0.07345253777
0.07367227238
0.07388714701
0.0740982367
0.07430185818
0.07450067225
0.07469214925
0.0748765212
0.07505075457
0.07522139089
0.07538462193
0.07554008743
0.07568845693
0.07584029493
0.07598093397
0.07611363542
0.07624604846
0.0763708033
0.07649216558
0.07660549184
0.07671584162
0.0768220315
0.07692359842
0.07702072875
0.07711235496
0.07720144885
0.07728609094
0.07736556669
0.07744209716
0.07751635829
0.07758457569
0.07764112043
0.07769757468
0.07776378905
0.07782524798
0.07787483198
0.07791984023
0.07796096989
0.07800041823
0.07803583493
0.07806333188
0.07809599616
0.07813126472
0.07815658096
0.07817658819
0.07819352588
0.07820350503
0.07821985472
0.07823828033
0.07824323346
0.07824845707
0.07825309704
0.07825884657
0.07824402045
0.0391116412
-2.374500596e-10
0
0
0
)


101
(
0.05221138829
0.05192649052
0.05166260839
0.05190754816
0.05246332176
0.05317342486
0.05397789806
0.0548327139
0.05568705491
0.05652977894
0.05735311535
0.0581474085
0.05891571393
0.05966349463
0.06037701748
0.06105459328
0.06170906057
0.06234044951
0.06292990115
0.06351174009
0.06407381294
0.06458056977
0.06508958992
0.06559575373
0.06606393619
0.06650591769
0.0669306177
0.06733406058
0.06772417479
0.06810320678
0.06846771773
0.06882815873
0.0691169925
0.06943386467
0.06979334236
0.07009228587
0.07038708584
0.07066374987
0.07091448809
0.07117813642
0.07147858228
0.0717341957
0.0719543973
0.07220601059
0.07242830839
0.07263900192
0.07284758427
0.07304786237
0.07324657143
0.07343981782
0.07363164761
0.07380852136
0.07398458608
0.07415792351
0.07432401475
0.07446580971
0.07462697784
0.07478278504
0.07491946965
0.07506246281
0.07519505863
0.07533066022
0.07545598908
0.07557698971
0.07569538588
0.07581147535
0.07592526562
0.07602956391
0.07613445947
0.07623796685
0.07633348649
0.07642327448
0.07651460192
0.07660695544
0.07669573164
0.07677863439
0.07685892345
0.07694506189
0.07702707346
0.07710269349
0.07717044544
0.07723893329
0.07730689386
0.0773741764
0.07744667494
0.07751699468
0.07758154391
0.07764206099
0.077695459
0.07775385872
0.07781455104
0.07786399372
0.07791092484
0.07795346647
0.07793489444
0.07780930315
0.0383744067
-0.0009721800381
-0.0009599669706
-0.0009490566315
-0.0009490448641
)


101
(
0.05171093955
0.05143447313
0.05116151123
0.05136217496
0.05186215237
0.05251659136
0.0532611454
0.0540569391
0.0548587818
0.05565011339
0.05642413266
0.05717436399
0.05789415068
0.05859540468
0.05927374691
0.05991176363
0.06051944239
0.06112769358
0.06167554328
0.06221699968
0.06277745568
0.06324497948
0.06371119243
0.06420675929
0.06466563863
0.06509311207
0.06550548832
0.06589446091
0.06627098876
0.06664232547
0.06700415353
0.06738311246
0.06764079371
0.06791676861
0.06829279474
0.06860536122
0.06891609718
0.06919779967
0.0694236075
0.06966214932
0.06998017522
0.07025910087
0.07047650319
0.0707390151
0.07097381733
0.07118943664
0.07140225897
0.07160560112
0.07180935909
0.07200970788
0.07221348678
0.07240014482
0.0725862506
0.07277318459
0.07295511859
0.07310201234
0.07327210249
0.07344483768
0.07359398492
0.07375028815
0.07389604929
0.07404788194
0.07418974231
0.07432585359
0.07445985155
0.07459314783
0.07472618431
0.07484864578
0.07497205344
0.07509638837
0.07521308964
0.07532266985
0.07543418595
0.07555182539
0.07566906018
0.07577756844
0.07588056454
0.07599501282
0.07611098895
0.07622114599
0.0763221339
0.0764235026
0.07652765634
0.07663251662
0.07674076394
0.07685217218
0.076963118
0.07706956645
0.07716517096
0.07726915407
0.07737119763
0.07746079976
0.07755430337
0.07763308981
0.0775893487
0.07734918949
0.0376191448
-0.001947154731
-0.001923394323
-0.001902189713
-0.001902191757
)


101
(
0.05121031483
0.05094230305
0.05066084211
0.05081840164
0.05126378477
0.05186364441
0.0525497321
0.05328766644
0.0540379392
0.05477906455
0.05550490041
0.05621175382
0.05688502334
0.05754077965
0.05818351931
0.05878386173
0.05934752928
0.05992906336
0.06044033507
0.06094229529
0.06149302346
0.06193088804
0.06235744378
0.06283467009
0.06328306397
0.06369774465
0.06409769617
0.06447321211
0.06483621337
0.06519801355
0.06555526825
0.06594440881
0.06618969959
0.06643324547
0.06680424323
0.06712557116
0.06744887536
0.06773952758
0.06795580371
0.06817477844
0.06849208367
0.06878601643
0.06901025023
0.06927890802
0.06952368758
0.06974699112
0.06996524203
0.07017273146
0.07038098986
0.07058720726
0.07079970811
0.07099593661
0.07119135705
0.07138912086
0.07158416201
0.07174128074
0.07191973436
0.07210446484
0.07226668957
0.07243577313
0.0725945679
0.07276050713
0.07291773248
0.07306883134
0.07321781026
0.07336706329
0.0735174221
0.07365795369
0.07379957516
0.07394283818
0.07407982258
0.07421047068
0.07434260232
0.07448218281
0.07462397799
0.07475861525
0.07488635222
0.07502677497
0.07517344256
0.07531722928
0.07545293934
0.07558810215
0.07572702586
0.07586941565
0.07601433971
0.07616403261
0.07631879882
0.07647348373
0.07661297524
0.07676244034
0.07690742274
0.07703461333
0.07717297444
0.077290454
0.07721846475
0.07685789324
0.03684656517
-0.002923010279
-0.002887378476
-0.002855619357
-0.002855670352
)


101
(
0.05070950995
0.05044997338
0.05016058713
0.05027620905
0.0506681973
0.0512145598
0.0518436084
0.05252486084
0.05322449062
0.05391656846
0.05459534054
0.05525953569
0.05588810691
0.05649952677
0.05710641734
0.05767060891
0.05819285063
0.05874528572
0.0592232619
0.0596874653
0.06022230041
0.06063608177
0.06102731585
0.06148148564
0.06191688301
0.06231944167
0.06270726834
0.06307007977
0.06341990047
0.06377091917
0.06412170264
0.06451498839
0.06475695886
0.06497864606
0.06533511079
0.06565721835
0.06598857635
0.06628795021
0.06650365973
0.06671103069
0.06702104696
0.06732088362
0.06755316428
0.0678274665
0.06807988241
0.06831103781
0.06853572343
0.06874838525
0.06896127584
0.06917266262
0.06939196169
0.06959662816
0.06980076362
0.07000781626
0.07021366359
0.0703818123
0.07056942645
0.07076413292
0.07093806411
0.07111920814
0.07129058097
0.07146959717
0.07164106539
0.07180651547
0.07196986801
0.07213409366
0.07230030025
0.07245794131
0.07261730427
0.07277849074
0.07293453429
0.07308579774
0.0732384697
0.07339882615
0.07356311123
0.07372289436
0.07387558037
0.07404102169
0.07421571581
0.07439107109
0.07456170265
0.0747315571
0.07490506802
0.07508416128
0.07526586748
0.07545404472
0.07564944884
0.07585041431
0.07603613057
0.07623231253
0.0764202138
0.07658451904
0.07676657524
0.07692263135
0.07681901423
0.07633158946
0.03605534703
-0.003898425131
-0.003850416522
-0.003807527219
-0.003807500309
)


101
(
0.0502085206
0.04995747699
0.0496607321
0.04973557767
0.050075368
0.05056931307
0.05114272504
0.05176848529
0.05241839983
0.05306256282
0.05369537641
0.05431766208
0.0549031967
0.0554715296
0.05604249925
0.05657178034
0.05705496317
0.05757685856
0.05802366748
0.05845215879
0.05896665959
0.05935926843
0.05971953324
0.06014835806
0.06056802822
0.06095817785
0.06133414603
0.0616848882
0.06202203232
0.06236154523
0.06270416392
0.06309701705
0.06333925945
0.06354808913
0.06388855763
0.06420474848
0.06453832645
0.06484405897
0.06506330061
0.06526583855
0.06556823985
0.06586819502
0.06610619166
0.06638545239
0.06664397491
0.06688214722
0.06711344566
0.06733195196
0.06754988079
0.06776616894
0.0679910548
0.06820290302
0.06841497727
0.06863037736
0.06884547469
0.06902403775
0.06922096874
0.06942485923
0.06960917484
0.06980122918
0.06998433997
0.07017556616
0.07036034096
0.07053945032
0.07071660558
0.07089497883
0.07107578345
0.07124927218
0.07142551481
0.07160383016
0.07177792772
0.07194889694
0.07212146568
0.07230170693
0.07248711766
0.07267099008
0.0728482961
0.07303820213
0.07323910022
0.07344334629
0.07364755851
0.07385259591
0.0740611744
0.07427661173
0.07449433239
0.07472075399
0.07495629647
0.07520055247
0.07543163432
0.07567673348
0.07590784719
0.0761090865
0.07633302031
0.07652656128
0.07638909227
0.07576974612
0.03524607636
-0.004872702392
-0.004813881294
-0.004761468507
-0.004761588366
)


101
(
0.04970734275
0.04946480701
0.04916126297
0.04919648812
0.04948527514
0.04992788016
0.05044703395
0.05101850159
0.05161963131
0.05221698776
0.05280493348
0.05338608336
0.0539301086
0.05445665797
0.05499180287
0.05548719606
0.05593345913
0.0564241001
0.05684114245
0.05723596092
0.0577270983
0.05809978174
0.05843286618
0.05883577645
0.05923740062
0.05961420518
0.05997830141
0.06031748099
0.06064254219
0.06097028609
0.06130338027
0.06169214898
0.06193521534
0.06213749611
0.06246423572
0.06277118843
0.06310185412
0.06341016989
0.06363351212
0.06383551459
0.06413236577
0.06442997575
0.06467103437
0.0649538889
0.06521718131
0.06546122689
0.06569869598
0.06592325879
0.0661465912
0.06636775284
0.0665974545
0.06681534772
0.06703439599
0.067257306
0.06748057577
0.06766874447
0.06787467987
0.06808723243
0.06828096335
0.06848272714
0.06867644833
0.06887882604
0.06907591593
0.06926792899
0.06945837069
0.06965029405
0.06984468563
0.0700327161
0.07022462775
0.07041912785
0.07061039822
0.07080017562
0.07099178967
0.0711909579
0.07139626454
0.07160304863
0.07180431612
0.07201828783
0.07224444152
0.07247541816
0.07271068801
0.072949949
0.07319399837
0.0734460122
0.07369941295
0.07396336958
0.07423832582
0.07452408492
0.07479860152
0.0750929778
0.07536854002
0.07560670021
0.07587068658
0.07610079539
0.07592755607
0.07517131361
0.03441671257
-0.005847850837
-0.005776854865
-0.005713423637
-0.00571341854
)


101
(
0.04920597153
0.04897195578
0.04866216488
0.04865892005
0.04889789599
0.04929023597
0.0497564867
0.05027486895
0.05082814833
0.05137978402
0.0519239375
0.05246474572
0.05296867363
0.05345476863
0.05395434152
0.05441670983
0.05482796684
0.05528717856
0.05567542503
0.05603846322
0.05650430455
0.05685733889
0.05716625013
0.0575437613
0.0579257167
0.05828795678
0.05863982339
0.05896772044
0.05928128414
0.05959736078
0.05992004019
0.06030189783
0.06054464582
0.0607439479
0.06106036957
0.06135766051
0.06168203784
0.06198904703
0.06221492839
0.06241817313
0.06271163749
0.06300653454
0.06324888676
0.06353385431
0.06380061109
0.06404924203
0.06429197764
0.06452233375
0.06475127079
0.06497748004
0.06521159468
0.06543451978
0.0656594394
0.06588891901
0.066119391
0.06631629307
0.06653082804
0.06675170722
0.06695413335
0.06716457831
0.06736770247
0.06757997521
0.06778816949
0.06799212023
0.06819526021
0.0684003292
0.06860764996
0.06880908527
0.06901529496
0.06922477148
0.0694322156
0.06963989513
0.06984972649
0.07006690342
0.07029091061
0.07051930149
0.07074356717
0.07098103539
0.0712317942
0.0714881818
0.0717521997
0.07202351331
0.07230228299
0.07259097905
0.07288003018
0.07318134199
0.07349506454
0.07382113512
0.07413652021
0.07447921147
0.07480028103
0.07507554926
0.0753784559
0.07564366128
0.07543340307
0.07453454596
0.0335661303
-0.006822299566
-0.006738044757
-0.006662518994
-0.006662273164
)


101
(
0.0487044028
0.04847891622
0.04816342346
0.04812285361
0.04831320845
0.04865635621
0.04907103637
0.04953754616
0.05004391503
0.05055089502
0.05105231698
0.05155359398
0.05201873776
0.05246571201
0.05293010692
0.05336020333
0.05373815336
0.05416615781
0.05452634087
0.05485928715
0.05529874424
0.05563189673
0.05591884094
0.05627205329
0.05663345135
0.05697991934
0.0573189197
0.0576355514
0.05793809527
0.05824283381
0.05855464772
0.05892751542
0.05916813243
0.05936581181
0.05967484949
0.05996377292
0.06028051642
0.06058327815
0.06080924398
0.06101347145
0.06130472844
0.06159730362
0.06184012386
0.06212610148
0.0623952225
0.06264721797
0.06289405754
0.06312943104
0.06336371527
0.063595119
0.0638336933
0.06406105897
0.06429073147
0.06452564036
0.06476228959
0.06496697247
0.0651894453
0.06541829424
0.06562903674
0.06584748409
0.06605896798
0.06627985332
0.06649775752
0.06671235572
0.06692730013
0.06714507858
0.06736500682
0.06757912843
0.06779834954
0.06802131032
0.06824368461
0.06846832407
0.06869558175
0.06892993954
0.06917156692
0.06942018766
0.06966619349
0.06992630169
0.0702009594
0.07048172865
0.07077281283
0.07107403056
0.07138591272
0.07171068184
0.07203507555
0.07237361302
0.07272555818
0.07309105018
0.0734453547
0.0738345348
0.07420124448
0.07451368291
0.07485497191
0.07515362141
0.07490296798
0.07385939647
0.03269703368
-0.007794774681
-0.007693968251
-0.007602799429
-0.007601527935
)


101
(
0.04820263135
0.0479856802
0.04766502318
0.04758826767
0.0477311891
0.04802621529
0.04839063536
0.04880648917
0.0492668935
0.04973026387
0.05019000015
0.05065256934
0.0510801586
0.05148933435
0.05191906756
0.0523175742
0.05266372067
0.05306101359
0.05339376438
0.05369809984
0.05411068379
0.05442353033
0.05469002364
0.05502023809
0.05536082174
0.05569053784
0.05601588645
0.0563210072
0.05661282671
0.05690665438
0.05720754974
0.05757004657
0.05780659123
0.05800249044
0.05830595415
0.05858832047
0.05889765998
0.05919457435
0.05941834547
0.05962219861
0.05991120115
0.06020170008
0.06044466096
0.06073090116
0.06100154909
0.06125593304
0.06150574997
0.06174512123
0.06198407724
0.06222041218
0.06246348787
0.06269523761
0.06292903206
0.06316821699
0.06340983514
0.06362117728
0.06385067848
0.06408696902
0.06430572706
0.06453179081
0.06475096125
0.06497944775
0.06520568875
0.06542937427
0.06565476113
0.06588446436
0.06611671867
0.06634325591
0.0665747201
0.06680976325
0.06704547545
0.06728575734
0.06752953364
0.06778037365
0.06803875483
0.06830629776
0.06857252896
0.06885414738
0.06915198091
0.06945618338
0.06977279348
0.0701020162
0.07044527805
0.07080493136
0.07116374571
0.07153898092
0.07192900269
0.07233298955
0.07272466794
0.07315826929
0.07356973444
0.073919496
0.07429872937
0.07462913741
0.07433535978
0.07314412547
0.03180984678
-0.008760642742
-0.008638135359
-0.008524479353
-0.008519604563
)


101
(
0.04770065307
0.04749224072
0.04716694959
0.04705514213
0.04715181574
0.04739978916
0.04771523851
0.04808165444
0.04849704677
0.04891783694
0.04933691928
0.04976161367
0.05015280558
0.0505254828
0.05092117656
0.05128873582
0.05160440826
0.0519716647
0.05227758427
0.05255461448
0.05294027746
0.05323237388
0.05347936832
0.05378785372
0.05410784262
0.05442016614
0.05473107789
0.05502422745
0.05530538031
0.05558869074
0.05587887983
0.05623026228
0.05646107709
0.05665417603
0.05695264543
0.05722989103
0.05753286369
0.05782369945
0.05804382489
0.05824563149
0.05853138995
0.05881945988
0.05906226255
0.05934829074
0.05961991681
0.05987598629
0.06012777178
0.06037001015
0.06061274424
0.06085347383
0.06110082617
0.0613368994
0.06157465851
0.06181747029
0.0620629041
0.06227963636
0.06251502454
0.06275793002
0.06298424505
0.0632176486
0.06344412647
0.06367955583
0.06391308042
0.06414435976
0.06437847083
0.06461872585
0.06486269319
0.06510151701
0.06534493903
0.06559112252
0.06583860886
0.06609291784
0.06635198786
0.06661846841
0.06689282562
0.06717826299
0.06746332108
0.06776487027
0.06808481898
0.0684118149
0.06875263603
0.06910788045
0.06948065755
0.06987401
0.07026605191
0.07067660842
0.0711045065
0.07154647567
0.07197395475
0.07244950404
0.07290461181
0.07329177949
0.07370822194
0.07406879697
0.07372954744
0.07238755793
0.03090702028
-0.009713268673
-0.00956371527
-0.009427690187
-0.009423590982
)


101
(
0.04719846272
0.04699858949
0.04666918682
0.04652345537
0.04657506462
0.0467770522
0.04704479969
0.04736299559
0.04773433508
0.04811355957
0.04849300579
0.04888066603
0.0492365549
0.04957400203
0.04993636886
0.0502736075
0.05055998273
0.05089799119
0.05117768726
0.0514285678
0.0517875775
0.05205857342
0.05228661467
0.05257446549
0.0528743632
0.05316901033
0.0534648345
0.05374543646
0.05401574049
0.05428878295
0.05456861464
0.05490862678
0.05513252062
0.05532151401
0.05561460278
0.0558874016
0.05618511599
0.05647049032
0.05668651301
0.05688504763
0.057166266
0.05745088037
0.05769285407
0.05797818156
0.05825031135
0.05850765749
0.05876083864
0.0590049236
0.0592502918
0.05949457246
0.05974575914
0.05998601874
0.06022765056
0.06047383418
0.06072238389
0.06094334671
0.06118329052
0.06143165021
0.06166479333
0.06190514193
0.06213866766
0.06238069072
0.06262083548
0.06285858407
0.06309978363
0.06334871777
0.063603046
0.06385369737
0.06410905509
0.06436609457
0.06462427242
0.06489087082
0.06516354813
0.06544449513
0.06573405156
0.06603662867
0.06633944804
0.06665930843
0.06699975434
0.06734877117
0.06771295139
0.068092284
0.06849237287
0.06891798857
0.06934243979
0.06978667402
0.07025131643
0.07073138385
0.07119316105
0.0717081752
0.07220541926
0.07262923242
0.07308214425
0.07347137924
0.07308441684
0.07158889783
0.02999169732
-0.01064591019
-0.01046338344
-0.01029555497
-0.01028740041
)


101
(
0.04669605525
0.04650471844
0.04617171915
0.04599318585
0.04600091213
0.04615797916
0.04637927384
0.04665046565
0.04697871813
0.04731737843
0.04765819305
0.04800966506
0.04833129173
0.04863473955
0.04896456456
0.04927211132
0.04953024257
0.04983984317
0.05009395173
0.05031973134
0.0506525587
0.05090225639
0.05111162964
0.051379714
0.05166015879
0.05193714341
0.05221743487
0.05248490643
0.05274398564
0.05300679279
0.05327660448
0.05360536609
0.05382165023
0.05400532012
0.05429209201
0.05456027854
0.0548533521
0.05513418074
0.05534657156
0.05554136985
0.05581688424
0.05609668948
0.0563367331
0.05662067615
0.05689283041
0.05715105495
0.05740522939
0.05765057861
0.05789763236
0.05814436891
0.05839855405
0.05864258207
0.05888801026
0.05913747836
0.05938879393
0.05961320725
0.05985650124
0.0601089681
0.06034781217
0.06059445037
0.06083468903
0.06108306053
0.06132950045
0.06157302494
0.06182006492
0.06207586054
0.06233860998
0.06259984107
0.06286683074
0.06313478003
0.06340324724
0.06368082912
0.06396526632
0.06425904443
0.06456275582
0.06488170884
0.06520143303
0.06553847361
0.06589776501
0.06626733897
0.06665419715
0.06705633069
0.06748116567
0.0679369441
0.0683933742
0.06887010555
0.06936931146
0.0698870697
0.07038262372
0.07093465681
0.07147202171
0.0719316913
0.0724199361
0.07283621857
0.07239915068
0.07074814247
0.0290683077
-0.01155163699
-0.01133466284
-0.01113797912
-0.01112959206
)


101
(
0.04619342542
0.0460106193
0.0456745306
0.04546431164
0.04542933435
0.04554254465
0.04571861655
0.04594401652
0.04623015418
0.0465292407
0.04683241575
0.04714854842
0.04743690806
0.04770754733
0.04800567065
0.04828416829
0.04851500853
0.04879706122
0.04902623941
0.04922788376
0.0495351606
0.04976352785
0.04995435819
0.05020331754
0.05046496694
0.05072452126
0.05098905882
0.05124290794
0.051490283
0.05174267211
0.05200265508
0.0523204287
0.05252888837
0.05270639461
0.05298575969
0.05324853961
0.05353690708
0.05381386649
0.05402347292
0.05421485894
0.05448420808
0.0547580125
0.05499463034
0.05527603414
0.05554754191
0.05580626521
0.05606120951
0.05630741929
0.05655540516
0.05680365808
0.05705989553
0.05730691702
0.05755573396
0.05780842603
0.05806238359
0.05828977851
0.05853558013
0.05879088831
0.05903406539
0.05928598428
0.05953231238
0.05978666329
0.06003919377
0.06028826916
0.0605404302
0.06080159331
0.06107074225
0.06134063077
0.06161822911
0.06189697021
0.06217577572
0.06246376739
0.06275845671
0.06306310679
0.06337928438
0.06371361709
0.0640496873
0.06440306761
0.06477976196
0.06516821516
0.06557676287
0.06600092771
0.06644839368
0.06693154607
0.06741887454
0.06792779572
0.06845958246
0.06901319998
0.06954262679
0.07013019366
0.07070473259
0.07119891885
0.07172147173
0.07216345673
0.071674534
0.06986623029
0.02813836766
-0.01242853268
-0.01217969221
-0.01195421251
-0.01194299624
)


101
(
0.04569056751
0.04551628324
0.0451776045
0.04493681005
0.04486030659
0.04493072263
0.04506278346
0.04524359872
0.0454885997
0.04574909307
0.0460156086
0.04629725299
0.04655330127
0.04679227897
0.04705958248
0.04730969711
0.0475141201
0.04776948035
0.04797440583
0.04815281069
0.04843526391
0.04864244488
0.04881480419
0.04904507757
0.04928851929
0.04953100853
0.04977979618
0.0500196932
0.05025486615
0.05049646278
0.05074660988
0.05105368376
0.05125438769
0.05142528755
0.05169636021
0.05195267452
0.05223563145
0.05250875234
0.05271636798
0.0529052731
0.05316871306
0.05343582305
0.05366757538
0.05394493412
0.05421480038
0.05447343744
0.0547287947
0.05497571879
0.05522424267
0.05547310416
0.05573040008
0.05597959294
0.05623113181
0.05648671844
0.05674326137
0.05697341561
0.05722111746
0.05747824755
0.05772444709
0.05798038008
0.0582318861
0.058491613
0.05874987229
0.0590043434
0.0592613556
0.05952708669
0.05980096133
0.06007735709
0.06036377897
0.06065248565
0.06094162814
0.06124005225
0.06154427869
0.06185807798
0.06218456722
0.06253259882
0.06288414155
0.06325342965
0.0636466792
0.06405220834
0.06448078064
0.0649264447
0.06539547309
0.06590301132
0.06641895664
0.0669601537
0.06752345458
0.06811037171
0.06867320974
0.06929535839
0.06990454016
0.07043143636
0.07098677247
0.07145344096
0.07091144512
0.06894378986
0.02720004087
-0.01328132163
-0.01300620153
-0.01275232856
-0.01273388031
)


101
(
0.04518747638
0.04502170198
0.04468092465
0.04441065881
0.04429380467
0.0443224878
0.04441173174
0.04454916311
0.04475401087
0.0449768831
0.04520770857
0.04545571645
0.04568037464
0.04588879337
0.04612618847
0.04634861292
0.04652743711
0.04675693953
0.04693830161
0.04709430936
0.04735272191
0.04753902016
0.0476929938
0.04790486873
0.04813057647
0.04835641609
0.04858963263
0.0488154419
0.04903799721
0.04926831777
0.04950837769
0.04980489574
0.04999809521
0.05016233076
0.05042456517
0.05067341393
0.0509498909
0.05121857415
0.0514244677
0.05161182675
0.05187030166
0.05213086033
0.05235673917
0.05262836896
0.05289506042
0.0531528065
0.0534082077
0.05365555166
0.0539043943
0.0541534144
0.05441080161
0.05466111138
0.05491460848
0.05517252519
0.05543145243
0.05566432455
0.05591358405
0.0561717676
0.05641976751
0.05667829286
0.05693384775
0.05719820515
0.05746163631
0.05772113935
0.05798282186
0.05825279616
0.05853043694
0.05881154285
0.0591045717
0.05940160276
0.05970051742
0.06000944166
0.06032318425
0.06064526555
0.06098001951
0.06133926462
0.06170463089
0.06208946114
0.06249894105
0.06292020587
0.06336682997
0.06383268459
0.06432282444
0.06485296418
0.06539431515
0.06596669725
0.06656152148
0.06717939843
0.06777404736
0.06843025705
0.06907191812
0.06963008846
0.07021670554
0.0707064791
0.07011064703
0.06798184036
0.0262507363
-0.01411747689
-0.01382630746
-0.01357003592
-0.01356216928
)


101
(
0.04468414707
0.0445268674
0.04418447493
0.04388583557
0.04372980441
0.04371781509
0.04376541957
0.04386066047
0.04402634308
0.04421255848
0.0444086536
0.044623877
0.04481803649
0.04499695431
0.04520537059
0.04540082628
0.04555483055
0.04575929013
0.04591777817
0.04605217459
0.04628735659
0.04645321319
0.04658895732
0.04678263637
0.04699094838
0.04720052441
0.04741845832
0.0476302389
0.04783992665
0.04805848784
0.04828802648
0.04857389542
0.04875979191
0.04891757694
0.04917084495
0.0494115208
0.04968036894
0.04994351936
0.05014729418
0.0503337122
0.05058838454
0.05084320751
0.05106298675
0.05132757901
0.05158933864
0.05184479964
0.05209953767
0.05234704213
0.05259602815
0.05284488639
0.05310175226
0.05335218439
0.05360660817
0.0538661362
0.05412697503
0.05436246862
0.05461329943
0.05487204661
0.05512079974
0.05538055943
0.05563881458
0.0559067774
0.05617465919
0.0564385985
0.05670467045
0.05697877622
0.05725967027
0.0575441974
0.05784186029
0.05814518419
0.05845245017
0.05877142933
0.05909485036
0.05942516004
0.05976704799
0.0601349301
0.06051155361
0.06091057231
0.06133613858
0.06177292997
0.06223571845
0.06271951878
0.06323003268
0.06378177754
0.06434565599
0.06494712001
0.0655734652
0.06622077742
0.06684479222
0.0675347645
0.06820692308
0.06879471173
0.0694117534
0.06992252061
0.06927141505
0.06698177412
0.02528594541
-0.01494997122
-0.01465184539
-0.01439005742
-0.01438290887
)


101
(
0.04418057222
0.04403176859
0.04368823668
0.04336231562
0.04316827871
0.0431166765
0.04312380275
0.04317803806
0.04330554733
0.04345606281
0.043618378
0.043801669
0.04396619553
0.04411662709
0.04429699884
0.04446623633
0.04459617741
0.04477638084
0.04491268373
0.04502620923
0.04523895776
0.04538492868
0.0455027033
0.04567836572
0.04586951732
0.04606312836
0.04626609315
0.04646405186
0.04666082349
0.04686725443
0.04708574616
0.04736063342
0.04753923865
0.04769086116
0.04793537138
0.04816756236
0.04842790087
0.04868429573
0.04888490158
0.04907024726
0.04932202124
0.04957237735
0.04978673579
0.05004367466
0.05029879219
0.05055015668
0.05080312073
0.05105027359
0.05129920817
0.05154778538
0.05180366867
0.05205336324
0.05230769913
0.05256789473
0.05283003489
0.05306783305
0.0533201519
0.05357940365
0.0538283168
0.05408805788
0.05434747815
0.05461778098
0.05488917475
0.05515683052
0.05542679739
0.05570471478
0.05598865677
0.05627593088
0.05657674534
0.05688430324
0.05719786555
0.05752562437
0.05785839379
0.05819716785
0.05854616339
0.05892126483
0.05930600853
0.0597164394
0.06015734607
0.06060984351
0.0610877902
0.06158722855
0.062116477
0.06268910075
0.06327325704
0.06390066524
0.06455805506
0.06523428539
0.0658850815
0.06660806495
0.06730907072
0.0679241882
0.06857124789
0.06910108732
0.06839346479
0.06594306825
0.02429876984
-0.0157907536
-0.01549230243
-0.01523240649
-0.01522913491
)


101
(
0.04367674653
0.04353639734
0.0431921931
0.0428400754
0.04260920255
0.04251904652
0.04248684047
0.04250124604
0.0425915771
0.04270734233
0.04283681899
0.04298902975
0.04312476795
0.04324768775
0.04340094716
0.04354473867
0.04365136253
0.0438080756
0.04392286543
0.04401621914
0.04420731958
0.04433403233
0.04443420568
0.04459206667
0.04476623019
0.04494407071
0.04513232502
0.04531674766
0.04550075795
0.04569489044
0.04590183817
0.04616522464
0.04633628078
0.0464819088
0.04671807527
0.04694191527
0.04719324295
0.04744172871
0.04763781358
0.04782127084
0.0480704182
0.04831748588
0.04852766025
0.04877728491
0.04902473648
0.04927006161
0.04951946658
0.04976541155
0.05001400469
0.05026214369
0.05051689313
0.05076524672
0.05101842635
0.05127820738
0.05154078493
0.05178042974
0.0520341742
0.05229394088
0.05254272787
0.0528015273
0.05306071134
0.05333186721
0.05360554852
0.05387607287
0.05414919314
0.05443041445
0.05471715438
0.05500678243
0.05530975383
0.0556197365
0.05593751782
0.0562722006
0.05661307595
0.05696014115
0.05731674652
0.05769865522
0.05808924336
0.05850783731
0.05896170299
0.05942931496
0.05992247461
0.06043595923
0.06098136457
0.06157360424
0.06217686029
0.06282712479
0.06351355863
0.06421862481
0.06489415558
0.06564833031
0.06637713971
0.06701717241
0.0676930982
0.06824089259
0.06747528156
0.06486430265
0.02328372653
-0.01664916634
-0.01635264361
-0.01609639742
-0.01609814007
)


101
(
0.04317266446
0.04304074483
0.0426963271
0.04231909125
0.0420525504
0.04192489916
0.04185449235
0.04183023434
0.04188438477
0.04196634267
0.04206391337
0.042185896
0.04229367316
0.04239001702
0.04251708695
0.04263622132
0.04272026961
0.04285424621
0.04294818265
0.04302201985
0.04319222478
0.04330034874
0.04338339294
0.04352373995
0.04368107456
0.04384326405
0.04401697816
0.04418813326
0.04435966514
0.04454156545
0.04473664218
0.04498794622
0.04515095418
0.04529049217
0.0455186779
0.04573457126
0.04597686053
0.04621673607
0.04640695699
0.04658714957
0.04683314015
0.0470775409
0.04728491526
0.04752841727
0.04776807674
0.0480058441
0.04824966702
0.04849283364
0.04874043374
0.04898801853
0.04924153684
0.04948824529
0.04973945963
0.04999760687
0.05025950474
0.05050020151
0.05075508962
0.05101554335
0.05126432143
0.05152165029
0.05177932912
0.05204972489
0.05232420401
0.05259656898
0.05287200683
0.05315581341
0.05344489993
0.05373648883
0.05404090114
0.0543520669
0.05467217406
0.05501146481
0.05535846491
0.05571279623
0.05607715505
0.05646645232
0.05686209345
0.05728572312
0.05774892469
0.05822984634
0.0587382496
0.05926507422
0.05982381614
0.06043378957
0.06105524041
0.06172562105
0.06243836641
0.06317191738
0.06387071214
0.06465355603
0.0654089785
0.06607220216
0.06677551996
0.06733976629
0.06651487875
0.06374316174
0.02223733856
-0.01752851444
-0.01723238633
-0.01697540805
-0.01697995904
)


101
(
0.04266831806
0.04254479979
0.04220061901
0.04179933667
0.04149829373
0.04133420557
0.04122671563
0.04116494962
0.04118391845
0.0412330061
0.0412995938
0.04139219971
0.04147282967
0.04154349769
0.04164528539
0.04174056075
0.04180277484
0.04191475846
0.04198850109
0.04204344846
0.04219345337
0.04228366184
0.04235013351
0.0424733553
0.04261406275
0.04276067343
0.0429199187
0.04307799171
0.04323736233
0.04340730954
0.04359044096
0.0438291796
0.04398347468
0.04411650824
0.04433685847
0.04454532314
0.04477892895
0.04500992455
0.04519325055
0.04536868511
0.04561034303
0.0458519051
0.04605744077
0.04629632228
0.04652912405
0.04675872856
0.04699501967
0.04723333049
0.04747868417
0.04772532625
0.0479776456
0.04822267672
0.04847141011
0.04872680535
0.04898664283
0.04922723833
0.04948265028
0.04974374078
0.04999278789
0.05024877668
0.05050417483
0.05077222329
0.05104574872