/*--------------------------------*- C++ -*----------------------------------*\
| =========                 |                                                 |
| \\      /  F ield         | OpenFOAM: The Open Source CFD Toolbox           |
|  \\    /   O peration     | Version:  2.3.1                                 |
|   \\  /    A nd           | Web:      www.OpenFOAM.org                      |
|    \\/     M anipulation  |                                                 |
\*---------------------------------------------------------------------------*/
FoamFile
{
    version     2.0;
    format      ascii;
    class       dictionary;
    location    "constant";
    object      GRPSI37;
}
// * * * * * * * * * * * * * * * * * * * * * * * * * * * * * * * * * * * * * //

GRPSI37_table
101
(

101
(
1.43971453e-05
0.0003054833997
0.0004968124953
0.0007225557555
0.001032844212
0.001444089393
0.001951329948
0.002573182887
0.003283648133
0.004084370963
0.004964749098
0.005922443446
0.006937483009
0.00804008577
0.009185874948
0.0103803258
0.0116339532
0.01295311711
0.01424956586
0.01568729292
0.01707856429
0.01849228447
0.02001461344
0.02153205076
0.02305565903
0.02460419682
0.02617432238
0.02775721302
0.02937411362
0.03099634686
0.03263370272
0.03426563693
0.03583550794
0.03763510449
0.03930163899
0.04097601041
0.04264048523
0.04426759689
0.04594191846
0.04768406168
0.04941572431
0.05103443398
0.05272552829
0.05440387468
0.05602113809
0.05768420732
0.05930492114
0.0609584779
0.0625780111
0.06421649553
0.06581692071
0.06741527534
0.06900270741
0.07057221306
0.07211869235
0.07364750659
0.07521971017
0.07670107618
0.07821957386
0.07969231794
0.08116871984
0.08261620068
0.08404097841
0.08545423572
0.08684524672
0.08821993167
0.08956728546
0.09089069515
0.09220363065
0.09348068082
0.09473815007
0.09597201939
0.09719509875
0.09837696772
0.09952142191
0.1006260244
0.1017222661
0.1027834134
0.1038006383
0.1047794181
0.1057188524
0.1066347413
0.1075008182
0.1083288775
0.1091103711
0.1098453729
0.1105295229
0.1111687317
0.1117573548
0.1123051891
0.1127919857
0.1132373953
0.1136345628
0.1139867786
0.1142981922
0.1147264567
0.1153411726
0.1165639027
0.1177829841
0.1189717905
0.1201605971
)


101
(
1.43971453e-05
0.0003056749419
0.0004972191187
0.0007222396823
0.00103084574
0.001439529291
0.001943533758
0.00256081437
0.003266588001
0.004061672844
0.004935968954
0.00588680523
0.006895278975
0.007988492008
0.009127055429
0.01031335851
0.01155711744
0.01286484641
0.01415811254
0.01557532523
0.01696460622
0.01837032338
0.01987198863
0.02138139006
0.02289732396
0.024435303
0.02599463196
0.02756794769
0.02917179439
0.03078498692
0.03241213173
0.03403700556
0.03561138047
0.03736070984
0.03903564358
0.04070521265
0.04236561984
0.04399485548
0.04565419346
0.04737087845
0.04909125027
0.05072748825
0.05240151833
0.05407259026
0.05569798792
0.05734768723
0.05897012049
0.06061114382
0.06223045705
0.06385900566
0.06546132042
0.06705648203
0.06864154076
0.0702111612
0.07176033847
0.07329150144
0.07484831579
0.07634589457
0.07785638354
0.07933553915
0.08080981659
0.0822613721
0.08369121328
0.08510668548
0.08650233789
0.08788067786
0.08923479672
0.09056534493
0.09188144841
0.09316768018
0.09443213545
0.09567249767
0.09689732911
0.09808896535
0.0992465604
0.1003672949
0.1014695096
0.1025405143
0.1035707082
0.1045627823
0.1055156869
0.1064391232
0.1073185431
0.1081583408
0.1089532088
0.1097034506
0.1104015255
0.1110527267
0.1116528534
0.1122122082
0.1127111962
0.1131706348
0.1135787146
0.1139417183
0.1142658502
0.1147066351
0.1153409
0.1165635884
0.1177826315
0.1189713938
0.1201601537
)


101
(
1.43971453e-05
0.0003060616611
0.000498044429
0.000721635086
0.001026891798
0.001430468659
0.001928015921
0.002536201502
0.003232576974
0.004016434441
0.004878583676
0.005815760654
0.006811054076
0.007885819089
0.009009619723
0.01017973357
0.01140403232
0.01268915874
0.01397445948
0.01535408016
0.0167356442
0.0181263499
0.01958998962
0.02108042058
0.022580425
0.02409801864
0.0256359169
0.0271896649
0.02876839734
0.03036235362
0.03196936675
0.03357923957
0.03515821994
0.03682685279
0.03850013877
0.04016041296
0.04181246631
0.04344344476
0.0450797999
0.04675243976
0.04844594548
0.05010263713
0.05175403849
0.0534093711
0.05504314487
0.05667408208
0.05829516635
0.05991681592
0.06153151999
0.0631439324
0.06474521337
0.06633483372
0.06791484326
0.06948309634
0.07103558792
0.07257085467
0.07410674405
0.075622944
0.07712577394
0.07861300055
0.08008612573
0.08154355115
0.0829819276
0.08440279186
0.08580670499
0.08719259688
0.08855856178
0.08990243084
0.0912268774
0.09252877737
0.09380762692
0.09506199991
0.09629438884
0.09750261706
0.09868250041
0.09983103835
0.1009495992
0.1020406178
0.1030957904
0.1041138791
0.1050930824
0.1060353563
0.1069398622
0.1078036002
0.1086242787
0.10940333
0.1101309497
0.1108085764
0.1114327998
0.1120161237
0.1125398348
0.1130263108
0.1134601296
0.1138464851
0.1141971628
0.114666797
0.1153404836
0.1165630839
0.1177820565
0.1189707979
0.1201595349
)


101
(
1.43971453e-05
0.0003064557927
0.0004988940816
0.000721086042
0.001023024669
0.001421527945
0.001912648213
0.002511836951
0.003198788425
0.003971510776
0.004821549881
0.005745177863
0.006727203833
0.007784139191
0.008892640149
0.01004671635
0.01125207907
0.01251514328
0.01378962476
0.01513752646
0.01650535991
0.01788210731
0.01931364996
0.02078086188
0.02226336442
0.02376158816
0.02527849292
0.02681205305
0.02836723216
0.0299402283
0.03152723507
0.03312065147
0.03469690052
0.03631572637
0.03796345763
0.03961125877
0.04125310219
0.04288121334
0.0445044871
0.04614577539
0.04780872373
0.04946295516
0.0511045361
0.05274460352
0.05437507405
0.05599671181
0.05761101797
0.05922071298
0.06082607279
0.06242699512
0.06402122208
0.06560549641
0.06718004621
0.06874453083
0.07029669201
0.07183416865
0.07336258756
0.0748806677
0.07638430836
0.07787428783
0.07934969012
0.08081052969
0.08225488438
0.08368185489
0.08509262683
0.08648604235
0.08786147597
0.08921687702
0.09055200713
0.09186629178
0.09315923779
0.09442847035
0.09567386029
0.09689624553
0.09809348354
0.09926319553
0.1004021083
0.1015135903
0.1025921544
0.103635684
0.1046407279
0.1056066848
0.1065351357
0.1074234866
0.1082694211
0.1090751038
0.1098324178
0.1105407835
0.111192465
0.1118016243
0.1123514433
0.1128648116
0.1133288094
0.1137423209
0.1141215765
0.1146260495
0.1153402043
0.1165628228
0.1177818123
0.118970535
0.1201592496
)


101
(
1.43971466e-05
0.0003068575145
0.0004997685639
0.0007205935169
0.001019245971
0.001412708927
0.001897432915
0.002487720954
0.003165230374
0.003926900811
0.004764870686
0.005675052471
0.006643744941
0.007683386032
0.008776205283
0.009914296882
0.01110118313
0.01234273182
0.01360417197
0.01492449604
0.01627500094
0.01763745099
0.01904147641
0.02048373531
0.0219468022
0.02342585148
0.0249222621
0.02643538567
0.02796792852
0.02951913623
0.03108567308
0.0326615378
0.03423006428
0.03581618457
0.03743273394
0.0390609965
0.04068925154
0.04231034707
0.0439240961
0.04554364834
0.04717906297
0.04881899653
0.05045041956
0.05207747649
0.05369937054
0.05531281602
0.05691945078
0.05851956107
0.06011519725
0.06170586051
0.06329149775
0.06486924561
0.06643804692
0.0679976386
0.06954700965
0.07108418633
0.07260955156
0.07412614191
0.07563004574
0.07712171184
0.07859957106
0.08006360622
0.0815126319
0.08294519825
0.08436216812
0.08576251698
0.0871462417
0.08851176334
0.08985777921
0.09118371818
0.09248962815
0.09377312901
0.09503306839
0.09627046423
0.09748417316
0.09867238495
0.09983073197
0.1009624209
0.1020631698
0.103131536
0.1041629034
0.1051543832
0.1061078254
0.1070213432
0.1078931392
0.1087254084
0.1095107814
0.110250451
0.1109339545
0.1115716673
0.1121494948
0.1126915419
0.1131859968
0.1136313155
0.1140412537
0.1145838318
0.1153399279
0.1165627159
0.1177818291
0.1189704195
0.1201590243
)


101
(
1.439714525e-05
0.0003072668645
0.0005006682145
0.0007201582238
0.001015556887
0.001404013004
0.001882371658
0.002463853048
0.003131909482
0.003882603526
0.004708548012
0.005605379397
0.006560690205
0.007583501012
0.008660378836
0.009782477239
0.01095127763
0.0121718489
0.01341854571
0.01471416135
0.01604531042
0.01739251136
0.01877231359
0.02018939841
0.02163138887
0.0230908741
0.02456711617
0.02605979677
0.02757029864
0.02909937076
0.03064481048
0.03220209186
0.03375938319
0.03532198168
0.03690895925
0.03851276027
0.04012342382
0.04173325553
0.04333740678
0.04494098259
0.04655373908
0.0481751511
0.04979326163
0.05140750146
0.05301855074
0.05462276275
0.05622107199
0.05781234858
0.05939861969
0.06097951006
0.0625561161
0.06412644646
0.06568906259
0.06724330475
0.06878860833
0.07032357005
0.07184654932
0.07336107641
0.07486411819
0.07635640996
0.07783616521
0.07930313072
0.0807563042
0.08219404804
0.08361683307
0.0850235824
0.08641473967
0.08778929125
0.08914573072
0.09048309455
0.09180140973
0.09309850101
0.09437295142
0.09562568621
0.09685591372
0.0980620912
0.09923935976
0.1003907411
0.1015126398
0.1026044801
0.1036619523
0.1046803221
0.1056601493
0.1065998302
0.1074980885
0.10835757
0.1091712282
0.1099409864
0.110658096
0.1113278179
0.1119360944
0.112508503
0.1130341249
0.1135144518
0.1139574379
0.1145397296
0.1153397333
0.1165624577
0.1177815132
0.1189700769
0.1201586616
)


101
(
1.43971453e-05
0.0003076842068
0.0005015936674
0.0007197813138
0.001011959209
0.001395442353
0.001867467
0.002440234056
0.003098833924
0.003838621271
0.004652586678
0.005536158978
0.006478054314
0.0074844387
0.008545213667
0.009651273729
0.01080231389
0.01200242375
0.01323311079
0.01450596232
0.01581671272
0.01714756014
0.01850534487
0.01989784903
0.02131765507
0.02275689833
0.02421302586
0.02568534931
0.02717427509
0.02868116216
0.03020493511
0.03174257504
0.03328592716
0.0348296156
0.03639083606
0.03796893618
0.03955831191
0.04115266171
0.04274511131
0.04433513332
0.04592938439
0.04753208549
0.04913466844
0.05073512113
0.0523339
0.05392754332
0.05551663487
0.05709907527
0.05867624853
0.06024763085
0.0618149484
0.06337715777
0.0649330415
0.06648161963
0.06802230053
0.06955403255
0.07107438461
0.07258651418
0.07408791514
0.07557978401
0.07706051231
0.07852979304
0.07998665591
0.08142929681
0.08285777541
0.08427068421
0.08566866369
0.08705128974
0.08841738525
0.08976582659
0.09109628599
0.09240660455
0.09369526255
0.09496317013
0.09620976322
0.09743377703
0.09863004536
0.09980111003
0.1009436429
0.102057853
0.1031402298
0.1041858572
0.1051934582
0.1061607733
0.1070866394
0.1079740902
0.1088163825
0.1096164585
0.110366356
0.1110710146
0.1117121681
0.1123170604
0.1128756224
0.1133920875
0.1138707968
0.1144927302
0.1153398129
0.1165622615
0.1177810779
0.1189695608
0.1201579885
)


101
(
1.43971453e-05
0.0003081096916
0.0005025453777
0.0007194637084
0.001008454414
0.001386998682
0.001852720713
0.002416863669
0.003066010271
0.003794955401
0.00459698955
0.005467389181
0.006395848308
0.007386158059
0.008430748531
0.009520708178
0.01065425119
0.01183438638
0.01304814647
0.0142995388
0.01558943295
0.0169028793
0.01824002652
0.01960888439
0.02100594007
0.0224242171
0.02386003751
0.02531204963
0.02677978731
0.02826464373
0.02976638407
0.03128340138
0.03281052341
0.03433713678
0.03587625048
0.03742968719
0.03899589436
0.04057123307
0.04214893768
0.04372533039
0.04530358206
0.04688884233
0.04847519578
0.05006095328
0.05164632454
0.05322807669
0.0548068411
0.05637998544
0.05794816056
0.05951034232
0.06106826424
0.06262167885
0.06417007277
0.06571249506
0.0672481541
0.06877610447
0.07029360979
0.0718032206
0.07330258382
0.07479322428
0.07627392498
0.07774462778
0.07920445577
0.08065159419
0.08208569779
0.08350484278
0.0849094184
0.08629940148
0.08767424293
0.08903313623
0.09037549331
0.09169887155
0.09300155226
0.09428437444
0.09554700064
0.09678852492
0.09800381119
0.09919479459
0.1003580479
0.101494249
0.1026006558
0.1036728175
0.104708715
0.1057048227
0.1066596678
0.1075764078
0.1084479371
0.1092788835
0.1100611187
0.1108018986
0.111478018
0.112117594
0.1127110968
0.113264439
0.1137817636
0.1144455065
0.1153397088
0.1165620615
0.1177807521
0.1189689005
0.1201569951
)


101
(
1.439714795e-05
0.0003085435258
0.0005035239836
0.0007192065703
0.001005044335
0.001378684261
0.001838135371
0.002393742638
0.003033445845
0.003751609136
0.004541761537
0.005399070607
0.006314084498
0.007288625274
0.008317011387
0.009390808071
0.01050706059
0.01166767194
0.0128638659
0.01409465873
0.01536358318
0.0166587432
0.01797602331
0.01932221431
0.02069640896
0.02209311869
0.02350828658
0.02493993247
0.0263867714
0.02784986752
0.02932943403
0.03082504745
0.03233401933
0.03384370452
0.0353632543
0.03689409723
0.0384370037
0.03999105638
0.04155101986
0.04311219876
0.04467518167
0.04624423234
0.04781456955
0.04938524302
0.05095649725
0.05252528512
0.05409253421
0.0556555373
0.0572144413
0.05876765044
0.06031644863
0.06186077676
0.06340081505
0.06493623716
0.06646627836
0.06798989864
0.06950427675
0.07101145246
0.07250876338
0.07399779788
0.07547772778
0.0769488752
0.07841066611
0.07986154275
0.08130100057
0.08272657026
0.08413796202
0.08553508917
0.08691790505
0.08828634889
0.08964007588
0.09097633133
0.09229301476
0.09359067341
0.09486905459
0.09612764685
0.097361743
0.09857289234
0.09975715688
0.1009152991
0.102045439
0.1031435898
0.1042075635
0.1052328682
0.1062176117
0.1071650368
0.1080672005
0.108929581
0.1097448733
0.1105214196
0.1112347507
0.1119106349
0.1125411647
0.1131322535
0.1136904658
0.1143986958
0.1153392847
0.1165615549
0.1177801023
0.1189676669
0.1201550948
)


101
(
1.439714795e-05
0.000308985899
0.0005045298608
0.0007190107078
0.001001730299
0.001370500696
0.001823712835
0.002370870994
0.003001146068
0.003708584144
0.004486905159
0.005331202073
0.006232771816
0.007191810277
0.008204018103
0.009261596998
0.01036071794
0.01150221305
0.01268042727
0.01389117868
0.01513920297
0.01641537973
0.01771314306
0.01903754241
0.02038909005
0.02176383696
0.02315794315
0.02456904802
0.02599516718
0.02743681846
0.02889427733
0.03036795935
0.03185719492
0.03334919653
0.03485042465
0.0363607389
0.03788142131
0.03941338231
0.04095334154
0.04249713803
0.04404418322
0.04559751705
0.04715223802
0.04870785001
0.05026468095
0.05181979948
0.05337450048
0.05492640478
0.05647542456
0.05801950239
0.0595594305
0.06109487362
0.06262620125
0.06415370944
0.06567722586
0.0671957876
0.06870654459
0.0702111691
0.0717065368
0.07319398926
0.07467282406
0.07614369419
0.07760642888
0.07905995866
0.08050402409
0.08193593443
0.08335454009
0.08475912161
0.08614966257
0.08752682117
0.08889103502
0.09023972111
0.09157034766
0.092882944
0.09417705808
0.0954524657
0.09670495125
0.09793623099
0.099141932
0.1003222127
0.1014757794
0.1025997201
0.1036916418
0.1047463866
0.1057612992
0.1067404063
0.1076749178
0.108569264
0.1094185504
0.1102309078
0.1109832389
0.111696737
0.1123659525
0.1129962511
0.11359682
0.114349768
0.1153387769
0.1165606211
0.117778673
0.1189651026
0.1201517556
)


101
(
1.43971438e-05
0.0003094369723
0.0005055635
0.0007188771169
0.0009985139066
0.001362449939
0.001809455386
0.002348249376
0.002969116662
0.003665883175
0.00443242374
0.005263784109
0.006151918954
0.007095691335
0.008091781874
0.009133099871
0.01021520977
0.01133795382
0.01249793725
0.01368902911
0.0149163094
0.01617297301
0.01745130182
0.0187546017
0.02008390096
0.02143652572
0.02280919335
0.02419948442
0.02560492803
0.02702543057
0.02846101103
0.02991253009
0.03138085522
0.0328539903
0.03433706359
0.03582828629
0.03732827507
0.03883852039
0.04035728444
0.04188175657
0.04341138909
0.04494854829
0.04648782331
0.04802850126
0.04957089215
0.05111205204
0.05265344824
0.05419323383
0.05573159808
0.05726612272
0.05879715948
0.06032392707
0.06184666494
0.06336586611
0.06488195055
0.06639450477
0.06790081734
0.06940247927
0.07089587389
0.0723818863
0.07385965726
0.07532994328
0.07679290364
0.07824797619
0.0796954611
0.08113296912
0.0825589022
0.08397149428
0.08537015487
0.08675575271
0.08812957387
0.08948983962
0.09083404284
0.09216167309
0.09347175742
0.09476401539
0.09603451607
0.09728547896
0.09851282734
0.09971582243
0.1008927073
0.1020420516
0.1031620106
0.1042466593
0.1052920757
0.1063029429
0.1072712758
0.1081988389
0.1090822578
0.1099313349
0.1107232871
0.1114760515
0.1121853835
0.1128566031
0.1135007121
0.1142994157
0.1153378226
0.1165587932
0.1177758335
0.1189602234
0.1201448098
)


101
(
1.439714775e-05
0.0003098971684
0.0005066259054
0.0007188075151
0.0009953978033
0.001354535394
0.001795367174
0.002325880752
0.002937366078
0.003623513349
0.00437832565
0.005196823192
0.006071539499
0.007000255258
0.007980317163
0.009005348586
0.01007053963
0.01117485101
0.01231648477
0.01348817992
0.01469491706
0.0159317095
0.0171905177
0.01847320477
0.01978071646
0.02111126649
0.02246222718
0.02383139183
0.02521606981
0.02661563837
0.0280296648
0.02945904537
0.03090569494
0.03235876833
0.03382311105
0.03529583831
0.03677647404
0.03826610493
0.03976360979
0.04126746248
0.04277804804
0.0442978841
0.04582133784
0.0473470508
0.04887504407
0.05040223016
0.05193000749
0.05345689077
0.05498359778
0.05650786451
0.05802972563
0.05954790278
0.06106224368
0.06257316537
0.0640813792
0.06558703203
0.0670879146
0.06858582838
0.07007691496
0.07156153207
0.0730383947
0.07450813333
0.07597102239
0.07742684657
0.0788765352
0.08031835144
0.081750971
0.08317186108
0.08457935986
0.08597376274
0.08735680173
0.08872771821
0.09008476151
0.09142723375
0.09275354363
0.09406289261
0.09535145112
0.09662170039
0.09787028448
0.09909636287
0.100297063
0.101471345
0.1026190621
0.1037341767
0.1048111129
0.1058534353
0.1068560998
0.1078187696
0.1087367612
0.1096230577
0.1104550195
0.1112486807
0.1119993645
0.1127132514
0.1134020512
0.1142482617
0.1153359972
0.1165554583
0.1177708051
0.1189519628
0.1201332221
)


101
(
1.43971505e-05
0.0003103667029
0.0005077175483
0.0007188028694
0.0009923835963
0.001346759054
0.001781450509
0.002303765707
0.002905898979
0.003581477698
0.004324614817
0.005130320144
0.005991640679
0.006905484192
0.007869624316
0.00887836454
0.009926705386
0.01101285408
0.01213611458
0.01328861305
0.01447502082
0.01569171095
0.01693083695
0.01819321419
0.01947937556
0.02078803264
0.02211716018
0.02346491253
0.02482863385
0.02620735581
0.02760014767
0.02900763427
0.03043225567
0.03186428123
0.033308927
0.0347629795
0.03622504756
0.03769530472
0.03917226765
0.04065513095
0.04214543369
0.04364649177
0.04515308816
0.04666348101
0.04817700941
0.04969025137
0.05120437767
0.05271796037
0.05423219965
0.05574532748
0.05725734198
0.05876669639
0.06027277946
0.06177560178
0.06327587585
0.06477413699
0.0662687303
0.06776185756
0.06924992961
0.0707328964
0.0722089001
0.07367830402
0.07514122247
0.07659751047
0.07804849132
0.07949326927
0.08093125729
0.0823599432
0.08377669248
0.08518063791
0.08657320021
0.08795424954
0.08932314605
0.09067975887
0.09202225178
0.09334912138
0.09465611886
0.09594565407
0.09721498072
0.0984639774
0.09968913219
0.1008883826
0.1020631099
0.1032087008
0.1043183117
0.1053926642
0.1064291792
0.1074283114
0.1083826645
0.1093058469
0.1101785002
0.1110143383
0.1118076339
0.1125658451
0.1133002947
0.1141951069
0.1153326179
0.1165495151
0.1177620997
0.1189388577
0.1201155795
)


101
(
1.43971559e-05
0.0003108459669
0.0005088393006
0.0007188647351
0.0009894737241
0.001339124029
0.001767709117
0.002281906723
0.002874722222
0.003539782239
0.004271298779
0.005064280827
0.005912233329
0.006811369414
0.007759708314
0.008752173688
0.009783716751
0.01085193409
0.01195685186
0.01309032722
0.01425662781
0.01545309019
0.01667235088
0.01791456665
0.01917975083
0.02046678377
0.0217740904
0.02310021317
0.02444272679
0.02580055363
0.02717234857
0.0285582839
0.02996087098
0.03137122744
0.03279518345
0.03422983723
0.03567340285
0.03712516482
0.03858273884
0.04004509842
0.04151453817
0.04299551748
0.04448384147
0.0459780686
0.04747683775
0.04897606747
0.0504765838
0.05197677272
0.05347803047
0.05497922208
0.05648064383
0.05798059202
0.05947819215
0.06097306774
0.06246548452
0.06395617526
0.06544391074
0.06693138612
0.06841550187
0.06989618187
0.07137114118
0.07284029245
0.07430349702
0.07576040244
0.0772123646
0.07865911687
0.08010099504
0.08153622028
0.08296185755
0.08437590115
0.08577867631
0.08716999533
0.08855000221
0.08991967787
0.09127773262
0.09262232424
0.0939483298
0.09525755995
0.09654746992
0.09781893778
0.09906885407
0.1002938075
0.10149507
0.1026702902
0.1038131378
0.1049210151
0.105990986
0.1070267354
0.1080193813
0.1089798074
0.1098933895
0.1107725398
0.111609666
0.112413775
0.113194851
0.1141386467
0.1153269586
0.1165401862
0.1177488809
0.1189199019
0.1200891701
)


101
(
1.43971613e-05
0.0003113351059
0.0005099916872
0.000718994188
0.0009866699823
0.001331632584
0.001754145454
0.002260304659
0.00284384063
0.003498431074
0.00421838147
0.004998708033
0.005833323749
0.00671789911
0.007650566896
0.008626790416
0.009641582806
0.01069205992
0.01177871001
0.01289331016
0.01403972827
0.01521593083
0.01641514954
0.01763723394
0.01888172593
0.02014743899
0.02143305002
0.02273742433
0.02405847287
0.02539523711
0.02674614697
0.02811088362
0.02949166154
0.03088009774
0.03228260008
0.03369690877
0.03512143482
0.03655497151
0.03799418284
0.03943702504
0.0408858732
0.04234600622
0.04381465674
0.04529135125
0.04677466836
0.04825968877
0.04974654252
0.0512333838
0.0527214691
0.05421007906
0.0557000947
0.05719001965
0.05867867617
0.06016543686
0.06165016135
0.06313322068
0.06461375114
0.06609492743
0.06757416757
0.06905175279
0.07052523097
0.07199394658
0.07345751061
0.07491530218
0.0763684871
0.07781687872
0.07926154535
0.08070176726
0.08213513211
0.08355913876
0.08497276222
0.08637498585
0.08776604095
0.08914781189
0.09052021107
0.09188196656
0.09322742936
0.09455710826
0.09586781119
0.09716130463
0.09843576534
0.09968725487
0.1009154833
0.1021193788
0.1032949779
0.1044378967
0.1055419231
0.1066138547
0.1076459121
0.1086450323
0.1095997534
0.1105230626
0.1114047117
0.1122559282
0.113084868
0.1140778771
0.1153176882
0.1165262134
0.1177299453
0.1188939726
0.1200591072
)


101
(
1.43971506e-05
0.0003118341275
0.0005111748893
0.000719191823
0.0009839735277
0.001324286142
0.001740760848
0.002238958927
0.002813256814
0.003457426183
0.004165863714
0.004933601643
0.005754914648
0.006625059039
0.007542189293
0.008502219409
0.009500307588
0.01053320357
0.01160167812
0.01269754714
0.01382430253
0.01498027995
0.01615931799
0.01736121649
0.01858519553
0.01982988236
0.02109400959
0.02237664541
0.02367602237
0.0249914709
0.02632143878
0.02766523795
0.02902459297
0.0303911806
0.03177178695
0.03316487241
0.0345694674
0.03598443308
0.03740576722
0.03883020784
0.04025934718
0.04169861749
0.04314658857
0.0446042163
0.04607084362
0.04754111943
0.04901416802
0.05048764662
0.05196258043
0.05343829331
0.0549161689
0.05639527372
0.05787445719
0.05935276147
0.06082974589
0.06230532014
0.06377845133
0.06525274197
0.06672629636
0.06819989905
0.06967119909
0.07113911694
0.0726028931
0.07406167694
0.0755164072
0.07696662696
0.07841365302
0.07985768008
0.08129730783
0.0827303085
0.08415486107
0.0855687144
0.08697142974
0.08836503071
0.08975051137
0.09112808857
0.09249264628
0.09384344413
0.09517576678
0.0964911605
0.09778939046
0.09906758905
0.1003238273
0.1015562116
0.1027635551
0.1039422152
0.1050817583
0.1061895741
0.1072614715
0.1083009873
0.1092969019
0.1102654661
0.1111920994
0.1120910497
0.1129692156
0.1140126255
0.1153035498
0.1165060956
0.1177035385
0.1188594623
0.1200167471
)


101
(
1.43971506e-05
0.0003123439372
0.000512391172
0.0007194604402
0.0009813885402
0.001317090173
0.001727561924
0.002217875827
0.002782982048
0.003416780412
0.004113759517
0.004868976873
0.005677025593
0.00653285725
0.00743458622
0.008378493182
0.009359923209
0.01037537704
0.0114257758
0.0125030524
0.01361036224
0.01474622593
0.01590499534
0.01708661622
0.01829015016
0.01951404834
0.02075695292
0.022017982
0.02329558881
0.02458945508
0.02589827752
0.02722121737
0.02855951722
0.02990460643
0.03126324033
0.03263451008
0.03401823802
0.03541379746
0.03681707643
0.03822389118
0.03963444263
0.0410536546
0.04248065001
0.04391790573
0.0453662133
0.04682067384
0.04827958663
0.04973962915
0.05120140924
0.05266412237
0.05412940381
0.05559692585
0.05706593528
0.05853532745
0.06000433864
0.06147246705
0.06293828522
0.06440539831
0.06587251089
0.06734111539
0.0688093021
0.07027587628
0.07173954392
0.07319923569
0.07465562823
0.07610797857
0.07755747103
0.07900472013
0.08044938068
0.08189000242
0.08332478008
0.08475058531
0.08616583312
0.08757189573
0.08896996009
0.09036174549
0.09174391354
0.09311577579
0.09447074289
0.09580866604
0.09713004364
0.09843426355
0.09971920487
0.1009807715
0.1022190322
0.1034331626
0.1046099076
0.105753915
0.1068654572
0.1079468243
0.1089841364
0.1099987838
0.1109714824
0.1119183302
0.1128469634
0.1139416271
0.1152834363
0.1164788561
0.1176687893
0.1188153976
0.1199596422
)


101
(
1.43971613e-05
0.000312864859
0.0005136408395
0.000719801564
0.0009789174694
0.001310047835
0.001714552203
0.002197057616
0.002753022765
0.003376501409
0.004062075597
0.00480483944
0.00559966557
0.006441292158
0.00732775504
0.008255626453
0.009220450117
0.01021857689
0.01125100322
0.01230981443
0.01339788459
0.01451379286
0.01565227836
0.01681352694
0.01799659737
0.01919984674
0.02042178866
0.02166144122
0.02291732021
0.02418939703
0.02547677717
0.0267787531
0.02809622478
0.02942026013
0.03075718574
0.03210640144
0.03346847854
0.03484358527
0.03622808466
0.03761738599
0.03901035072
0.04041068462
0.04181722559
0.04323345086
0.04466189738
0.04609896728
0.04754289819
0.0489893121
0.05043790443
0.05188760708
0.05334003013
0.0547953357
0.05625339637
0.05771327574
0.05917398645
0.06063458254
0.06209319216
0.06355307741
0.06501324242
0.0664759254
0.06793994235
0.06940429448
0.07086733441
0.07232760633
0.07378550133
0.07524013971
0.07669236315
0.07814275737
0.07959167684
0.08103865352
0.0824824722
0.0839197703
0.08534809609
0.08676771418
0.08817896796
0.0895840497
0.09098189117
0.09237347581
0.09375134869
0.09511303338
0.09645794666
0.09778714396
0.0991005692
0.1003923664
0.1016613964
0.1029099319
0.1041249992
0.1053063686
0.1064570498
0.1075811763
0.1086607816
0.1097215182
0.1107419401
0.1117369856
0.112716952
0.1138631379
0.1152561343
0.1164434262
0.117624836
0.1187608966
0.1198974041
)


101
(
1.439715055e-05
0.0003133965784
0.0005149230889
0.0007202151594
0.0009765606858
0.00130315953
0.001701731794
0.002176501784
0.002723378754
0.003336589313
0.004010809996
0.004741185141
0.005522831243
0.006350349031
0.007221677087
0.00813360903
0.009081889449
0.01006278717
0.0110773325
0.01211779383
0.01318681626
0.01428294821
0.01540121433
0.01654201621
0.01770455816
0.0188872021
0.02008837495
0.02130691979
0.02254124788
0.02379145969
0.02505709444
0.02633782734
0.02763449024
0.02893781462
0.03025350394
0.03158079823
0.03292079809
0.03427451915
0.03563915626
0.03701035357
0.03838615223
0.03976874637
0.04115600983
0.04255143333
0.04395893407
0.04537686183
0.04680435462
0.04823653599
0.04967184546
0.05110855252
0.05254802704
0.05399064507
0.05543693712
0.05688654289
0.05833844595
0.0597913819
0.06124288167
0.06269565534
0.06414864507
0.06560461582
0.06706338558
0.0685244118
0.06998609019
0.07144644574
0.07290547526
0.07436227199
0.07581731655
0.07727099446
0.0787238672
0.08017627232
0.08162780319
0.08307552578
0.08451671284
0.08595069299
0.08737642866
0.0887952589
0.09020742959
0.09161651413
0.09301630663
0.09440253061
0.09577217959
0.09712600035
0.09846697364
0.09978973777
0.1010901914
0.1023720915
0.1036254556
0.1048458292
0.1060353244
0.107202616
0.1083258995
0.1094325646
0.1105017629
0.1115458815
0.1125779414
0.113776301
0.1152205714
0.1163984063
0.1175700478
0.1186943778
0.1198198313
)


101
(
1.439715055e-05
0.0003139401913
0.0005162405233
0.0007207044801
0.000974323044
0.001296431677
0.001689108577
0.002156216106
0.002694061833
0.003297058884
0.003959981225
0.004678031786
0.005446545932
0.006260044995
0.007116366449
0.008012465861
0.008944279475
0.009908044785
0.0109048025
0.01192701006
0.0129771581
0.01405372376
0.01515189385
0.01627223527
0.01741416549
0.01857617224
0.01975667731
0.02095435791
0.02216741596
0.02339587007
0.02463955263
0.02589868182
0.02717431624
0.02845707454
0.02975200791
0.03105783138
0.03237573789
0.03370744921
0.03505110206
0.03640315666
0.03776147269
0.03912703129
0.04049631679
0.04187193579
0.043258317
0.04465565435
0.04606486493
0.04748156511
0.04890326695
0.05032695964
0.05175349347
0.05318317613
0.05461697198
0.05605533343
0.05749769304
0.0589425783
0.06038707303
0.0618330467
0.06327900692
0.06472782627
0.06618026031
0.06763674772
0.0690960101
0.07055584764
0.07201558977
0.07347415957
0.07493185359
0.07638889297
0.07784566593
0.07930290907
0.08076097437
0.08221779106
0.08367087165
0.08511918297
0.08656053907
0.08799454412
0.08942108429
0.09084593315
0.0922656288
0.09367587103
0.095071247
0.09645049496
0.09781817174
0.09917173684
0.1005047869
0.1018197992
0.103110495
0.1043712359
0.1055998223
0.1068103555
0.1079787456
0.1091314646
0.1102498177
0.111344172
0.1124292664
0.1136798589
0.1151758065
0.1163425574
0.1175027861
0.1186141532
0.1197238061
)


101
(
1.43971506e-05
0.0003144958706
0.0005175954683
0.0007212707511
0.0009722066104
0.001289867003
0.001676685403
0.002136202084
0.002665075631
0.003257914908
0.003909596492
0.004615383354
0.005370817066
0.006170381465
0.00701181744
0.007892196097
0.008807627905
0.009754358241
0.01073342017
0.01173746455
0.01276888711
0.01382609104
0.01490432882
0.01600426679
0.01712552263
0.01826680623
0.01942665282
0.02060364083
0.02179572562
0.02300267555
0.02422438403
0.02546155335
0.02671576451
0.02797786135
0.02925231592
0.03053724734
0.03183340409
0.03314293767
0.03446478078
0.0357964318
0.0371363013
0.03848480807
0.03983709425
0.04119430768
0.0425603296
0.04393639786
0.04532555789
0.04672494208
0.04813208382
0.04954267336
0.05095635144
0.05237300578
0.05379382728
0.0552199572
0.05665164394
0.05808777285
0.05952501666
0.06096451665
0.06240388752
0.06384566532
0.06529103703
0.06674173298
0.06819721023
0.06965550816
0.07111544634
0.07257537529
0.07403539681
0.07549562963