/*--------------------------------*- C++ -*----------------------------------*\
| =========                 |                                                 |
| \\      /  F ield         | OpenFOAM: The Open Source CFD Toolbox           |
|  \\    /   O peration     | Version:  2.3.1                                 |
|   \\  /    A nd           | Web:      www.OpenFOAM.org                      |
|    \\/     M anipulation  |                                                 |
\*---------------------------------------------------------------------------*/
FoamFile
{
    version     2.0;
    format      ascii;
    class       dictionary;
    location    "constant";
    object      GRPSI44;
}
// * * * * * * * * * * * * * * * * * * * * * * * * * * * * * * * * * * * * * //

GRPSI44_table
101
(

101
(
-3.397128232e-17
-1.175559713e-10
-9.86580415e-10
-4.136018293e-09
-1.138548338e-08
-2.410655779e-08
-4.331360619e-08
-7.181050814e-08
-1.097984505e-07
-1.597710421e-07
-2.225654398e-07
-3.007255126e-07
-3.936704434e-07
-5.064308301e-07
-6.337452101e-07
-7.748427186e-07
-9.272635052e-07
-1.084298642e-06
-1.228831522e-06
-1.362109299e-06
-1.459673088e-06
-1.516400776e-06
-1.515749964e-06
-1.458276024e-06
-1.346298642e-06
-1.183834772e-06
-9.818113732e-07
-7.531105988e-07
-4.994409118e-07
-2.39492179e-07
2.066541188e-08
2.646150607e-07
4.632760379e-07
6.617074282e-07
7.670257044e-07
8.039453703e-07
-4.566391611e-07
-1.952476623e-06
-2.697483617e-07
2.000905274e-07
3.608043276e-07
4.545715336e-07
5.422267092e-07
6.286137001e-07
7.087871545e-07
7.767153768e-07
8.376189638e-07
8.76264485e-07
9.093919963e-07
9.234058846e-07
9.302250439e-07
9.250792106e-07
9.095413461e-07
8.745689581e-07
8.279194919e-07
7.822345388e-07
7.248939993e-07
6.769318535e-07
6.197269912e-07
5.657311054e-07
5.056439859e-07
4.517777997e-07
3.993323147e-07
3.464977056e-07
2.907415328e-07
2.460948128e-07
2.046467617e-07
1.663562438e-07
1.319259466e-07
1.032608089e-07
7.867210209e-08
5.912745462e-08
4.346611353e-08
3.059842271e-08
1.845061606e-08
1.131989653e-08
7.873245356e-09
5.147814336e-09
3.265343738e-09
2.010028418e-09
1.209290846e-09
6.834923779e-10
3.859515027e-10
1.838094417e-10
9.105681852e-11
6.093463239e-11
4.300841165e-11
2.875139262e-11
1.779280358e-11
9.044053269e-12
6.087640818e-12
4.18618856e-12
2.61564514e-12
1.451292045e-12
8.588368641e-13
5.112240646e-13
1.499795164e-13
2.73009971e-13
5.160429027e-13
1.480928399e-12
3.593340454e-12
)


101
(
-3.397128225e-17
-1.146448607e-10
-9.691558823e-10
-4.071842401e-09
-1.120512571e-08
-2.368824266e-08
-4.245608783e-08
-7.014140733e-08
-1.068480593e-07
-1.54772074e-07
-2.145300552e-07
-2.882506829e-07
-3.751170609e-07
-4.792979887e-07
-5.956899649e-07
-7.226359673e-07
-8.570857025e-07
-9.920233496e-07
-1.11098509e-06
-1.212337735e-06
-1.27453296e-06
-1.290007698e-06
-1.242968206e-06
-1.132977429e-06
-9.621259564e-07
-7.346411939e-07
-4.615867786e-07
-1.565740033e-07
1.759951098e-07
5.183005142e-07
8.62439752e-07
1.19429932e-06
1.487221044e-06
1.776459917e-06
1.978356305e-06
2.112936768e-06
1.284810021e-06
7.294455648e-08
1.185441181e-06
1.77789593e-06
2.051969508e-06
2.187766044e-06
2.285155949e-06
2.366318954e-06
2.428280789e-06
2.471079951e-06
2.499080151e-06
2.49930239e-06
2.48388859e-06
2.444373868e-06
2.389297772e-06
2.317564327e-06
2.233628156e-06
2.134714238e-06
2.020006017e-06
1.897152323e-06
1.760125906e-06
1.627380781e-06
1.489684687e-06
1.354412933e-06
1.218564249e-06
1.089086835e-06
9.641791273e-07
8.448361502e-07
7.293212939e-07
6.251028391e-07
5.287262453e-07
4.407588587e-07
3.624664468e-07
2.933733624e-07
2.332706565e-07
1.821246367e-07
1.403882055e-07
1.058417841e-07
7.644181167e-08
5.429546116e-08
3.840864162e-08
2.647815776e-08
1.78697527e-08
1.175602105e-08
7.549061547e-09
4.669069506e-09
2.82409742e-09
1.622723447e-09
8.986118175e-10
4.939199325e-10
2.811117846e-10
1.724397899e-10
1.01493137e-10
5.783374678e-11
3.531763763e-11
2.198851215e-11
1.430991458e-11
8.868661091e-12
5.696619334e-12
3.534605704e-12
1.386590567e-12
3.24185285e-12
7.282630142e-12
2.393552255e-11
5.183324411e-11
)


101
(
-3.397128225e-17
-1.088857953e-10
-9.347034199e-10
-3.945309436e-09
-1.085108069e-08
-2.287143556e-08
-4.079139302e-08
-6.691952118e-08
-1.011817946e-07
-1.452235971e-07
-1.992557692e-07
-2.646526017e-07
-3.40182394e-07
-4.28464031e-07
-5.246913239e-07
-6.257060062e-07
-7.273849772e-07
-8.222185e-07
-8.950006292e-07
-9.392014361e-07
-9.378636783e-07
-8.796800563e-07
-7.498394637e-07
-5.45860436e-07
-2.692281217e-07
7.616745536e-08
4.793001863e-07
9.252965271e-07
1.405509959e-06
1.903025416e-06
2.406320288e-06
2.905553195e-06
3.378747214e-06
3.847888748e-06
4.247896498e-06
4.524370301e-06
4.389675464e-06
3.728875724e-06
4.075840201e-06
4.741412978e-06
5.208273082e-06
5.474187571e-06
5.633963377e-06
5.735917762e-06
5.796391695e-06
5.825890745e-06
5.824577101e-06
5.78896968e-06
5.716899672e-06
5.61107273e-06
5.470872083e-06
5.30262655e-06
5.11288905e-06
4.906011697e-06
4.677801949e-06
4.431991698e-06
4.162462105e-06
3.88399935e-06
3.601086305e-06
3.314849253e-06
3.031927716e-06
2.754783964e-06
2.484849153e-06
2.225359085e-06
1.976145529e-06
1.737803807e-06
1.514048769e-06
1.304502747e-06
1.115040916e-06
9.424984759e-07
7.862231748e-07
6.46234571e-07
5.252402537e-07
4.212155446e-07
3.318581619e-07
2.566323962e-07
1.946607944e-07
1.448145286e-07
1.058069977e-07
7.596586118e-08
5.353125581e-08
3.662063361e-08
2.449043818e-08
1.591605742e-08
9.973673807e-09
6.019340492e-09
3.50193959e-09
2.0843983e-09
1.237644593e-09
6.975667606e-10
3.817009503e-10
2.194992667e-10
1.324797133e-10
8.097934516e-11
5.142745521e-11
3.125209321e-11
1.196880188e-11
4.465600984e-11
1.289298796e-10
5.728910639e-10
1.447571125e-09
)


101
(
-3.397128225e-17
-1.032521379e-10
-9.010321507e-10
-3.822333734e-09
-1.051002044e-08
-2.209308292e-08
-3.922397454e-08
-6.392152415e-08
-9.59651623e-08
-1.365330655e-07
-1.854947188e-07
-2.436122347e-07
-3.093342615e-07
-3.84057389e-07
-4.632291847e-07
-5.426557943e-07
-6.17386478e-07
-6.795759525e-07
-7.150828151e-07
-7.141489929e-07
-6.623433021e-07
-5.462829277e-07
-3.512014473e-07
-7.274581069e-08
2.890462585e-07
7.311655629e-07
1.243406495e-06
1.81091634e-06
2.422453828e-06
3.061102172e-06
3.710611585e-06
4.364853891e-06
5.004394488e-06
5.649072855e-06
6.261693218e-06
6.783276144e-06
6.979019283e-06
6.794010278e-06
6.967970476e-06
7.526742956e-06
8.112446361e-06
8.557215303e-06
8.860044313e-06
9.061598562e-06
9.195317936e-06
9.28233238e-06
9.323453531e-06
9.323555274e-06
9.272673637e-06
9.178826698e-06
9.034113707e-06
8.84496243e-06
8.61801807e-06
8.361917136e-06
8.075478701e-06
7.757927717e-06
7.414721381e-06
7.043845962e-06
6.656917608e-06
6.249231472e-06
5.835388321e-06
5.42217218e-06
5.010125922e-06
4.604949532e-06
4.20667511e-06
3.810705654e-06
3.426606343e-06
3.057193814e-06
2.708839717e-06
2.383856236e-06
2.074186215e-06
1.78604921e-06
1.521901539e-06
1.285037313e-06
1.072420737e-06
8.830176519e-07
7.146162558e-07
5.701796388e-07
4.477624028e-07
3.464526462e-07
2.64275729e-07
1.97121309e-07
1.440579742e-07
1.033081566e-07
7.215006222e-08
4.878112715e-08
3.17473325e-08
2.034876661e-08
1.300077075e-08
8.088245583e-09
4.695853404e-09
2.709123869e-09
1.550378055e-09
8.878874567e-10
5.356738483e-10
3.023611642e-10
1.236218568e-10
7.421850583e-10
2.181794625e-09
9.327318517e-09
1.887485301e-08
)


101
(
-3.397128541e-17
-9.774246497e-11
-8.681189092e-10
-3.702759106e-09
-1.018125574e-08
-2.135087164e-08
-3.774724982e-08
-6.113027308e-08
-9.115999585e-08
-1.286194949e-07
-1.730896691e-07
-2.248363543e-07
-2.82064239e-07
-3.452056035e-07
-4.099264792e-07
-4.713412077e-07
-5.238758903e-07
-5.594597023e-07
-5.647895118e-07
-5.281260818e-07
-4.3627825e-07
-2.746479328e-07
-2.790512193e-08
3.099503246e-07
7.411064081e-07
1.263864827e-06
1.86943481e-06
2.544284365e-06
3.275989281e-06
4.048056012e-06
4.842501729e-06
5.64566331e-06
6.445216274e-06
7.259019856e-06
8.070962578e-06
8.884687918e-06
9.342327228e-06
9.546743023e-06
9.832453043e-06
1.036145925e-05
1.102828349e-05
1.165181472e-05
1.215516881e-05
1.254004606e-05
1.282731896e-05
1.304306268e-05
1.31991954e-05
1.33089709e-05
1.336511895e-05
1.336704196e-05
1.330521713e-05
1.317926763e-05
1.299638228e-05
1.27711916e-05
1.250524039e-05
1.218669817e-05
1.183200103e-05
1.143336356e-05
1.100699298e-05
1.053638527e-05
1.003195228e-05
9.517976576e-06
8.985491079e-06
8.449358661e-06
7.913561885e-06
7.366391231e-06
6.813303436e-06
6.262037859e-06
5.715321599e-06
5.198096389e-06
4.687636468e-06
4.192587857e-06
3.714790045e-06
3.266698877e-06
2.848014756e-06
2.459466465e-06
2.100247428e-06
1.771595315e-06
1.471750183e-06
1.208161151e-06
9.799952216e-07
7.859878185e-07
6.175823291e-07
4.785244819e-07
3.637969494e-07
2.707090013e-07
1.947614714e-07
1.373191561e-07
9.531883884e-08
6.558517908e-08
4.287450714e-08
2.717922048e-08
1.712760046e-08
1.033479376e-08
6.364739317e-09
3.602588596e-09
1.593194892e-09
9.030150545e-09
2.576824702e-08
1.078032652e-07
2.124632639e-07
)


101
(
-3.397128232e-17
-9.235556495e-11
-8.359414963e-10
-3.586436707e-09
-9.864135374e-09
-2.064262226e-08
-3.635509334e-08
-5.853011147e-08
-8.673184099e-08
-1.214111037e-07
-1.619041131e-07
-2.08071481e-07
-2.579441737e-07
-3.111783521e-07
-3.636411647e-07
-4.100207802e-07
-4.442413469e-07
-4.581353197e-07
-4.390971491e-07
-3.741526415e-07
-2.506471834e-07
-5.330327281e-08
2.341198714e-07
6.192467108e-07
1.106478971e-06
1.696592681e-06
2.38283592e-06
3.153097357e-06
3.99504456e-06
4.893376531e-06
5.831592527e-06
6.787123018e-06
7.750000916e-06
8.732758383e-06
9.726473006e-06
1.073018728e-05
1.153862513e-05
1.210670322e-05
1.262105397e-05
1.326209528e-05
1.404247188e-05
1.484895257e-05
1.558575383e-05
1.621640633e-05
1.673553477e-05
1.716031914e-05
1.750897224e-05
1.780957283e-05
1.806048173e-05
1.825005955e-05
1.837123624e-05
1.841019303e-05
1.837142508e-05
1.827135843e-05
1.812626968e-05
1.791455747e-05
1.763727867e-05
1.729996574e-05
1.691380697e-05
1.646930531e-05
1.596840487e-05
1.543178127e-05
1.485192737e-05
1.423618339e-05
1.360520813e-05
1.295256213e-05
1.226752218e-05
1.155634433e-05
1.081995957e-05
1.008811909e-05
9.362710399e-06
8.638154344e-06
7.911482767e-06
7.1941538e-06
6.494669643e-06
5.820287975e-06
5.180853983e-06
4.565261055e-06
3.974440253e-06
3.42284441e-06
2.916795126e-06
2.468558393e-06
2.058202425e-06
1.693288828e-06
1.376555513e-06
1.100600527e-06
8.60329214e-07
6.570130648e-07
4.95459013e-07
3.705218652e-07
2.681287163e-07
1.868284906e-07
1.302860283e-07
8.780180963e-08
5.892034537e-08
3.596577171e-08
1.773583906e-08
9.609199232e-08
2.395977752e-07
7.915766213e-07
1.432139561e-06
)


101
(
-3.397128225e-17
-8.709012926e-11
-8.044795693e-10
-3.473227739e-09
-9.558026198e-09
-1.996611161e-08
-3.504108118e-08
-5.610525551e-08
-8.264914044e-08
-1.148453448e-07
-1.518212529e-07
-1.931119031e-07
-2.366266275e-07
-2.814094564e-07
-3.235000914e-07
-3.573789532e-07
-3.765931648e-07
-3.729469101e-07
-3.344312842e-07
-2.473605022e-07
-9.922836826e-08
1.255504416e-07
4.441901209e-07
8.660460531e-07
1.397416311e-06
2.04231434e-06
2.797254025e-06
3.651886637e-06
4.594448744e-06
5.611118734e-06
6.686593957e-06
7.799765275e-06
8.933444742e-06
1.009408615e-05
1.128021593e-05
1.249011086e-05
1.36023721e-05
1.453172216e-05
1.535442197e-05
1.621079152e-05
1.716980086e-05
1.818425646e-05
1.918309023e-05
2.010814833e-05
2.093090519e-05
2.165317125e-05
2.228236348e-05
2.285081204e-05
2.33722319e-05
2.383773288e-05
2.424112391e-05
2.455448855e-05
2.478004168e-05
2.492587635e-05
2.501112748e-05
2.502639264e-05
2.496554705e-05
2.481667853e-05
2.458998595e-05
2.428401275e-05
2.390390259e-05
2.345774995e-05
2.294793503e-05
2.237229327e-05
2.174536091e-05
2.1078909e-05
2.035130057e-05
1.957405569e-05
1.873403598e-05
1.784543276e-05
1.694591752e-05
1.601852057e-05
1.506469313e-05
1.408110419e-05
1.308403162e-05
1.207888023e-05
1.10954958e-05
1.012380668e-05
9.163212855e-06
8.213320573e-06
7.287423815e-06
6.41873605e-06
5.61156061e-06
4.842266889e-06
4.143927564e-06
3.503658689e-06
2.917054262e-06
2.37912394e-06
1.921240473e-06
1.53319765e-06
1.204487618e-06
9.116056708e-07
6.90629559e-07
5.127002047e-07
3.740274278e-07
2.585203081e-07
1.472451199e-07
6.261536896e-07
1.401569954e-06
3.91934681e-06
6.742950526e-06
)


101
(
-3.397128225e-17
-8.19451406e-11
-7.737139718e-10
-3.363000413e-09
-9.262324822e-09
-1.931916279e-08
-3.379863711e-08
-5.383916321e-08
-7.888123218e-08
-1.088627345e-07
-1.427314941e-07
-1.797635008e-07
-2.177874107e-07
-2.553757074e-07
-2.887120981e-07
-3.122354795e-07
-3.192616786e-07
-3.015993568e-07
-2.477566302e-07
-1.436996393e-07
2.315240077e-08
2.683885383e-07
6.09873271e-07
1.059129488e-06
1.623926928e-06
2.311569132e-06
3.123131758e-06
4.051205137e-06
5.084929298e-06
6.211817534e-06
7.418662052e-06
8.687487321e-06
9.99762945e-06
1.134634898e-05
1.273551287e-05
1.416491806e-05
1.556050291e-05
1.683877837e-05
1.801276039e-05
1.916419093e-05
2.037481273e-05
2.164887515e-05
2.294434678e-05
2.420295659e-05
2.538597645e-05
2.64836531e-05
2.74868396e-05
2.841531315e-05
2.929658226e-05
3.012882452e-05
3.089919999e-05
3.159447678e-05
3.220808879e-05
3.272180044e-05
3.316337405e-05
3.354360832e-05
3.384139699e-05
3.403381494e-05
3.413494899e-05
3.413240581e-05
3.402911026e-05
3.383393757e-05
3.353827048e-05
3.316515025e-05
3.27087044e-05
3.219374373e-05
3.160043944e-05
3.091712452e-05
3.013023976e-05
2.922340667e-05
2.826155557e-05
2.722899821e-05
2.616490302e-05
2.502979543e-05
2.381363434e-05
2.253321503e-05
2.122255138e-05
1.989442844e-05
1.854830296e-05
1.715764553e-05
1.574909374e-05
1.433949304e-05
1.300503932e-05
1.167028823e-05
1.040006678e-05
9.166961928e-06
8.022135832e-06
6.894806856e-06
5.875999054e-06
4.955020004e-06
4.124667929e-06
3.34807143e-06
2.714300705e-06
2.174221249e-06
1.704737959e-06
1.307017853e-06
8.499777788e-07
2.823414714e-06
5.736832741e-06
1.387448369e-05
2.339327034e-05
)


101
(
-3.397128857e-17
-7.691982486e-11
-7.436268169e-10
-3.255626968e-09
-8.976481059e-09
-1.869996712e-08
-3.262254056e-08
-5.171825926e-08
-7.540118026e-08
-1.034111848e-07
-1.345413422e-07
-1.678600773e-07
-2.01154401e-07
-2.326358512e-07
-2.586197281e-07
-2.736135913e-07
-2.708398229e-07
-2.421562407e-07
-1.765270859e-07
-5.981001829e-08
1.207966218e-07
3.807003351e-07
7.378001853e-07
1.206483874e-06
1.795797583e-06
2.515814049e-06
3.372465449e-06
4.362475573e-06
5.476693241e-06
6.703774703e-06
8.03253139e-06
9.449543673e-06
1.093555128e-05
1.247859019e-05
1.407705443e-05
1.573379332e-05
1.740559353e-05
1.902393929e-05
2.057080233e-05
2.207530264e-05
2.360369851e-05
2.518892719e-05
2.682029616e-05
2.845188027e-05
3.004430651e-05
3.158060714e-05
3.304090615e-05
3.443145448e-05
3.576784493e-05
3.705800652e-05
3.829673434e-05
3.94908863e-05
4.061477084e-05
4.16382985e-05
4.258202104e-05
4.345502275e-05
4.426125828e-05
4.494937119e-05
4.555629736e-05
4.605949466e-05
4.643744773e-05
4.670852317e-05
4.684438387e-05
4.687629319e-05
4.680087075e-05
4.663753615e-05
4.639480197e-05
4.601974256e-05
4.551207261e-05
4.484013888e-05
4.404883059e-05
4.314302435e-05
4.214213949e-05
4.104574672e-05
3.981908557e-05
3.846420902e-05
3.697413852e-05
3.540778595e-05
3.379510249e-05
3.205671511e-05
3.020652617e-05
2.830150512e-05
2.639456486e-05
2.447993786e-05
2.251253627e-05
2.052497106e-05
1.865531176e-05
1.672574553e-05
1.486907276e-05
1.311286806e-05
1.142452297e-05
9.819063574e-06
8.385348892e-06
7.117848368e-06
5.916387041e-06
4.827109819e-06
3.560233542e-06
9.600398425e-06
1.782387257e-05
3.734009512e-05
6.155866336e-05
)


101
(
-3.397128857e-17
-7.201325795e-11
-7.142012306e-10
-3.150979344e-09
-8.699929414e-09
-1.810681786e-08
-3.150859991e-08
-4.973240269e-08
-7.218404651e-08
-9.844044956e-08
-1.271655074e-07
-1.572621721e-07
-1.865067941e-07
-2.128402795e-07
-2.32700938e-07
-2.407424836e-07
-2.302180057e-07
-1.930754029e-07
-1.187132177e-07
6.939423619e-09
1.970151502e-07
4.668177814e-07
8.338390874e-07
1.315102961e-06
1.921587403e-06
2.665380924e-06
3.556445548e-06
4.596288992e-06
5.778753563e-06
7.094212725e-06
8.532613484e-06
1.008418166e-05
1.173512366e-05
1.347095258e-05
1.528116974e-05
1.717108321e-05
1.911986584e-05
2.107467871e-05
2.299986417e-05
2.489161548e-05
2.679007825e-05
2.873283443e-05
3.074361314e-05
3.279325815e-05
3.484708689e-05
3.68833871e-05
3.887099696e-05
4.080479411e-05
4.267938133e-05
4.451887419e-05
4.633336113e-05
4.813538899e-05
4.989345752e-05
5.157952171e-05
5.315885062e-05
5.467230747e-05
5.615432472e-05
5.752530115e-05
5.882322405e-05
6.003382195e-05
6.111053266e-05
6.206592894e-05
6.290072131e-05
6.359470741e-05
6.414328129e-05
6.455537776e-05
6.490947311e-05
6.512763113e-05
6.521664246e-05
6.511687243e-05
6.482404001e-05
6.435865254e-05
6.373476648e-05
6.297919254e-05
6.20704458e-05
6.094453655e-05
5.959072731e-05
5.808816667e-05
5.64639666e-05
5.465858651e-05
5.261239114e-05
5.04358188e-05
4.811177104e-05
4.576529554e-05
4.321417309e-05
4.047808728e-05
3.781905778e-05
3.505518532e-05
3.221814098e-05
2.947893529e-05
2.664518769e-05
2.389813477e-05
2.129447191e-05
1.889287102e-05
1.65292186e-05
1.415677702e-05
1.131137185e-05
2.616254672e-05
4.489309638e-05
8.192262038e-05
0.0001216972767
)


101
(
-3.397053456e-17
-6.722480192e-11
-6.854219165e-10
-3.048943561e-09
-8.432151538e-09
-1.753810168e-08
-3.045286732e-08
-4.787245851e-08
-6.920703141e-08
-9.390267942e-08
-1.205246937e-07
-1.478421935e-07
-1.736475953e-07
-1.956828313e-07
-2.105021222e-07
-2.129577795e-07
-1.964553568e-07
-1.53068595e-07
-7.260469791e-08
5.877859153e-08
2.545566241e-07
5.301798549e-07
9.028131012e-07
1.390671314e-06
2.007979898e-06
2.767990946e-06
3.683272631e-06
4.760548183e-06
5.998254098e-06
7.389624499e-06
8.925387808e-06
1.05972502e-05
1.239720846e-05
1.43168535e-05
1.633857935e-05
1.846439686e-05
2.068711771e-05
2.296897978e-05
2.526657879e-05
2.756096079e-05
2.987031058e-05
3.222302156e-05
3.465808446e-05
3.717001771e-05
3.973407656e-05
4.232555983e-05
4.490005543e-05
4.74411513e-05
4.994046437e-05
5.242513059e-05
5.490551054e-05
5.739968675e-05
5.989639476e-05
6.235811195e-05
6.472215087e-05
6.707046795e-05
6.937225331e-05
7.161628393e-05
7.377848346e-05
7.589782791e-05
7.791182868e-05
7.979148969e-05
8.156621357e-05
8.319090884e-05
8.467442357e-05
8.598848795e-05
8.720230709e-05
8.83373011e-05
8.935945433e-05
9.0188447e-05
9.079474371e-05
9.116712822e-05
9.135130864e-05
9.135257264e-05
9.116887125e-05
9.07086557e-05
8.997387695e-05
8.901583455e-05
8.776986583e-05
8.633424692e-05
8.460287482e-05
8.256117617e-05
8.026483478e-05
7.783724487e-05
7.509433987e-05
7.191142559e-05
6.864097392e-05
6.531120723e-05
6.17133984e-05
5.799007091e-05
5.402551312e-05
5.008997629e-05
4.614484068e-05
4.234978195e-05
3.858924386e-05
3.456191006e-05
2.963961118e-05
5.884390356e-05
9.411682378e-05
0.0001554910298
0.0002199478786
)


101
(
-3.39679281e-17
-6.255409044e-11
-6.572754322e-10
-2.949420673e-09
-8.172715216e-09
-1.699244789e-08
-2.945182442e-08
-4.612978135e-08
-6.645019156e-08
-8.975838592e-08
-1.145520781e-07
-1.39485896e-07
-1.623963979e-07
-1.808837388e-07
-1.916102402e-07
-1.896599539e-07
-1.686840784e-07
-1.209471508e-07
-3.660099523e-08
9.783396096e-08
2.959445889e-07
5.735497982e-07
9.476402462e-07
1.436375938e-06
2.057340654e-06
2.825212863e-06
3.75475832e-06
4.857608251e-06
6.137815955e-06
7.59236672e-06
9.213609439e-06
1.099435388e-05
1.293047126e-05
1.502063214e-05
1.724683958e-05
1.960601717e-05
2.209557374e-05
2.469022741e-05
2.735051535e-05
3.005515513e-05
3.280165246e-05
3.560541012e-05
3.850349662e-05
4.151095738e-05
4.46161068e-05
4.779941766e-05
5.101515142e-05
5.423508498e-05
5.744389845e-05
6.066435278e-05
6.389979867e-05
6.717261615e-05
7.04940633e-05
7.383366109e-05
7.714673436e-05
8.046101061e-05
8.374354893e-05
8.700230924e-05
9.021308412e-05
9.341920721e-05
9.658513881e-05
9.964600932e-05
0.0001026158559
0.0001054548284
0.0001081694898
0.000110769891
0.000113191244
0.0001155517132
0.0001178429768
0.0001199747003
0.0001219262025
0.0001236343816
0.0001250666578
0.0001262831779
0.0001273106876
0.0001281073993
0.0001285773061
0.0001287157125
0.0001285200114
0.0001280333619
0.0001272035755
0.0001259468184
0.0001243287419
0.0001223874793
0.0001201389126
0.0001172538684
0.0001138687936
0.0001104421473
0.0001066545987
0.0001023566443
9.766619107e-05
9.293575255e-05
8.795539674e-05
8.284119395e-05
7.778626215e-05
7.220202238e-05
6.545628827e-05
0.0001153066556
0.0001730825944
0.0002624119788
0.0003557081962
)


101
(
-3.396606315e-17
-5.800060338e-11
-6.297487373e-10
-2.852314081e-09
-7.921199365e-09
-1.646854493e-08
-2.850241662e-08
-4.449701485e-08
-6.389337346e-08
-8.596857968e-08
-1.091892595e-07
-1.320921102e-07
-1.525931322e-07
-1.682062165e-07
-1.756846412e-07
-1.703570258e-07
-1.461415293e-07
-9.558169063e-08
-9.18390526e-09
1.260669319e-07
3.233674177e-07
5.990062578e-07
9.699740771e-07
1.454267794e-06
2.071651004e-06
2.838652484e-06
3.772845925e-06
4.890176384e-06
6.200551596e-06
7.705229604e-06
9.399250367e-06
1.127773614e-05
1.333954949e-05
1.558598855e-05
1.800303181e-05
2.058548526e-05
2.333136063e-05
2.62245928e-05
2.923482403e-05
3.234810649e-05
3.554452892e-05
3.882461801e-05
4.221558844e-05
4.574190251e-05
4.940391487e-05
5.319715844e-05
5.709102944e-05
6.104839371e-05
6.504096452e-05
6.908484065e-05
7.315854769e-05
7.72944354e-05
8.153213243e-05
8.58472195e-05
9.02112608e-05
9.458092972e-05
9.901669562e-05
0.0001034440705
0.0001079026497
0.0001123662896
0.0001168772993
0.0001213327788
0.0001257425499
0.0001300819935
0.0001343428667
0.0001385291611
0.0001425539327
0.0001465015353
0.0001503780054
0.0001542070207
0.0001579167961
0.0001614573896
0.0001646735615
0.0001676338623
0.0001703924806
0.0001729753654
0.0001752813833
0.0001772344501
0.000178779903
0.0001799782945
0.000180748243
0.0001810986903
0.0001809149442
0.0001802252896
0.0001793039628
0.0001777133376
0.0001751094254
0.0001722781512
0.0001690704812
0.0001652327831
0.0001605810123
0.0001557990894
0.0001504847642
0.0001448584509
0.0001390162105
0.000132585863
0.0001250383226
0.0002005339338
0.0002847331733
0.0004001053593
0.0005182791924
)


101
(
-3.396607588e-17
-5.356411328e-11
-6.028305061e-10
-2.757536729e-09
-7.677217557e-09
-1.596512652e-08
-2.760159057e-08
-4.296738623e-08
-6.151932612e-08
-8.249690769e-08
-1.043816823e-07
-1.255689302e-07
-1.44091504e-07
-1.574353033e-07
-1.624197143e-07
-1.546202858e-07
-1.281921112e-07
-7.601376672e-08
1.093720453e-08
1.452504696e-07
3.390384878e-07
6.090174703e-07
9.723487126e-07
1.447540576e-06
2.05573773e-06
2.81471898e-06
3.744489536e-06
4.864667945e-06
6.191111335e-06
7.730833134e-06
9.483035802e-06
1.144514748e-05
1.361808625e-05
1.600437928e-05
1.859435676e-05
2.138409907e-05
2.437262551e-05
2.755156453e-05
3.090075866e-05
3.440960894e-05
3.805388561e-05
4.182304848e-05
4.573065482e-05
4.979762483e-05
5.403194184e-05
5.844583772e-05
6.30299591e-05
6.774902272e-05
7.257217683e-05
7.749724589e-05
8.248460941e-05
8.756631848e-05
9.28045953e-05
9.817543641e-05
0.000103668521
0.0001092332902
0.0001149351381
0.0001207047912
0.0001265436862
0.0001324438268
0.0001384759768
0.0001445309165
0.0001505755411
0.0001566615902
0.0001627801815
0.0001688125326
0.0001747963953
0.0001806736179
0.0001865390148
0.0001924359177
0.0001982728201
0.0002040618645
0.0002096164491
0.0002149096328
0.0002199585094
0.0002248136177
0.0002295694835
0.0002340135063
0.0002380113455
0.0002416803363
0.0002448194246
0.0002475451976
0.0002497198489
0.0002512375726
0.0002523259889
0.0002529638686
0.000252472265
0.0002511762598
0.0002495278075
0.0002473700074
0.0002438119027
0.0002401903501
0.0002352619794
0.0002303414555
0.0002248136945
0.0002188378104
0.0002114898551
0.0003127510157
0.0004224179501
0.00055897022
0.0007066308925
)


101
(
-3.396608846e-17
-4.92445325e-11
-5.765100861e-10
-2.66500459e-09
-7.440409146e-09
-1.548101943e-08
-2.674613291e-08
-4.153410493e-08
-5.931442586e-08
-7.931324051e-08
-1.000703087e-07
-1.198352595e-07
-1.367565657e-07
-1.483535386e-07
-1.514956524e-07
-1.420119915e-07
-1.143045817e-07
-6.158992916e-08
2.454826326e-08
1.561763776e-07
3.442905164e-07
6.057505284e-07
9.58008126e-07
1.419979197e-06
2.014161939e-06
2.759396159e-06
3.676809369e-06
4.788375835e-06
6.115487146e-06
7.672944116e-06
9.466986071e-06
1.149696012e-05
1.376242429e-05
1.626892241e-05
1.901131716e-05
2.198901429e-05
2.520319646e-05
2.865182778e-05
3.232433284e-05
3.62089592e-05
4.028940698e-05
4.454456111e-05
4.897699058e-05
5.360105926e-05
5.842894877e-05
6.347717905e-05
6.875116241e-05
7.423965062e-05
7.990654435e-05
8.573294428e-05
9.169995694e-05
9.781172258e-05
0.0001041109973
0.0001106097273
0.0001173160464
0.0001241858466
0.0001312398318
0.0001384750796
0.0001458198171
0.0001533060474
0.0001609677698
0.00016880124
0.000176696489
0.0001847536507
0.000192928413
0.0002010926288
0.0002093110893
0.0002174793375
0.0002257453062
0.0002340303584
0.0002423471754
0.0002507368064
0.00025904771
0.0002672363572
0.0002751867376
0.0002828529347
0.0002904885471
0.0002979043941
0.0003051383358
0.0003119289012
0.0003182040971
0.0003240566512
0.0003293532368
0.0003340414611
0.0003380886688
0.0003416619496
0.0003443509858
0.0003457778313
0.0003465806378
0.0003470864198
0.0003457669977
0.0003444908894
0.0003413058024
0.0003380403324
0.0003343448138
0.0003299668737
0.0003238206374
0.000448046748
0.000578559228
0.0007275838984
0.0008731054371
)


101
(
-3.396606315e-17
-4.504170729e-11
-5.507774279e-10
-2.574637842e-09
-7.210419719e-09
-1.501508627e-08
-2.593296027e-08
-4.019082438e-08
-5.726630004e-08
-7.639064472e-08
-9.619674443e-08
-1.148194599e-07
-1.304714539e-07
-1.407618008e-07
-1.426153669e-07
-1.321153937e-07
-1.039952351e-07
-5.180994997e-08
3.21961049e-08
1.591460021e-07
3.398434013e-07
5.906664964e-07
9.296034636e-07
1.374920944e-06
1.95069016e-06
2.677304224e-06
3.575521452e-06
4.668509296e-06
5.982402177e-06
7.540006087e-06
9.356218788e-06
1.143478254e-05
1.377353467e-05
1.637919814e-05
1.925178813e-05
2.239573233e-05
2.58149203e-05
2.951162381e-05
3.348393424e-05
3.772275982e-05
4.221395236e-05
4.69350469e-05
5.188618034e-05
5.707098026e-05
6.250101395e-05
6.819378771e-05
7.41648651e-05
8.04284535e-05
8.693541549e-05
9.367600538e-05
0.0001006587256
0.0001078572661
0.0001152699699
0.0001229629561
0.000130929875
0.0001391358742
0.0001476265249
0.000156401699
0.000165377254
0.0001745578988
0.0001839823188
0.0001937096962
0.0002036631148
0.0002138778239
0.0002242388581
0.0002348271282
0.0002455076196
0.0002562700761
0.0002671648138
0.000278149908
0.0002893213222
0.000300616387
0.0003120128158
0.0003234685618
0.0003348177477
0.0003458797855
0.0003567010837
0.0003676157667
0.0003784406674
0.000388929762
0.0003990987391
0.0004087355137
0.0004176519339
0.0004262034359
0.0004340340482
0.0004412894415
0.0004477257159
0.0004529566679
0.000456936591
0.0004607251049
0.0004628290535
0.0004644458659
0.0004646266954
0.0004638304866
0.000463063912
0.0004615424837
0.0004587704013
0.0005995634018
0.0007432963426
0.0008966925959
0.001039090177
)


101
(
-3.396606315e-17
-4.095574079e-11
-5.256264162e-10
-2.486370528e-09
-6.986931321e-09
-1.456622154e-08
-2.515916594e-08
-3.893161983e-08
-5.536600863e-08
-7.37082456e-08
-9.271119958e-08
-1.104493393e-07
-1.251307289e-07
-1.344929634e-07
-1.355403467e-07
-1.245928879e-07
-9.681085051e-08
-4.609590384e-08
3.47007408e-08
1.551849428e-07
3.271187205e-07
5.656466398e-07
8.892982444e-07
1.314985857e-06
1.867840361e-06
2.570606786e-06
3.443512858e-06
4.510000158e-06
5.79971254e-06
7.341858311e-06
9.158504703e-06
1.126105335e-05
1.365131243e-05
1.633379758e-05
1.931325257e-05
2.260053518e-05
2.620230742e-05
3.012175076e-05
3.436194684e-05
3.892145301e-05
4.378804024e-05
4.894900708e-05
5.439661282e-05
6.01267023e-05
6.614916043e-05
7.248660916e-05
7.916046084e-05
8.619015113e-05
9.353798615e-05
0.0001012014237
0.0001091952503
0.0001174993375
0.0001260789594
0.0001350080612
0.0001442832307
0.0001538625755
0.0001638338412
0.0001741813048
0.000184867013
0.0001958411646
0.0002071626285
0.000218865899
0.000230999944
0.0002434822162
0.0002562027413
0.0002693643924
0.000282689698
0.000296230029
0.0003099617088
0.0003239777283
0.0003382709965
0.0003527104583
0.0003674399557
0.0003823447967
0.0003973133411
0.000412226263
0.0004268719165
0.0004414951877
0.0004560717321
0.0004706556961
0.0004851386617
0.0004988853937
0.0005120356731
0.0005247453526
0.0005367093352
0.0005481117111
0.0005585895609
0.0005681168018
0.0005759075402
0.0005833374837
0.0005897219824
0.000594515643
0.0005986196427
0.0006012207405
0.0006036200829
0.0006060061424
0.0006078470444
0.0007568608893
0.0009052810408
0.001058713921
0.001211354804
)


101
(
-3.396608846e-17
-3.698677034e-11
-5.010479964e-10
-2.400135593e-09
-6.769632013e-09
-1.413335558e-08
-2.442191637e-08
-3.775050634e-08
-5.360832731e-08
-7.125684218e-08
-8.95697634e-08
-1.066485591e-07
-1.206270904e-07
-1.294084533e-07
-1.301158311e-07
-1.192819873e-07
-9.251822313e-08
-4.406473951e-08
3.277342381e-08
1.46010629e-07
3.082114301e-07
5.33161164e-07
8.391435499e-07
1.242588627e-06
1.768193906e-06
2.441533554e-06
3.283464735e-06
4.316937142e-06
5.573456694e-06
7.086281198e-06
8.882669575e-06
1.098320704e-05
1.339964068e-05
1.613437485e-05
1.919463748e-05
2.259717467e-05
2.635289017e-05
3.046512011e-05
3.493873714e-05
3.978050799e-05
4.498566008e-05
5.054715824e-05
5.645340017e-05
6.270134805e-05
6.929848553e-05
7.626606573e-05
8.362493035e-05
9.139982271e-05
9.959189414e-05
0.0001081791233
0.0001171670699
0.0001265578043
0.0001363208098
0.0001465003467
0.0001571221185
0.0001681592897
0.0001796474002
0.0001915827854
0.0002040316267
0.0002169055192
0.0002301539911
0.0002439297877
0.0002582703372
0.0002730700749
0.0002883047868
0.0003040418284
0.0003201366698
0.0003366044226
0.0003533764187
0.0003705926908
0.0003880728007
0.0004058997015
0.0004241276687
0.0004426032025
0.0004613056941
0.0004802234822
0.000498981365
0.0005174638501
0.0005360327609
0.0005547322228
0.0005734151204
0.000591480706
0.0006091151441