/*--------------------------------*- C++ -*----------------------------------*\
| =========                 |                                                 |
| \\      /  F ield         | OpenFOAM: The Open Source CFD Toolbox           |
|  \\    /   O peration     | Version:  2.3.1                                 |
|   \\  /    A nd           | Web:      www.OpenFOAM.org                      |
|    \\/     M anipulation  |                                                 |
\*---------------------------------------------------------------------------*/
FoamFile
{
    version     2.0;
    format      ascii;
    class       dictionary;
    location    "constant";
    object      GRPSI13;
}
// * * * * * * * * * * * * * * * * * * * * * * * * * * * * * * * * * * * * * //

GRPSI13_table
101
(

101
(
-8.161174001e-06
-5.0494055e-06
-9.003574988e-07
1.474965003e-07
1.519629986e-07
1.363414999e-07
8.126250073e-08
3.569699913e-08
1.784849957e-08
0
0
1.707400088e-08
1.784849957e-08
7.744986874e-10
0
0
0
0
0
0
0
-1.784849957e-08
-1.784849957e-08
0
0
0
0
0
0
0
0
0
0
0
9.570999993e-09
1.784849957e-08
8.277499575e-09
5.655014235e-10
1.663500093e-08
1.728349908e-08
1.213999568e-09
-1.206099931e-08
-8.081499914e-09
1.206099931e-08
8.081499914e-09
0
0
0
0
0
0
0
-9.570999993e-09
-1.78490005e-08
-8.278000507e-09
-9.298998904e-09
-1.784849957e-08
-1.814900052e-08
-1.784849957e-08
-2.115850073e-08
-2.618950035e-08
-2.278749989e-08
-2.735649929e-08
-2.35279991e-08
-1.784850134e-08
-1.216950096e-08
-1.784849957e-08
0
1.784849957e-08
0
1.784850134e-08
1.784850134e-08
1.091949997e-08
2.802949872e-08
2.47780001e-08
3.712300156e-08
4.272299847e-08
3.670249882e-08
4.384100016e-08
4.093400108e-08
4.970750034e-08
6.06554984e-08
6.006299991e-08
6.094350091e-08
5.49564998e-08
5.6887e-08
5.244899981e-08
3.569699913e-08
3.538350057e-08
3.569750007e-08
1.784849957e-08
0
0
0
3.361050105e-08
7.139450098e-08
3.778399993e-08
0
0
0
0
)


101
(
-8.115943e-06
-5.044862e-06
-9.310485005e-07
1.369754994e-07
1.541230006e-07
1.362964994e-07
8.346649949e-08
3.774800028e-08
1.885599943e-08
1.163000363e-09
-2.269988642e-10
1.481750012e-08
1.781299908e-08
3.193999731e-09
3.300009155e-10
-4.200018111e-11
-8.250111705e-11
-8.499867477e-12
9.15001408e-11
1.444995235e-10
1.195008537e-10
-1.32329987e-08
-1.737500099e-08
-4.770001283e-09
-7.35498773e-10
1.850075648e-11
1.939994831e-10
1.874997935e-10
8.349942959e-11
-4.999911596e-11
-1.444995235e-10
-1.555005014e-10
-7.899991772e-11
4.700062561e-11
5.836499284e-09
1.362099944e-08
1.121150106e-08
4.593498915e-09
1.057699883e-08
1.525050131e-08
7.800499802e-09
-4.033500645e-09
-7.80549847e-09
2.181000269e-09
6.569999655e-09
3.344000632e-09
1.172500319e-09
5.689990701e-10
3.90999233e-10
3.264997162e-10
3.395008719e-10
4.115001673e-10
-3.897000056e-09
-1.08910001e-08
-1.068250022e-08
-9.55200008e-09
-1.319649989e-08
-1.619799939e-08
-1.730150068e-08
-1.909200087e-08
-2.250600062e-08
-2.334799909e-08
-2.503299967e-08
-2.508750008e-08
-2.231899998e-08
-1.823599938e-08
-1.795899962e-08
-1.166200114e-08
1.862000332e-09
4.728001102e-09
1.026199925e-08
1.51889985e-08
1.371549985e-08
1.763200075e-08
2.081250017e-08
2.676750022e-08
3.47455007e-08
3.803399906e-08
4.151150002e-08
4.236200013e-08
4.362049921e-08
4.91875003e-08
5.484300125e-08
5.811999948e-08
5.653699908e-08
5.649000023e-08
5.517500057e-08
5.415450133e-08
4.878199888e-08
3.797749848e-08
2.08130011e-08
1.742700029e-08
1.551599915e-08
1.021000173e-09
2.098150098e-08
7.127050061e-08
5.023949967e-08
0
0
0
0
)


101
(
-8.070429999e-06
-5.039968499e-06
-9.61692999e-07
1.259660003e-07
1.560519998e-07
1.363534992e-07
8.554799891e-08
3.984450103e-08
1.992450116e-08
2.335999838e-09
-3.325002496e-10
1.27779991e-08
1.745000056e-08
5.302501549e-09
9.754987929e-10
1.099920155e-11
-1.640003688e-10
-5.550049309e-11
1.430002783e-10
2.769997565e-10
2.654996223e-10
-9.721500049e-09
-1.589099874e-08
-8.040499822e-09
-2.419501044e-09
-3.824993655e-10
2.61501043e-10
3.905000767e-10
2.545004207e-10
-4.991562719e-13
-2.305000635e-10
-3.270006488e-10
-2.45501397e-10
-2.549960243e-11
3.588001007e-09
9.986498739e-09
1.134749894e-08
7.43600026e-09
8.621499958e-09
1.254299953e-08
1.034700148e-08
2.158000001e-09
-4.343501558e-09
-1.867499932e-09
2.747000849e-09
3.394500681e-09
2.208999206e-09
1.357999935e-09
9.595009232e-10
7.460005946e-10
6.569997879e-10
7.189999707e-10
-1.139499162e-09
-5.69550096e-09
-8.507500482e-09
-9.135499468e-09
-1.095400037e-08
-1.366099944e-08
-1.569999952e-08
-1.743750033e-08
-1.986900067e-08
-2.175699976e-08
-2.335450056e-08
-2.437100122e-08
-2.379800002e-08
-2.172699887e-08
-2.051449854e-08
-1.780450098e-08
-9.948999846e-09
-2.181499426e-09
4.981998813e-09
1.124799986e-08
1.347800094e-08
1.470900024e-08
1.630700019e-08
1.951450024e-08
2.553649914e-08
3.155799888e-08
3.663200054e-08
4.015150168e-08
4.221599958e-08
4.44529995e-08
4.806400078e-08
5.159449934e-08
5.319599872e-08
5.500350042e-08
5.608599984e-08
5.903449996e-08
5.658800006e-08
5.287449945e-08
4.575900014e-08
2.180400038e-08
1.932050075e-08
1.711149977e-08
2.258699894e-08
7.076100061e-08
4.947550103e-08
0
0
0
0
)


101
(
-8.024627e-06
-5.034720999e-06
-9.922879993e-07
1.14472499e-07
1.577370004e-07
1.365020008e-07
8.751749903e-08
4.197399939e-08
2.105600139e-08
3.521501313e-09
-3.200000265e-10
1.094499957e-08
1.682749939e-08
7.084500098e-09
1.84850002e-09
1.945004158e-10
-2.210001071e-10
-1.315001441e-10
1.499991242e-10
3.839986107e-10
4.250004793e-10
-7.03049885e-09
-1.391899929e-08
-9.973000203e-09
-4.391500497e-09
-1.262499438e-09
8.100009552e-11
5.259988001e-10
4.700009271e-10
1.474997902e-10
-2.265014842e-10
-4.664997277e-10
-4.594991054e-10
-2.089990403e-10
2.155999823e-09
7.138499569e-09
1.015800066e-08
8.809999841e-09
8.383999273e-09
1.062599964e-08
1.07409992e-08
6.06100059e-09
-1.969997498e-10
-2.055500659e-09
-1.199929045e-11
1.721501164e-09
1.988500031e-09
1.729498322e-09
1.486998968e-09
1.262501215e-09
1.057500754e-09
9.909992826e-10
1.900009039e-10
-2.413498734e-09
-5.384501733e-09
-7.314501005e-09
-9.111499111e-09
-1.143000006e-08
-1.370900016e-08
-1.565999952e-08
-1.770749947e-08
-1.965550034e-08
-2.133400123e-08
-2.266049925e-08
-2.319349868e-08
-2.267900001e-08
-2.205899996e-08
-2.112650144e-08
-1.75415007e-08
-1.124549875e-08
-3.209500221e-09
5.025500016e-09
1.05744995e-08
1.31500002e-08
1.421900109e-08
1.532399985e-08
1.847799957e-08
2.360399876e-08
2.897099982e-08
3.365800083e-08
3.812399996e-08
4.239099916e-08
4.581850099e-08
4.755050043e-08
4.716199875e-08
4.816999954e-08
5.445450135e-08
5.964750116e-08
5.725399888e-08
6.038149891e-08
6.473499958e-08
4.515750085e-08
2.192150106e-08
3.109549951e-08
4.98079995e-08
6.527550056e-08
3.829100059e-08
0
0
0
0
)


101
(
-7.978531002e-06
-5.029114501e-06
-1.022827499e-06
1.024975003e-07
1.591665004e-07
1.367334992e-07
8.938399887e-08
4.412500054e-08
2.225250029e-08
4.722000568e-09
-1.969997498e-10
9.308999793e-09
1.600449906e-08
8.538499685e-09
2.869500193e-09
5.260005764e-10
-2.279989531e-10
-2.244995301e-10
1.119992987e-10
4.53498572e-10
5.815010695e-10
-4.954999966e-09
-1.178050013e-08
-1.080899992e-08
-6.219000426e-09
-2.501499452e-09
-4.16999768e-10
5.04000397e-10
6.684999221e-10
3.669988757e-10
-1.220001877e-10
-5.329994224e-10
-6.715001888e-10
-4.739995063e-10
1.15050014e-09
4.96399899e-09
8.48750048e-09
9.027001369e-09
8.577998756e-09
9.558499769e-09
1.029700059e-08
8.095000226e-09
3.347500055e-09
-2.575006874e-10
-8.725002942e-10
7.000622304e-12
8.000000662e-10
1.259000015e-09
1.545499728e-09
1.638499114e-09
1.515500614e-09
1.335999755e-09
8.81499318e-10
-5.469988906e-10
-2.785998987e-09
-4.98850028e-09
-7.063000851e-09
-9.347999708e-09
-1.171950004e-08
-1.38640015e-08
-1.582099962e-08
-1.761049973e-08
-1.91409999e-08
-2.038200009e-08
-2.125000087e-08
-2.162349944e-08
-2.179149838e-08
-2.195250026e-08
-2.116200015e-08
-1.817550022e-08
-1.219350132e-08
-3.823998895e-09
4.185499947e-09
9.630499065e-09
1.249800086e-08
1.359500068e-08
1.45739989e-08
1.714749942e-08
2.095150009e-08
2.494100038e-08
3.023250095e-08
3.714399988e-08
4.307750068e-08
4.61624996e-08
4.508749996e-08
4.283000088e-08
5.046899965e-08
5.62274991e-08
5.629899924e-08
6.485950088e-08
6.945949949e-08
5.881249976e-08
3.907500101e-08
5.180950069e-08
6.513350037e-08
6.608149938e-08
3.856099973e-08
0
0
0
0
)


101
(
-7.932140001e-06
-5.023146e-06
-1.0533065e-06
9.00459991e-08
1.603279998e-07
1.370375013e-07
9.115749933e-08
4.628699912e-08
2.351299955e-08
5.940499648e-09
3.250022473e-11
7.862499984e-09
1.503150138e-08
9.670500845e-09
3.966999174e-09
1.00599884e-09
-1.610001021e-10
-3.17498916e-10
3.399946991e-11
4.764988404e-10
7.165006366e-10
-3.345499877e-09
-9.6655004e-09
-1.080599965e-08
-7.65149899e-09
-3.907500101e-09
-1.23000099e-09
2.520010867e-10
7.730012186e-10
6.069988956e-10
7.199929541e-11
-5.014992865e-10
-8.34999625e-10
-7.759997089e-10
3.539994964e-10
3.270999471e-09
6.741000647e-09
8.483500125e-09
8.648498806e-09
9.037000481e-09
9.68750058e-09
8.892000025e-09
5.839000394e-09
2.155999823e-09
-1.569997465e-10
-8.149996233e-10
-5.620002241e-10
7.399947322e-11
8.529994489e-10
1.503000391e-09
1.784499659e-09
1.717999965e-09
1.366499802e-09
4.919993302e-10
-1.03349862e-09
-2.930999443e-09
-5.008500281e-09
-7.338501362e-09
-9.848500682e-09
-1.223699897e-08
-1.43154999e-08
-1.601000044e-08
-1.726150067e-08
-1.808349914e-08
-1.862300003e-08
-1.91180014e-08
-1.975499941e-08
-2.055799975e-08
-2.125550047e-08
-2.115549869e-08
-1.884049894e-08
-1.309550157e-08
-5.062000596e-09
2.52800092e-09
8.222500014e-09
1.173200026e-08
1.320950105e-08
1.40734997e-08
1.554699836e-08
1.761049973e-08
2.164800073e-08
2.883299999e-08
3.746099964e-08
4.48014994e-08
4.673750098e-08
4.21775006e-08
4.549449883e-08
5.354250021e-08
5.169400019e-08
5.801950032e-08
6.744549985e-08
7.210599939e-08
7.241900057e-08
6.936800112e-08
5.984600016e-08
7.348499942e-08
4.89655001e-08
0
0
0
0
)


101
(
-7.885446998e-06
-5.016810499e-06
-1.0837205e-06
7.712099936e-08
1.612110001e-07
1.374040011e-07
9.284499924e-08
4.84505005e-08
2.483650086e-08
7.180998907e-09
3.63998609e-10
6.597499436e-09
1.395150129e-08
1.049400034e-08
5.078998555e-09
1.625000579e-09
1.000088901e-12
-3.905000767e-10
-7.699973992e-11
4.484999039e-10
8.135003782e-10
-2.10049933e-09
-7.68249997e-09
-1.019749973e-08
-8.578499688e-09
-5.287500215e-09
-2.286000722e-09
-2.65000466e-10
7.09000858e-10
8.024994003e-10
3.179998487e-10
-3.719993202e-10
-9.129994538e-10
-1.062000266e-09
-3.315001607e-10
1.886000689e-09
5.058998553e-09
7.480998931e-09
8.415501185e-09
8.759499792e-09
9.178499738e-09
9.007500523e-09
7.298000426e-09
4.350500404e-09
1.433498653e-09
-5.410001336e-10
-1.410999317e-09
-1.320000109e-09
-5.070006637e-10
6.030003163e-10
1.494500523e-09
1.872500377e-09
1.739500988e-09
1.132498539e-09
5.349853893e-11
-1.427499896e-09
-3.261499515e-09
-5.49899859e-09
-8.109999783e-09
-1.08200009e-08
-1.326350052e-08
-1.514250059e-08
-1.626349899e-08
-1.656849946e-08
-1.628350077e-08
-1.604449906e-08
-1.643249981e-08
-1.736200161e-08
-1.847350006e-08
-1.980999897e-08
-2.08404991e-08
-1.946549943e-08
-1.43554999e-08
-7.116000234e-09
1.134985439e-10
6.507999473e-09
1.116050008e-08
1.344949929e-08
1.397950022e-08
1.396750093e-08
1.561149965e-08
2.039299929e-08
2.871150073e-08
3.983899965e-08
4.671499987e-08
4.500800088e-08
4.393399955e-08
4.613499982e-08
4.272100007e-08
5.095549938e-08
5.663900104e-08
7.13615016e-08
9.972949933e-08
8.772399873e-08
7.585849993e-08
9.32210007e-08
5.171700046e-08
0
0
0
0
)


101
(
-7.838447001e-06
-5.010102999e-06
-1.114064499e-06
6.37259987e-08
1.618029994e-07
1.378215e-07
9.445500027e-08
5.060900143e-08
2.622000039e-08
8.44450021e-09
7.935003765e-10
5.508498546e-09
1.280299955e-08
1.102899994e-08
6.152500731e-09
2.361501217e-09
2.71999312e-10
-4.220002126e-10
-2.080007278e-10
3.679989646e-10
8.595009149e-10
-1.14699894e-09
-5.89250071e-09
-9.187500538e-09
-8.980999056e-09
-6.476499337e-09
-3.475500776e-09
-1.040000086e-09
4.225011452e-10
8.804992291e-10
5.584990248e-10
-1.679989481e-10
-8.905001181e-10
-1.283000373e-09
-9.289990999e-10
6.95500546e-10
3.45700002e-09
6.186498425e-09
7.831999937e-09
8.50300097e-09
8.83200002e-09
8.847999666e-09
7.974499283e-09
5.943499914e-09
3.212500488e-09
5.5050009e-10
-1.433999586e-09
-2.368500063e-09
-2.132001242e-09
-1.003000349e-09
3.930011871e-10
1.425000562e-09
1.786499837e-09
1.501000213e-09
7.214993047e-10
-4.294999911e-10
-1.944000516e-09
-3.939000237e-09
-6.498998673e-09
-9.463999362e-09
-1.242350045e-08
-1.48595003e-08
-1.631750024e-08
-1.647000047e-08
-1.533799932e-08
-1.373699909e-08
-1.29370008e-08
-1.326200127e-08
-1.392299964e-08
-1.495850022e-08
-1.738199984e-08
-2.006149913e-08
-1.973650043e-08
-1.560199969e-08
-9.666500489e-09
-2.86349966e-09
4.676500964e-09
1.125899907e-08
1.45019996e-08
1.423649998e-08
1.340499978e-08
1.480199963e-08
1.947250006e-08
2.958200085e-08
4.047400104e-08
4.266400033e-08
4.263299935e-08
4.400549969e-08
3.642599999e-08
4.362449957e-08
5.043449924e-08
6.253950069e-08
1.063710009e-07
1.127275002e-07
9.673400037e-08
1.124089994e-07
6.312649958e-08
0
0
0
0
)


101
(
-7.791135999e-06
-5.003018e-06
-1.144334e-06
4.98635e-08
1.620950005e-07
1.382800008e-07
9.599349937e-08
5.275499859e-08
2.766000051e-08
9.734000272e-09
1.317999931e-09
4.589999492e-09
1.161849994e-08
1.129600058e-08
7.143500014e-09
3.190001152e-09
6.589999657e-10
-3.925002545e-10
-3.420002059e-10
2.410001088e-10
8.444995814e-10
-4.385007912e-10
-4.327999292e-09
-7.940499813e-09
-8.899499804e-09
-7.361499854e-09
-4.672001452e-09
-2.0205011e-09
-1.109992098e-10
7.775007305e-10
7.230003263e-10
5.850075979e-11
-7.810001534e-10
-1.409000916e-09
-1.422000295e-09
-3.454996289e-10
1.926499849e-09
4.681000476e-09
6.878499548e-09
8.084999337e-09
8.578501465e-09
8.657499606e-09
8.196499479e-09
6.898000393e-09
4.713498925e-09
1.982000342e-09
-7.174989491e-10
-2.73050027e-09
-3.51450069e-09
-2.946000777e-09
-1.469999233e-09
1.260005433e-10
1.179000009e-09
1.439500963e-09
1.027499863e-09
1.819984163e-10
-1.007000705e-09
-2.671498578e-09
-5.00049957e-09
-8.005001106e-09
-1.13805001e-08
-1.453449983e-08
-1.680349904e-08
-1.752199985e-08
-1.620350076e-08
-1.332599986e-08
-1.064799982e-08
-9.518499766e-09
-9.15150089e-09
-8.671500851e-09
-9.918499799e-09
-1.422349882e-08
-1.830600027e-08
-1.864350097e-08
-1.624500001e-08
-1.266799998e-08
-6.422499865e-09
3.172001328e-09
1.213300038e-08
1.580399989e-08
1.436199959e-08
1.259749993e-08
1.277300044e-08
1.631449997e-08
2.688100054e-08
3.480599986e-08
4.065949888e-08
4.48559998e-08
3.390100112e-08
3.718249886e-08
4.724049951e-08
5.438800166e-08
9.792799993e-08
1.459444992e-07
1.239494996e-07
1.211205003e-07
7.749900099e-08
0
0
0
0
)


101
(
-7.743506998e-06
-4.995550999e-06
-1.174523501e-06
3.55389993e-08
1.620760006e-07
1.387669997e-07
9.74669998e-08
5.488300125e-08
2.915250086e-08
1.105049918e-08
1.932498606e-09
3.837499207e-09
1.042650055e-08
1.132050009e-08
8.017000397e-09
4.079000249e-09
1.163499519e-09
-2.830002899e-10
-4.61000127e-10
7.650058365e-11
7.654996637e-10
5.899991606e-11
-3.006499938e-09
-6.59349908e-09
-8.414998476e-09
-7.879000563e-09
-5.75050052e-09
-3.121000347e-09
-8.795009165e-10
4.480007476e-10
7.430003279e-10
2.41499265e-10
-6.295000077e-10
-1.441499364e-09
-1.788999171e-09
-1.232001168e-09
4.824993738e-10
3.020501183e-09
5.544000814e-09
7.339998831e-09
8.259998907e-09
8.514501104e-09
8.251500816e-09
7.391999901e-09
5.753499011e-09
3.323000541e-09
4.005009657e-10
-2.393500509e-09
-4.279000265e-09
-4.711500523e-09
-3.728999332e-09
-1.965998919e-09
-2.905000684e-10
6.814993014e-10
8.394991369e-10
4.099991457e-10
-3.969997664e-10
-1.645499736e-09
-3.578000118e-09
-6.340998837e-09
-9.799499878e-09
-1.345050116e-08
-1.660650106e-08
-1.843799957e-08
-1.79409998e-08
-1.473049949e-08
-1.028299934e-08
-7.061000673e-09
-5.324000796e-09
-3.229500223e-09
-1.771999436e-09
-4.553498911e-09
-1.055200016e-08
-1.466700006e-08
-1.597449995e-08
-1.719249987e-08
-1.690949958e-08
-1.029450125e-08
2.204000538e-09
1.33000011e-08
1.577049957e-08
1.218249857e-08
8.349500646e-09
4.144501631e-09
9.534499412e-09
2.066049909e-08
3.279149929e-08
4.785650098e-08
3.530499981e-08
3.021199824e-08
4.836650014e-08
5.647700085e-08
8.10745e-08
1.506735003e-07
1.516054997e-07
1.481515e-07
9.623250108e-08
0
0
0
0
)


101
(
-7.695556e-06
-4.987697499e-06
-1.2046285e-06
2.075550043e-08
1.617355014e-07
1.392704991e-07
9.887899921e-08
5.698850103e-08
3.069449939e-08
1.239499881e-08
2.634500618e-09
3.24700089e-09
9.253000144e-09
1.112899994e-08
8.743999302e-09
4.994499037e-09
1.780000147e-09
-7.749889619e-11
-5.454996455e-10
-1.115001425e-10
6.244995632e-10
3.699991424e-10
-1.932498606e-09
-5.253498969e-09
-7.627500409e-09
-8.015000219e-09
-6.610999748e-09
-4.242000529e-09
-1.836999886e-09
-1.210000988e-10
5.644995582e-10
3.094999812e-10
-5.010001303e-10
-1.416498918e-09
-2.031500301e-09
-1.942501271e-09
-8.240004234e-10
1.286000639e-09
3.854999875e-09
6.142000686e-09
7.660501566e-09
8.324999357e-09
8.289999798e-09
7.675499347e-09
6.403499953e-09
4.34549996e-09
1.542998618e-09
-1.603998712e-09
-4.343499782e-09
-5.887001109e-09
-5.837499373e-09
-4.44999948e-09
-2.509500163e-09
-8.765006498e-10
-9.499956377e-12
1.440003672e-10
-1.440003672e-10
-8.404992258e-10
-2.196498983e-09
-4.456500946e-09
-7.60800134e-09
-1.125749982e-08
-1.482949941e-08
-1.764949964e-08
-1.862199994e-08
-1.643850034e-08
-1.134350036e-08
-6.016499299e-09
-2.53099941e-09
5.949996051e-10
4.254498975e-09
4.629500339e-09
-3.304982954e-10
-6.178501266e-09
-9.824500324e-09
-1.433399888e-08
-2.06975006e-08
-2.271200117e-08
-1.433750008e-08
1.77150028e-09
1.221800083e-08
1.041250108e-08
3.321998676e-09
-6.857000301e-09
-6.19399998e-09
6.810500608e-09
1.552850115e-08
4.935099973e-08
4.635549899e-08
2.431699997e-08
4.380400043e-08
5.170499939e-08
6.792349971e-08
1.493430002e-07
1.868080002e-07
1.872175002e-07
1.078945004e-07
0
0
0
0
)


101
(
-7.647276998e-06
-4.979450999e-06
-1.234644001e-06
5.515499168e-09
1.610635003e-07
1.397800009e-07
1.002360008e-07
5.906600009e-08
3.227899903e-08
1.376849923e-08
3.420501216e-09
2.814500633e-09
8.120499828e-09
1.074849898e-08
9.304999438e-09
5.902000666e-09
2.494999762e-09
2.345004191e-10
-5.745004472e-10
-3.065014909e-10
4.28000746e-10
5.17500709e-10
-1.106499781e-09
-4.006500021e-09
-6.644000905e-09
-7.79600029e-09
-7.184999262e-09
-5.279499504e-09
-2.908000951e-09
-9.119993649e-10
1.565005903e-10
2.029985069e-10
-4.705000833e-10
-1.403998695e-09
-2.186999026e-09
-2.470500249e-09
-1.929000959e-09
-4.01000122e-10
1.911001135e-09
4.445499968e-09
6.569498723e-09
7.867999585e-09
8.273000063e-09
7.920000655e-09
6.869500524e-09
5.071999709e-09
2.486499895e-09
-6.935003682e-10
-3.897000056e-09
-6.329999636e-09
-7.330500651e-09
-6.741000647e-09
-5.029999528e-09
-3.047999186e-09
-1.525499727e-09
-6.779998785e-10
-2.985007796e-10
-2.745004224e-10
-8.410001584e-10
-2.357500861e-09
-4.90799934e-09
-8.108498761e-09
-1.140099926e-08
-1.438499986e-08
-1.647550008e-08
-1.619800116e-08
-1.221449963e-08
-5.865500086e-09
-4.500009254e-10
3.501000378e-09
7.805999402e-09
1.048699971e-08
7.889500608e-09
2.19550067e-09
-2.338499172e-09
-7.639000543e-09
-1.7224e-08
-2.782899955e-08
-3.040000074e-08
-1.79355002e-08
-1.206499789e-09
2.835999879e-09
-4.882499738e-09
-1.955599949e-08
-2.223850082e-08
-1.927000781e-09
-1.223349955e-08
4.599850101e-08
6.332900071e-08
2.005199917e-08
5.004049974e-08
3.023250095e-08
5.031099981e-08
1.649019996e-07
2.354389999e-07
2.298569992e-07
1.10078e-07
5.009326287e-13
0
0
0
)


101
(
-7.598663998e-06
-4.970805501e-06
-1.264565e-06
-1.017749973e-08
1.600524993e-07
1.402815002e-07
1.015385003e-07
6.111399919e-08
3.390299952e-08
1.517000037e-08
4.286000888e-09
2.536500787e-09
7.048999606e-09
1.020799978e-08
9.685999558e-09
6.766999405e-09
3.29000116e-09
6.585008094e-10
-5.30000932e-10
-4.894999961e-10
1.900009039e-10
5.23499466e-10
-5.20000043e-10
-2.918000064e-09
-5.573500772e-09
-7.281999004e-09
-7.440499772e-09
-6.144000864e-09
-4.006000864e-09
-1.875500644e-09
-4.784990182e-10
-1.159996543e-10
-6.044995615e-10
-1.486998968e-09
-2.334500593e-09
-2.853999703e-09
-2.788500097e-09
-1.901501179e-09
-1.145004092e-10
2.323499615e-09
4.865000847e-09
6.886500259e-09
7.995000217e-09
8.124001027e-09
7.335000163e-09
5.693999938e-09
3.24199867e-09
1.269988559e-10
-3.232498713e-09
-6.176000156e-09
-8.010500707e-09
-8.329498868e-09
-7.238000421e-09
-5.345000886e-09
-3.429999396e-09
-1.947999095e-09
-8.470006918e-10
1.949906903e-11
4.565006151e-10
-4.300027001e-11
-1.77150028e-09
-4.334999915e-09
-6.942000752e-09
-9.174499382e-09
-1.115099835e-08
-1.23494992e-08
-1.082400125e-08
-5.552999838e-09
9.680007906e-10
5.964500005e-09
9.997499717e-09
1.297949836e-08
1.195300037e-08
7.063500007e-09
2.286499878e-09
-2.477499095e-09
-1.137349948e-08
-2.563099955e-08
-3.94155002e-08
-3.894450096e-08
-2.412400057e-08
-1.427399887e-08
-1.737750033e-08
-3.058350018e-08
-3.62639998e-08
-4.912500629e-09
-4.88535008e-08
2.545900024e-08
7.405350111e-08
8.258499662e-09
7.647899913e-08
1.957999984e-09
1.978300013e-08
1.941355006e-07
2.994864996e-07
2.894289999e-07
1.098005011e-07
0
0
0
0
)


101
(
-7.549709e-06
-4.961754499e-06
-1.294386999e-06
-2.632050133e-08
1.58692e-07
1.407640013e-07
1.027904997e-07
6.312849976e-08
3.556150041e-08
1.659799942e-08
5.226500122e-09
2.410500244e-09
6.057499391e-09
9.535000345e-09
9.879499885e-09
7.55600027e-09
4.140501275e-09
1.194999655e-09
-3.955005212e-10
-6.405009856e-10
-7.399947322e-11
4.115001673e-10
-1.570015229e-10
-2.02999928e-09
-4.514498997e-09
-6.559000454e-09
-7.387500389e-09
-6.769500516e-09
-5.039499484e-09
-2.943499666e-09
-1.311500242e-09
-6.535003649e-10
-9.420002556e-10
-1.7404993e-09
-2.575999858e-09
-3.182499597e-09
-3.41949935e-09
-3.105499857e-09
-2.003501365e-09
-2.100009056e-11
2.584000569e-09
5.20000043e-09
7.170999794e-09
8.093499204e-09
7.820499803e-09
6.407500308e-09
4.012001398e-09
8.884999403e-10
-2.537500876e-09
-5.686999316e-09
-7.969500615e-09
-8.971001719e-09
-8.590999911e-09
-7.140998903e-09
-5.219499499e-09
-3.34600081e-09
-1.629999247e-09
6.800071617e-11
1.625998891e-09
2.414500599e-09
1.779000058e-09
-1.070006306e-10
-2.132500398e-09
-3.304000629e-09
-3.952498773e-09
-5.073999887e-09
-5.841000572e-09
-3.641499546e-09
1.863499577e-09
7.557000359e-09
1.138450045e-08
1.336349875e-08
1.228599977e-08
7.714501038e-09
2.664000576e-09
-1.541000216e-09
-7.978499639e-09
-2.077000083e-08
-4.056700043e-08
-5.43459997e-08
-5.063449926e-08
-4.06919991e-08
-3.541250138e-08
-3.455649988e-08
-3.52049998e-08
3.325999032e-09
-7.249400014e-08
-2.291900003e-08
5.467649977e-08
-1.461000032e-08
1.006839998e-07
-1.89099989e-08
-3.779699931e-08
2.017170004e-07
3.713580004e-07
3.897714986e-07
1.395510001e-07
5.009326287e-13
0
0
0
)


101
(
-7.500406998e-06
-4.9522935e-06
-1.324104501e-06
-4.290949995e-08
1.56974e-07
1.412140005e-07
1.039924999e-07
6.51069989e-08
3.72484994e-08
1.805249994e-08
6.238000338e-09
2.431001178e-09
5.162499761e-09
8.760999037e-09
9.882500152e-09
8.236501259e-09
5.019499483e-09
1.838499131e-09
-1.589999243e-10
-7.400000612e-10
-3.454996289e-10
2.0600055e-10
5.499600775e-12
-1.368000824e-09
-3.553999761e-09
-5.723499896e-09
-7.068999608e-09
-7.124500101e-09
-5.929500446e-09
-4.036499135e-09
-2.289999301e-09
-1.383000381e-09
-1.483000389e-09
-2.205000627e-09
-3.004998916e-09
-3.585999053e-09
-3.915001656e-09
-3.979501173e-09
-3.557000028e-09
-2.296999924e-09
-5.899991606e-11
2.803501431e-09
5.573500772e-09
7.525999379e-09
8.141499919e-09
7.257000334e-09
5.019499483e-09
1.820000151e-09
-1.750999346e-09
-5.028500283e-09
-7.457000351e-09
-8.739499791e-09
-8.823999309e-09
-7.889500608e-09
-6.290999721e-09
-4.395499076e-09
-2.340501126e-09
-1.050004528e-11
2.581000302e-09
4.804999065e-09
5.599499531e-09
4.556000022e-09
2.775999874e-09
2.124499687e-09
3.053001407e-09
3.661000392e-09
2.304998858e-09
9.874998597e-10
3.061501275e-09
7.803000912e-09
1.155099838e-08
1.245850001e-08
1.028200103e-08
5.244499945e-09
-3.434994511e-10
-4.450500413e-09
-8.539000618e-09
-1.740450095e-08
-3.725449993e-08
-6.151849874e-08
-7.343250097e-08
-7.107500011e-08
-5.84374984e-08
-3.321600062e-08
-1.503700098e-08
2.240100017e-08
-6.409999997e-08
-8.296449927e-08
3.152999639e-09
-2.117550046e-08
9.631550135e-08
-1.625999957e-08
-9.599950168e-08
1.214604985e-07
3.840190015e-07
5.350300007e-07
2.415404996e-07
3.000266702e-12
0
0
0
)


101
(
-7.450752001e-06
-4.942414e-06
-1.353712999e-06
-5.99429999e-08
1.548899995e-07
1.416199993e-07
1.051460004e-07
6.704700084e-08
3.89605006e-08
1.953049988e-08
7.314499229e-09
2.594500614e-09
4.378501117e-09
7.913998346e-09
9.700499959e-09
8.782500061e-09
5.893499022e-09
2.575001545e-09
1.89000815e-10
-7.700009519e-10
-6.054996504e-10
-6.700062727e-11
-5.501377132e-12
-9.364988784e-10
-2.756999962e-09
-4.876000048e-09
-6.558998678e-09
-7.212999975e-09
-6.619000459e-09
-5.078000243e-09
-3.349001076e-09
-2.258499165e-09
-2.192498627e-09
-2.870500282e-09
-3.673500615e-09
-4.190500391e-09
-4.429999478e-09
-4.598000203e-09
-4.664000741e-09
-4.205499948e-09
-2.708500091e-09
-8.449951849e-11
3.158000084e-09
6.148498599e-09
7.975499372e-09
8.068001378e-09
6.338501279e-09
3.183998842e-09
-6.105000949e-10
-4.128999365e-09
-6.648999573e-09
-7.896000298e-09
-8.013000041e-09
-7.331999896e-09
-6.135500996e-09
-4.565499978e-09
-2.584000569e-09
-7.000622304e-12
3.28450156e-09
6.802501673e-09
9.260999079e-09
9.471998297e-09
7.873500962e-09
6.829500521e-09
8.365498516e-09
1.121800075e-08
1.147300033e-08
8.16799961e-09
5.642499801e-09
7.171999883e-09
1.014150008e-08
1.044999998e-08
7.103000854e-09
1.146499784e-09
-5.208001141e-09
-9.70599956e-09
-1.241299863e-08
-1.733650024e-08
-3.326850084e-08
-6.136700037e-08
-8.697550058e-08
-9.706199933e-08
-8.216849956e-08
-3.190050002e-08
1.059050092e-08
3.864099973e-08
-4.035000067e-08
-1.336265001e-07
-6.654850004e-08
1.629349988e-08
6.37494999e-08
2.160749979e-08
-6.388200013e-08
-2.203998761e-09
2.390464999e-07
6.326129984e-07
4.322260008e-07
2.50111043e-12
0
0
0
)


101
(
-7.400735999e-06
-4.932109499e-06
-1.383206001e-06
-7.741850006e-08
1.524315003e-07
1.419690001e-07
1.062500008e-07
6.894699922e-08
4.06919991e-08
2.103050001e-08
8.4509999e-09
2.894500639e-09
3.717500974e-09
7.024500093e-09
9.342500107e-09
9.168999782e-09
6.727999491e-09
3.385999037e-09
6.515001871e-10
-7.129994373e-10
-8.34999625e-10
-3.830002981e-10
-1.579998354e-10
-7.254996603e-10
-2.166000712e-09
-4.107000962e-09
-5.945999249e-09
-7.072999963e-09
-7.081501607e-09
-6.004500008e-09
-4.426500055e-09
-3.223499689e-09
-3.011498606e-09
-3.68149955e-09
-4.567500156e-09
-5.077000154e-09
-5.136501002e-09
-5.130999625e-09
-5.3514988e-09
-5.533500769e-09
-4.960501343e-09
-3.056499054e-09
1.330011656e-10
3.874999877e-09
7.010498848e-09
8.497499593e-09
7.800000645e-09
5.081499665e-09
1.179500941e-09
-2.704998892e-09
-5.485500054e-09
-6.665000996e-09
-6.476501113e-09
-5.586999308e-09
-4.542998866e-09
-3.422000461e-09
-1.926000692e-09
3.595008735e-10
3.781000402e-09
8.123500095e-09
1.215200029e-08
1.404749916e-08
1.307149944e-08
1.112350034e-08
1.173300035e-08
1.580499998e-08
1.890099988e-08
1.625100055e-08
1.009749973e-08
6.876998526e-09
7.600998941e-09
7.459501461e-09
3.464501575e-09
-3.364501566e-09
-1.060000088e-08
-1.59494995e-08
-1.854849963e-08
-2.089350026e-08
-3.134799975e-08
-5.638749911e-08
-8.834300047e-08
-1.106405012e-07
-1.00606e-07
-3.490049849e-08
2.788000053e-08
4.273199927e-08
-2.461499982e-08
-1.561374994e-07
-1.403325012e-07
4.318999913e-08
7.313500916e-09
6.294400023e-08
6.98960001e-08
-3.448099939e-08
1.441649999e-08
6.230464997e-07
6.338164997e-07
9.499956377e-12
0
0
0
)


101
(
-7.35035e-06
-4.921371499e-06
-1.4125795e-06
-9.533400025e-08
1.495905e-07
1.42248e-07
1.073040004e-07
7.080599929e-08
4.243999996e-08
2.254950004e-08
9.640000798e-09
3.324499787e-09
3.189999376e-09
6.123000773e-09
8.823000996e-09
9.376000421e-09
7.486999465e-09
4.246498264e-09
1.227000723e-09
-5.56498847e-10
-1.016001505e-09
-7.189999707e-10
-4.20499191e-10
-7.120011247e-10
-1.799500993e-09
-3.486999134e-09
-5.326999286e-09
-6.77199985e-09
-7.321499851e-09
-6.769999672e-09
-5.463000718e-09
-4.229001149e-09
-3.879998545e-09
-4.548500243e-09
-5.604000819e-09
-6.24249985e-09
-6.162000687e-09
-5.794499103e-09
-5.780998791e-09
-6.232500738e-09
-6.492500759e-09
-5.61500002e-09
-3.056499054e-09
8.900009618e-10
5.104499934e-09
8.183999256e-09
9.035998616e-09
7.344000963e-09
3.739000221e-09
-4.395008801e-10
-3.692498751e-09
-5.057000152e-09
-4.548001087e-09
-3.06950021e-09
-1.688500006e-09
-7.994991336e-10
-1.099920155e-11
1.437999941e-09
4.26850022e-09
8.648999739e-09
1.369199865e-08
1.738500011e-08
1.776450098e-08
1.529000038e-08
1.387300053e-08
1.715149978e-08
2.260399867e-08
2.288449963e-08
1.578750108e-08
8.033500976e-09
5.0929998e-09
3.937000059e-09
-2.654996223e-10
-7.618000453e-09
-1.564150054e-08
-2.212600059e-08
-2.572100044e-08
-2.740650018e-08
-3.298099926e-08
-4.964750033e-08
-7.775050115e-08
-1.069410001e-07
-1.085229986e-07
-4.484049931e-08
2.881249905e-08
3.333449961e-08
-3.170699969e-08
-1.465139992e-07
-1.676050001e-07
3.20999991e-08
-8.61365006e-08
6.773950112e-08
2.211640009e-07
1.156999829e-09
-7.717300043e-08
5.943480001e-07
6.985845005e-07
6.499689675e-12
0
0
0
)


101
(
-7.299589999e-06
-4.910193001e-06
-1.441828001e-06
-1.136874985e-07
1.463610015e-07
1.424449998e-07
1.083044996e-07
7.262099899e-08
4.42000001e-08
2.408500066e-08
1.087549961e-08
3.877000054e-09
2.805000676e-09
5.237499323e-09
8.16149992e-09
9.390999978e-09
8.134499296e-09
5.124499936e-09
1.904000513e-09
-2.899991358e-10
-1.130500138e-09
-1.053999554e-09
-7.635012622e-10
-8.655014483e-10
-1.652498582e-09
-3.061998655e-09
-4.788001107e-09
-6.392500751e-09
-7.374499233e-09
-7.355000164e-09
-6.413500842e-09
-5.232999811e-09
-4.750498661e-09
-5.382499779e-09
-6.650001438e-09
-7.582000805e-09
-7.530498891e-09
-6.775000116e-09
-6.211500647e-09
-6.443499956e-09
-7.162499926e-09
-7.320998918e-09
-5.836499284e-09
-2.350500239e-09
2.400000199e-09
6.918000395e-09
9.618998931e-09