/*--------------------------------*- C++ -*----------------------------------*\
| =========                 |                                                 |
| \\      /  F ield         | OpenFOAM: The Open Source CFD Toolbox           |
|  \\    /   O peration     | Version:  2.3.1                                 |
|   \\  /    A nd           | Web:      www.OpenFOAM.org                      |
|    \\/     M anipulation  |                                                 |
\*---------------------------------------------------------------------------*/
FoamFile
{
    version     2.0;
    format      ascii;
    class       dictionary;
    location    "constant";
    object      GRPSI47;
}
// * * * * * * * * * * * * * * * * * * * * * * * * * * * * * * * * * * * * * //

GRPSI47_table
101
(

101
(
-1.859309841e-15
-1.807648703e-10
-1.325237401e-09
-4.959115366e-09
-1.294565987e-08
-2.737947228e-08
-5.089288303e-08
-8.945229874e-08
-1.479683691e-07
-2.361748848e-07
-3.665347099e-07
-5.587379977e-07
-8.335379259e-07
-1.245483846e-06
-1.829758409e-06
-2.656523675e-06
-3.829076557e-06
-5.506679181e-06
-7.60453932e-06
-1.072015386e-05
-1.442103959e-05
-1.895861563e-05
-2.490043201e-05
-3.162756353e-05
-3.901934387e-05
-4.696567771e-05
-5.516429518e-05
-6.324589536e-05
-7.106911074e-05
-7.818980433e-05
-8.449771827e-05
-8.981675994e-05
-9.411461313e-05
-9.785558199e-05
-0.0001002833443
-0.0001018932918
-0.0001032088734
-0.0001033556945
-9.979713391e-05
-9.685371828e-05
-9.36982885e-05
-9.063279142e-05
-8.665857301e-05
-8.217415359e-05
-7.757341513e-05
-7.21782361e-05
-6.665446228e-05
-6.045522532e-05
-5.412457441e-05
-4.723055621e-05
-4.030552636e-05
-3.306017796e-05
-2.558418806e-05
-1.799534445e-05
-1.036025962e-05
-2.636642001e-06
5.802896971e-06
1.353127602e-05
2.185999349e-05
2.990641823e-05
3.818823385e-05
4.624067993e-05
5.420646191e-05
6.214580184e-05
6.991139499e-05
7.758505052e-05
8.505756635e-05
9.233467183e-05
9.946954316e-05
0.0001062284236
0.0001127531382
0.000118926372
0.0001247928366
0.0001297954073
0.0001314119676
0.0001375663322
0.0001472002681
0.0001539329427
0.0001588427462
0.0001629268556
0.0001664684657
0.0001695053517
0.0001713940025
0.0001705585674
0.0001772064084
0.0001826485327
0.0001850551093
0.0001864279852
0.0001866671707
0.0001827894471
0.0001890850397
0.000190896352
0.0001881671563
0.0001898667205
0.0001878347356
0.0001881252923
0.000180733254
0.0001985166148
0.000216349633
0.0002346043714
0.0002528378182
)


101
(
-1.859309837e-15
-1.772774551e-10
-1.306317886e-09
-4.895657394e-09
-1.278293375e-08
-2.702620157e-08
-5.019937507e-08
-8.811293379e-08
-1.455922046e-07
-2.320363339e-07
-3.595275736e-07
-5.470086808e-07
-8.146074392e-07
-1.21394293e-06
-1.780259525e-06
-2.579900678e-06
-3.711498141e-06
-5.326893135e-06
-7.363074957e-06
-1.03471554e-05
-1.394949426e-05
-1.835765786e-05
-2.408722054e-05
-3.066581201e-05
-3.793389232e-05
-4.577524281e-05
-5.391698347e-05
-6.200876805e-05
-6.987781769e-05
-7.712694356e-05
-8.36003417e-05
-8.912630469e-05
-9.365128627e-05
-9.753575994e-05
-0.0001002468763
-0.0001020888397
-0.0001035342098
-0.0001039626277
-0.0001012466555
-9.835751603e-05
-9.52167594e-05
-9.208933226e-05
-8.826473001e-05
-8.389864075e-05
-7.930381394e-05
-7.403767109e-05
-6.851360506e-05
-6.240771341e-05
-5.606218877e-05
-4.922701793e-05
-4.224451192e-05
-3.497256751e-05
-2.745029051e-05
-1.976403977e-05
-1.199149944e-05
-4.129934727e-06
4.265641544e-06
1.228377736e-05
2.066163313e-05
2.891258283e-05
3.731411801e-05
4.558431043e-05
5.376768419e-05
6.191775759e-05
6.994412569e-05
7.786147107e-05
8.559991221e-05
9.315389148e-05
0.0001005640155
0.0001076543184
0.0001145039573
0.0001210332619
0.0001272786465
0.0001328210284
0.0001358012549
0.0001412073963
0.0001495108376
0.0001567148997
0.0001625012123
0.0001671929658
0.0001711701058
0.0001746719161
0.000177265847
0.0001775863273
0.0001821993542
0.0001875322389
0.0001910713941
0.0001930648316
0.0001941007844
0.0001922810862
0.000195557282
0.000198417031
0.0001976618644
0.0001983059905
0.0001983993118
0.0001971451634
0.0001899763595
0.0002086744621
0.0002274851192
0.0002472394111
0.000266993437
)


101
(
-1.859309837e-15
-1.703574398e-10
-1.268760789e-09
-4.769708845e-09
-1.246016583e-08
-2.632615257e-08
-4.882669824e-08
-8.546644737e-08
-1.409000405e-07
-2.238798014e-07
-3.457426019e-07
-5.239880657e-07
-7.775076199e-07
-1.15237051e-06
-1.683617045e-06
-2.430512435e-06
-3.482570832e-06
-4.977306364e-06
-6.889740755e-06
-9.624174378e-06
-1.302171955e-05
-1.717483666e-05
-2.249768775e-05
-2.876066407e-05
-3.576716377e-05
-4.338704306e-05
-5.139574135e-05
-5.94820658e-05
-6.742708121e-05
-7.490527396e-05
-8.169642163e-05
-8.762557471e-05
-9.260245584e-05
-9.681257804e-05
-0.0001000522099
-0.0001023715078
-0.0001041281935
-0.0001050790117
-0.0001038202062
-0.0001013492012
-9.836673176e-05
-9.520963237e-05
-9.164016587e-05
-8.75438647e-05
-8.306035237e-05
-7.805907895e-05
-7.263551066e-05
-6.673576528e-05
-6.045650664e-05
-5.376813332e-05
-4.677805115e-05
-3.951235302e-05
-3.19714471e-05
-2.419552169e-05
-1.625567189e-05
-8.19562107e-06
1.532221755e-07
8.547638768e-06
1.70509199e-05
2.560678342e-05
3.422764715e-05
4.284597638e-05
5.140926356e-05
5.993004553e-05
6.838424833e-05
7.673021126e-05
8.494367074e-05
9.29936991e-05
0.0001009014311
0.0001085860127
0.0001160348592
0.0001232250772
0.0001301664329
0.0001366805776
0.0001418582853
0.0001468342373
0.0001532417444
0.0001605370048
0.0001675245701
0.0001734657903
0.0001783826476
0.0001827054953
0.0001864973654
0.0001889287677
0.0001915003354
0.0001957869601
0.0002006149975
0.0002039825233
0.0002061315776
0.0002070868756
0.0002077713427
0.000210457496
0.0002127308153
0.0002130379085
0.0002147332757
0.0002126396856
0.0002058698615
0.0002257131417
0.0002457023087
0.000266918309
0.0002881761078
)


101
(
-1.859309837e-15
-1.635468827e-10
-1.231766456e-09
-4.64568757e-09
-1.214273599e-08
-2.563902133e-08
-4.748259969e-08
-8.288424706e-08
-1.363282299e-07
-2.159637579e-07
-3.324150384e-07
-5.018393146e-07
-7.419262814e-07
-1.093785587e-06
-1.59168514e-06
-2.288825958e-06
-3.266087962e-06
-4.647666546e-06
-6.436692872e-06
-8.946063582e-06
-1.212837773e-05
-1.603259612e-05
-2.098150263e-05
-2.690168561e-05
-3.361905621e-05
-4.099399605e-05
-4.883331812e-05
-5.686474973e-05
-6.48509511e-05
-7.250531351e-05
-7.958249883e-05
-8.589123735e-05
-9.131202568e-05
-9.590899072e-05
-9.962775189e-05
-0.0001024529008
-0.0001045977945
-0.0001060237817
-0.0001058537234
-0.0001042007443
-0.0001016501724
-9.866936225e-05
-9.532965279e-05
-9.154380873e-05
-8.732435396e-05
-8.262784778e-05
-7.746418247e-05
-7.183374805e-05
-6.577664794e-05
-5.931113953e-05
-5.248609371e-05
-4.534832405e-05
-3.791825109e-05
-3.021950647e-05
-2.229644308e-05
-1.419707642e-05
-5.876107632e-06
2.607029772e-06
1.12105348e-05
1.991040196e-05
2.868759859e-05
3.751195278e-05
4.633977114e-05
5.514234614e-05
6.390084295e-05
7.258622604e-05
8.118221356e-05
8.965519047e-05
9.799202726e-05
0.0001061623264
0.0001141218795
0.0001218696194
0.000129393592
0.0001366635309
0.0001432309521
0.0001490886785
0.0001550409912
0.0001617245588
0.0001689615928
0.0001759106964
0.0001818780098
0.0001869628428
0.0001915745906
0.0001955139247
0.0001986842421
0.0002019869733
0.0002064352385
0.0002109563017
0.0002140480759
0.0002161555648
0.0002177478002
0.0002192824627
0.0002221471356
0.0002237535779
0.0002250292021
0.0002242684365
0.0002190031569
0.0002387429072
0.0002585671276
0.000279139829
0.0002996807469
)


101
(
-1.85931001e-15
-1.568459172e-10
-1.195332914e-09
-4.523579165e-09
-1.183058798e-08
-2.49646749e-08
-4.616685512e-08
-8.036589099e-08
-1.318766917e-07
-2.082867514e-07
-3.195418955e-07
-4.805532838e-07
-7.078525869e-07
-1.038123096e-06
-1.504446658e-06
-2.154787872e-06
-3.061972496e-06
-4.337844915e-06
-6.005753447e-06
-8.310717211e-06
-1.127571615e-05
-1.493547735e-05
-1.953791486e-05
-2.510448863e-05
-3.150860764e-05
-3.861470769e-05
-4.62519149e-05
-5.418298322e-05
-6.217018101e-05
-6.995100279e-05
-7.727446994e-05
-8.393299046e-05
-8.978252007e-05
-9.479972297e-05
-9.898354455e-05
-0.0001023179993
-0.0001049108442
-0.0001068134945
-0.0001075062096
-0.0001067685157
-0.0001048907679
-0.0001023095457
-9.92772745e-05
-9.583077875e-05
-9.196030719e-05
-8.763495563e-05
-8.283417294e-05
-7.756148096e-05
-7.183751425e-05
-6.569058878e-05
-5.915133714e-05
-5.226194117e-05
-4.505326823e-05
-3.755003927e-05
-2.97834462e-05
-2.179229678e-05
-1.35761844e-05
-5.15222276e-06
3.435200243e-06
1.216398222e-05
2.100373629e-05
2.992786361e-05
3.890529768e-05
4.790006069e-05
5.68867021e-05
6.584337969e-05
7.475078108e-05
8.358662879e-05
9.231379444e-05
0.0001009124371
0.0001093421266
0.0001175873007
0.0001256310023
0.0001334901071
0.0001409898076
0.0001479172008
0.0001544108371
0.000160984278
0.0001680691702
0.0001754948279
0.0001824633269
0.0001884897313
0.0001938038158
0.0001986628621
0.000202939347
0.0002066715087
0.0002105772961
0.0002153067138
0.000219495259
0.0002224815106
0.0002248794174
0.0002269175809
0.0002292805749
0.000231721079
0.000233412964
0.0002336716069
0.0002304518636
0.0002491971743
0.0002681453249
0.0002887299544
0.0003093067765
)


101
(
-1.859309841e-15
-1.502547906e-10
-1.159457646e-09
-4.403367897e-09
-1.152366413e-08
-2.43029643e-08
-4.487916737e-08
-7.79107253e-08
-1.275447604e-07
-2.008460788e-07
-3.071169767e-07
-4.601142671e-07
-6.752601515e-07
-9.852935168e-07
-1.421817451e-06
-2.02824006e-06
-2.86996853e-06
-4.047425e-06
-5.597923799e-06
-7.716131344e-06
-1.046732477e-05
-1.388711151e-05
-1.816598794e-05
-2.337870236e-05
-2.945136195e-05
-3.626559551e-05
-4.367030796e-05
-5.145883728e-05
-5.940380454e-05
-6.72614075e-05
-7.478496809e-05
-8.175660415e-05
-8.801194015e-05
-9.346207905e-05
-9.81099842e-05
-0.00010194181
-0.0001050259302
-0.0001074236723
-0.0001088478043
-0.0001090068662
-0.0001079454929
-0.0001059653495
-0.000103374315
-0.0001003283454
-9.686634914e-05
-9.297340225e-05
-8.861578958e-05
-8.378698869e-05
-7.849417157e-05
-7.27625637e-05
-6.661732597e-05
-6.00907169e-05
-5.321531364e-05
-4.601990409e-05
-3.853370992e-05
-3.078269793e-05
-2.278644935e-05
-1.454938304e-05
-6.108434337e-06
2.521261152e-06
1.13056083e-05
2.021475411e-05
2.922451957e-05
3.830012394e-05
4.740985295e-05
5.653752363e-05
6.566468278e-05
7.476853397e-05
8.381882337e-05
9.278534561e-05
0.000101641426
0.0001103534997
0.0001188970293
0.0001272780434
0.0001354526025
0.0001432799254
0.0001506594942
0.0001577237989
0.0001648895167
0.0001724868839
0.0001801938448
0.0001872863331
0.0001934972961
0.0001991294088
0.0002043322521
0.0002090273349
0.0002133259295
0.0002179380062
0.0002228301338
0.0002267480425
0.0002298350047
0.0002326020848
0.0002352294198
0.0002381606462
0.0002404832719
0.0002413214211
0.0002394388211
0.0002578838059
0.000276510304
0.0002967421267
0.0003168897848
)


101
(
-1.859309837e-15
-1.437734238e-10
-1.124138904e-09
-4.28504065e-09
-1.122191488e-08
-2.365376475e-08
-4.36193019e-08
-7.551814931e-08
-1.23331455e-07
-1.936380629e-07
-2.95131561e-07
-4.405004864e-07
-6.441095198e-07
-9.351846497e-07
-1.343656018e-06
-1.908932863e-06
-2.689656696e-06
-3.775725485e-06
-5.213546872e-06
-7.160308075e-06
-9.704784284e-06
-1.289007042e-05
-1.686468234e-05
-2.172991983e-05
-2.745950793e-05
-3.39612449e-05
-4.110501779e-05
-4.871172131e-05
-5.657027628e-05
-6.445428768e-05
-7.212652459e-05
-7.936693981e-05
-8.599591059e-05
-9.187512139e-05
-9.69887544e-05
-0.0001013178832
-0.0001049067162
-0.0001078165225
-0.000109900482
-0.0001108991317
-0.0001107131511
-0.0001094849257
-0.0001074837977
-0.0001049317466
-0.0001019401413
-9.853499207e-05
-9.46865619e-05
-9.037727361e-05
-8.560230129e-05
-8.037873446e-05
-7.472846605e-05
-6.867377413e-05
-6.224610785e-05
-5.54740042e-05
-4.838671874e-05
-4.100634232e-05
-3.335871511e-05
-2.544261655e-05
-1.728846987e-05
-8.903431479e-06
-3.174491823e-07
8.438185207e-06
1.73413347e-05
2.635835856e-05
3.545712263e-05
4.461598228e-05
5.382800963e-05
6.306953414e-05
7.232193597e-05
8.154783995e-05
9.071995381e-05
9.981347186e-05
0.0001087943008
0.0001176519488
0.00012637326
0.0001349004817
0.0001431146384
0.0001509668293
0.0001586244768
0.0001664639403
0.000174644384
0.0001826960329
0.0001900190048
0.0001965935008
0.0002026941364
0.0002083825432
0.0002136012085
0.0002186723156
0.0002240332448
0.0002289668422
0.0002329371239
0.0002364218924
0.0002396759607
0.0002431629202
0.0002461145939
0.0002477365419
0.0002472919359
0.0002656296951
0.0002838303064
0.0003016189315
0.0003190242427
)


101
(
-1.859309837e-15
-1.374020085e-10
-1.089374837e-09
-4.168582922e-09
-1.092528617e-08
-2.301694281e-08
-4.238702626e-08
-7.318760925e-08
-1.192356142e-07
-1.866586398e-07
-2.835759581e-07
-4.216885201e-07
-6.143576421e-07
-8.876812475e-07
-1.269801137e-06
-1.79658662e-06
-2.520555775e-06
-3.521958039e-06
-4.852534378e-06
-6.641409672e-06
-8.98845469e-06
-1.194600341e-05
-1.563313256e-05
-2.016129608e-05
-2.554249984e-05
-3.171482694e-05
-3.857160382e-05
-4.595990036e-05
-5.368832043e-05
-6.154814583e-05
-6.931491353e-05
-7.677230789e-05
-8.373271837e-05
-9.002175932e-05
-9.559597184e-05
-0.0001004205453
-0.0001045198646
-0.000107950438
-0.0001106511471
-0.0001124267188
-0.0001131188703
-0.0001127385246
-0.0001114619563
-0.000109514778
-0.0001070676052
-0.0001042047069
-0.000100922434
-9.719930753e-05
-9.302044469e-05
-8.839088902e-05
-8.332483173e-05
-7.784559173e-05
-7.197876547e-05
-6.574255358e-05
-5.917240706e-05
-5.229389333e-05
-4.512623409e-05
-3.766944077e-05
-2.995278777e-05
-2.197491471e-05
-1.375663658e-05
-5.323808964e-06
3.308643039e-06
1.209853575e-05
2.101751996e-05
3.003238942e-05
3.914045611e-05
4.833534732e-05
5.760575926e-05
6.69331143e-05
7.626274136e-05
8.558204263e-05
9.484080242e-05
0.0001040389619
0.0001131736757
0.0001222153763
0.0001310823042
0.0001396922072
0.00014804145
0.0001563472828
0.0001649140932
0.0001736994348
0.0001821322048
0.0001898505624
0.0001969775024
0.0002037284114
0.0002100489615
0.0002160762538
0.0002221087636
0.0002281129153
0.0002332293005
0.0002377280134
0.000241851989
0.0002461074594
0.0002499044935
0.0002526713289
0.0002535954063
0.0002703970704
0.0002864873419
0.0002991653947
0.0003105468196
)


101
(
-1.859310183e-15
-1.311409367e-10
-1.055163731e-09
-4.053982244e-09
-1.063372396e-08
-2.239233607e-08
-4.118197531e-08
-7.091824966e-08
-1.152556908e-07
-1.799030839e-07
-2.72438991e-07
-4.036524265e-07
-5.859558936e-07
-8.426620724e-07
-1.200069113e-06
-1.690890237e-06
-2.362133297e-06
-3.285251189e-06
-4.514452895e-06
-6.157637755e-06
-8.317825548e-06
-1.105573965e-05
-1.447048987e-05
-1.867432475e-05
-2.370746216e-05
-2.953818074e-05
-3.608522391e-05
-4.32215005e-05
-5.077733473e-05
-5.856262104e-05
-6.636775439e-05
-7.398476244e-05
-8.122501251e-05
-8.788975055e-05
-9.390740213e-05
-9.921976316e-05
-0.0001038299204
-0.0001077845274
-0.0001110730798
-0.0001135672214
-0.0001151055992
-0.0001156134682
-0.000115163037
-0.0001139334347
-0.0001121181327
-0.0001098564082
-0.0001071902939
-0.0001041125126
-0.0001005970934
-9.663680118e-05
-9.223976902e-05
-8.743445405e-05
-8.223583842e-05
-7.665415006e-05
-7.072222446e-05
-6.446458247e-05
-5.791055198e-05
-5.104674236e-05
-4.391767047e-05
-3.651699732e-05
-2.884718925e-05
-2.093279992e-05
-1.277383188e-05
-4.41078623e-06
4.127939999e-06
1.280448261e-05
2.159702944e-05
3.052491975e-05
3.957773163e-05
4.875503753e-05
5.800743262e-05
6.731212954e-05
7.663476897e-05
8.595416346e-05
9.527604146e-05
0.0001045882737
0.0001138596425
0.0001230023721
0.0001319425978
0.0001407830211
0.0001497556649
0.0001590283997
0.000168344965
0.0001771838565
0.0001854451458
0.0001933254241
0.0002008074335
0.0002080348006
0.0002151022214
0.0002222441594
0.0002287710628
0.0002346147911
0.0002400020358
0.000245344412
0.0002504273964
0.000254533138
0.0002571688694
0.0002701185942
0.0002812358626
0.0002837145917
0.0002819629991
)


101
(
-1.859310183e-15
-1.249901831e-10
-1.021503724e-09
-3.941225714e-09
-1.034717447e-08
-2.177976489e-08
-4.000366042e-08
-6.870882965e-08
-1.113898654e-07
-1.733665193e-07
-2.617087127e-07
-3.863639619e-07
-5.588508476e-07
-8.00001547e-07
-1.134260815e-06
-1.591508793e-06
-2.213818378e-06
-3.064668069e-06
-4.198611595e-06
-5.707212439e-06
-7.691740784e-06
-1.021930283e-05
-1.337580068e-05
-1.726939094e-05
-2.19594493e-05
-2.744141804e-05
-3.366001889e-05
-4.051408949e-05
-4.785712086e-05
-5.551868019e-05
-6.330542264e-05
-7.102074618e-05
-7.848064817e-05
-8.547340084e-05
-9.190346749e-05
-9.768703834e-05
-0.0001028028145
-0.000107280764
-0.0001111342354
-0.0001142936177
-0.0001166265661
-0.0001180178196
-0.0001184542071
-0.0001180411607
-0.0001169538038
-0.0001153634817
-0.0001133614773
-0.0001109724302
-0.000108170612
-0.0001049440684
-0.0001012939299
-9.724588747e-05
-9.281129976e-05
-8.79997866e-05
-8.28150254e-05
-7.729754159e-05
-7.149022964e-05
-6.536533758e-05
-5.897074223e-05
-5.230768127e-05
-4.536355266e-05
-3.815470952e-05
-3.069257392e-05
-2.298207384e-05
-1.504468402e-05
-6.9143995e-06
1.337522634e-06
9.744155008e-06
1.829335758e-05
2.701420853e-05
3.58888834e-05
4.488362255e-05
5.396328182e-05
6.309542888e-05
7.228042842e-05
8.154954381e-05
9.088444949e-05
0.0001002025257
0.0001094345112
0.0001186013411
0.0001278581093
0.0001373678071
0.0001471880724
0.0001568504065
0.0001661122055
0.0001750654106
0.0001836509579
0.0001920518655
0.0002003258276
0.0002086291061
0.0002167470383
0.0002241644091
0.0002311076373
0.000237877568
0.00024460258
0.0002505207307
0.0002556789506
0.0002606240575
0.0002622201287
0.0002494557465
0.0002338820078
)


101
(
-1.859296187e-15
-1.189500198e-10
-9.883932319e-10
-3.830300512e-09
-1.006558404e-08
-2.117905044e-08
-3.885158765e-08
-6.655804859e-08
-1.076361442e-07
-1.670440381e-07
-2.513729976e-07
-3.69794861e-07
-5.32988178e-07
-7.595770893e-07
-1.072175706e-06
-1.498103713e-06
-2.075031209e-06
-2.859251709e-06
-3.904117787e-06
-5.28839855e-06
-7.108653455e-06
-9.436015995e-06
-1.234785665e-05
-1.594593988e-05
-2.030149533e-05
-2.543252525e-05
-3.130856418e-05
-3.785424647e-05
-4.494734123e-05
-5.243823173e-05
-6.015094852e-05
-6.790219551e-05
-7.551647162e-05
-8.277844427e-05
-8.957665702e-05
-9.580292345e-05
-0.0001014092803
-0.0001064028206
-0.0001108009562
-0.0001145783784
-0.0001176464547
-0.0001198874448
-0.0001212294428
-0.0001217030581
-0.0001214339653
-0.0001205921185
-0.0001193052741
-0.0001176391337
-0.0001155916762
-0.000113152468
-0.0001103097477
-0.0001070812625
-0.0001034847527
-9.952661924e-05
-9.519535963e-05
-9.05507541e-05
-8.560116855e-05
-8.035306404e-05
-7.48230354e-05
-6.904516829e-05
-6.299999047e-05
-5.667941994e-05
-5.01078595e-05
-4.326948109e-05
-3.618579357e-05
-2.886436784e-05
-2.13755081e-05
-1.375435124e-05
-5.991293121e-06
1.961538926e-06
1.011186254e-05
1.844923708e-05
2.691600131e-05
3.548871235e-05
4.41571963e-05
5.297755093e-05
6.192943136e-05
7.09556725e-05
8.006280746e-05
8.914375128e-05
9.830033287e-05
0.0001077155287
0.0001175259472
0.0001274924646
0.0001373235303
0.0001470182138
0.0001564502072
0.000165689366
0.0001749378916
0.0001843160582
0.000193836499
0.0002027813787
0.0002113579757
0.0002197171974
0.0002282010812
0.0002361805753
0.0002440396337
0.0002364665778
0.0002237256377
0.0001912704953
0.0001557672531
)


101
(
-1.859249403e-15
-1.130209984e-10
-9.558317399e-10
-3.721197081e-09
-9.78890286e-09
-2.059001732e-08
-3.772527417e-08
-6.446466272e-08
-1.039924026e-07
-1.609302866e-07
-2.414192996e-07
-3.539172612e-07
-5.083144758e-07
-7.212701303e-07
-1.013616298e-06
-1.410342974e-06
-1.945204602e-06
-2.668052117e-06
-3.629978359e-06
-4.899478239e-06
-6.56676633e-06
-8.704737716e-06
-1.138511524e-05
-1.470264113e-05
-1.873474131e-05
-2.351699353e-05
-2.90412733e-05
-3.525707136e-05
-4.206698996e-05
-4.934332943e-05
-5.692865723e-05
-6.465436603e-05
-7.23560996e-05
-7.982118357e-05
-8.693076781e-05
-9.355757059e-05
-9.962735792e-05
-0.000105120368
-0.0001100443812
-0.0001144009533
-0.0001181440067
-0.0001211792441
-0.000123406698
-0.0001247965879
-0.0001254107189
-0.0001253879179
-0.0001248726545
-0.0001239688929
-0.0001227097609
-0.0001210966132
-0.0001191083041
-0.0001167516955
-0.0001140480688
-0.000111007496
-0.0001076292599
-0.0001039451008
-9.995974891e-05
-9.568857079e-05
-9.114681213e-05
-8.637429431e-05
-8.13706742e-05
-7.610996832e-05
-7.060788417e-05
-6.484776957e-05
-5.884233247e-05
-5.261428202e-05
-4.615076405e-05
-3.955213258e-05
-3.283328398e-05
-2.594312947e-05
-1.887166797e-05
-1.158780127e-05
-4.096104865e-06
3.537783011e-06
1.127876314e-05
1.915420169e-05
2.722078355e-05
3.546308725e-05
4.385295202e-05
5.231767101e-05
6.087669966e-05
6.968773278e-05
7.889646369e-05
8.851223579e-05
9.820244668e-05
0.0001079399719
0.000117697489
0.0001272500274
0.0001368838689
0.0001468921125
0.0001572490908
0.0001672691155
0.0001770619772
0.000186823978
0.0001968082754
0.0002066148135
0.0002167753029
0.0001921450295
0.0001610176344
0.000108320334
5.164907183e-05
)


101
(
-1.859215931e-15
-1.07203259e-10
-9.238179203e-10
-3.61390196e-09
-9.517070943e-09
-2.001246519e-08
-3.662415471e-08
-6.242725002e-08
-1.004564521e-07
-1.550198658e-07
-2.318345567e-07
-3.387028294e-07
-4.847763638e-07
-6.849638421e-07
-9.583842829e-07
-1.327897549e-06
-1.82378221e-06
-2.49013824e-06
-3.375121932e-06
-4.538756071e-06
-6.064095057e-06
-8.023809541e-06
-1.0485662e-05
-1.353763656e-05
-1.725914622e-05
-2.169850643e-05
-2.686678182e-05
-3.273640888e-05
-3.923457223e-05
-4.625627942e-05
-5.366378194e-05
-6.130454609e-05
-6.902709031e-05
-7.662506505e-05
-8.39791109e-05
-9.095046295e-05
-9.744294937e-05
-0.0001034094725
-0.0001088382052
-0.0001137406149
-0.0001181026245
-0.0001218644591
-0.0001249264675
-0.0001272210974
-0.0001287485434
-0.0001295979243
-0.0001299073208
-0.0001298044172
-0.0001293596178
-0.0001285988554
-0.0001274954332
-0.0001260493781
-0.0001242841608
-0.0001222107035
-0.0001198383622
-0.00011716378
-0.0001142382366
-0.0001110347655
-0.0001075983691
-0.0001039324178
-0.0001000828345
-9.600694039e-05
-9.172117205e-05
-8.721807624e-05
-8.249791829e-05
-7.75717104e-05
-7.240538405e-05
-6.707767869e-05
-6.16214072e-05
-5.60653663e-05
-5.036871276e-05
-4.450003459e-05
-3.837791986e-05
-3.207441308e-05
-2.565492731e-05
-1.914187907e-05
-1.246121331e-05
-5.569981548e-06
1.539639604e-06
8.783379082e-06
1.617466084e-05
2.375059444e-05
3.174881655e-05
4.028720596e-05
4.9016314e-05
5.791235459e-05
6.717425056e-05
7.635121341e-05
8.561221771e-05
9.530593494e-05
0.0001056602551
0.0001159547731
0.000126165238
0.0001365091729
0.0001473250375
0.0001581402853
0.0001694083981
0.0001253444251
7.463134681e-05
6.862402428e-06
-6.342957139e-05
)


101
(
-1.859216628e-15
-1.014972701e-10
-8.923510864e-10
-3.508404596e-09
-9.250035899e-09
-1.944621411e-08
-3.554771123e-08
-6.044442279e-08
-9.702596894e-08
-1.493074896e-07
-2.226061814e-07
-3.241242262e-07
-4.623218962e-07
-6.505473621e-07
-9.062892415e-07
-1.250450413e-06
-1.710224892e-06
-2.3246112e-06
-3.138414454e-06
-4.204548583e-06
-5.598590508e-06
-7.391338715e-06
-9.647468839e-06
-1.244884794e-05
-1.587409244e-05
-1.997981269e-05
-2.479254912e-05
-3.030498285e-05
-3.646779705e-05
-4.319915297e-05
-5.038201656e-05
-5.78808988e-05
-6.555831668e-05
-7.32172114e-05
-8.074220833e-05
-8.799038443e-05
-9.485071635e-05
-0.0001012525105
-0.0001071595564
-0.0001125751697
-0.0001175048409
-0.0001219235476
-0.0001257507235
-0.000128905663
-0.0001313419788
-0.0001330924538
-0.0001342655942
-0.0001349921624
-0.0001353764758
-0.0001354731086
-0.000135266814
-0.0001347544494
-0.0001339570466
-0.0001328789059
-0.0001315389366
-0.0001299321007
-0.0001281123247
-0.0001260570892
-0.0001237890893
-0.0001213186461
-0.0001187073208
-0.0001159143671
-0.0001129373286
-0.0001098143646
-0.0001065475201
-0.0001030728808
-9.941829726e-05
-9.557214821e-05
-9.161917506e-05
-8.761432114e-05
-8.351402364e-05
-7.93215372e-05
-7.492884621e-05
-7.033882722e-05
-6.56040747e-05
-6.078031783e-05
-5.591527284e-05
-5.086110057e-05
-4.554243573e-05
-4.008693324e-05
-3.442431902e-05
-2.863044974e-05
-2.249782506e-05
-1.57864094e-05
-8.666681365e-06
-1.406166036e-06
6.287189032e-06
1.425983168e-05
2.228468127e-05
3.061830694e-05
3.997642788e-05
4.939011535e-05
5.923427183e-05
6.898656007e-05
7.94803876e-05
9.002962158e-05
0.0001012169998
4.04265496e-05
-2.59434653e-05
-0.0001004709762
-0.0001808470661
)


101
(
-1.859217316e-15
-9.5903573e-11
-8.614300232e-10
-3.40469243e-09
-8.987738421e-09
-1.889106716e-08
-3.449543011e-08
-5.851478651e-08
-9.36982718e-08
-1.437874438e-07
-2.137224037e-07
-3.101543822e-07
-4.409004122e-07
-6.179164947e-07
-8.571521782e-07
-1.177701354e-06
-1.604016819e-06
-2.170587458e-06
-2.918684215e-06
-3.895102452e-06
-5.168063065e-06
-6.805192351e-06
-8.868348296e-06
-1.143393363e-05
-1.457813388e-05
-1.836217823e-05
-2.282414877e-05
-2.797368273e-05
-3.378302243e-05
-4.019332933e-05
-4.71092639e-05
-5.441316175e-05
-6.198171558e-05
-6.962976614e-05
-7.724923104e-05
-8.469853019e-05
-9.185931328e-05
-9.864351909e-05
-0.0001049908486
-0.0001108839241
-0.0001163347038
-0.0001213427267
-0.0001258550165
-0.0001298004067
-0.0001331093184
-0.0001357612584
-0.0001378178729
-0.0001393955026
-0.0001406129618
-0.0001415531727
-0.0001422404348
-0.0001426688317
-0.0001428426572
-0.0001427715364
-0.0001424796381
-0.0001419683169
-0.0001412687015
-0.0001403944782
-0.0001393317404
-0.0001381083086
-0.0001367637303
-0.0001353154996
-0.0001337255477
-0.000132060851
-0.0001303105819
-0.000128408381
-0.0001263908983
-0.0001242077986
-0.0001219671829
-0.0001196593468
-0.0001173156962
-0.0001149609829
-0.0001125087652
-0.0001099356051
-0.0001072128912
-0.0001043606356
-0.000101536311
-9.859623012e-05
-9.554530798e-05
-9.22630397e-05
-8.878233145e-05
-8.520624844e-05
-8.138622866e-05
-7.710686055e-05
-7.228212482e-05
-6.720253373e-05
-6.18364697e-05
-5.59456384e-05
-4.98625683e-05
-4.363618143e-05
-3.619470448e-05
-2.871557234e-05
-2.034009043e-05
-1.208039124e-05
-3.276699397e-06
5.930167971e-06
1.605394735e-05
-5.539268502e-05
-0.0001295682715
-0.0001994078961
-0.0002669869523
)


101
(
-1.859215931e-15
-9.042247422e-11
-8.310531126e-10
-3.302750875e-09
-8.730115843e-09
-1.834681917e-08
-3.346677617e-08
-5.663690051e-08
-9.047056947e-08
-1.384538987e-07
-2.051718115e-07
-2.96766695e-07
-4.204621955e-07
-5.869715923e-07
-8.108007347e-07
-1.109365082e-06
-1.504670249e-06
-2.027225273e-06
-2.714750877e-06
-3.60867715e-06
-4.770266026e-06
-6.262994344e-06
-8.145863315e-06
-1.049024303e-05
-1.33690604e-05
-1.684540536e-05
-2.096515634e-05
-2.575141092e-05
-3.119517966e-05
-3.725948809e-05
-4.387111706e-05
-5.093138392e-05
-5.833177343e-05
-6.589974927e-05
-7.35369839e-05
-8.110742908e-05
-8.849165015e-05
-9.559123493e-05
-0.0001023257633
-0.0001086539831
-0.0001145785759
-0.0001201117242
-0.0001252273684
-0.0001298764976
-0.0001339890472
-0.0001375083801
-0.0001404468036
-0.0001428874155
-0.0001449371109
-0.0001467054064
-0.0001482627629
-0.0001496123312
-0.0001507408113
-0.0001516706002
-0.000152411892
-0.0001529708218
-0.000153388572
-0.0001536839116
-0.0001538399902
-0.0001538700907
-0.0001538107157
-0.0001537114958
-0.0001535548741
-0.0001533753531
-0.0001531350259
-0.0001528795924
-0.0001525445979
-0.0001521224257
-0.0001516496755
-0.000151136331
-0.0001506674274
-0.0001502221068
-0.0001497914879
-0.0001493447703
-0.0001488120685
-0.0001481444385
-0.0001474080102
-0.0001467728673
-0.0001460910695
-0.0001452124377
-0.0001442261199
-0.0001431051812
-0.0001417301083
-0.0001401365695
-0.0001380071432
-0.0001355088779
-0.0001327271675
-0.0001294986939
-0.0001257807647
-0.0001219808156
-0.0001171598715
-0.0001120322284
-0.0001062181012
-0.0001000402862
-9.376338769e-05
-8.677574225e-05
-7.919306119e-05
-0.0001520439491
-0.0002234896115
-0.0002778587837
-0.0003236233117
)


101
(
-1.859215931e-15
-8.50546186e-11
-8.012291167e-10
-3.202575219e-09
-8.477133235e-09
-1.781333023e-08
-3.246131915e-08
-5.480950595e-08
-8.734012776e-08
-1.333011877e-07
-1.969434998e-07
-2.839371512e-07
-4.009605373e-07
-5.576185459e-07
-7.670698363e-07
-1.045172987e-06
-1.411732243e-06
-1.893757611e-06
-2.525512491e-06
-3.343666665e-06
-4.403055148e-06
-5.762365481e-06
-7.477430814e-06
-9.614948038e-06
-1.224410248e-05
-1.54279883e-05
-1.921715174e-05
-2.364465081e-05
-2.871694948e-05
-3.441674397e-05
-4.069240992e-05
-4.74651762e-05
-5.464282822e-05
-6.206598487e-05
-6.964659267e-05
-7.725746609e-05
-8.47826865e-05
-9.211937199e-05
-9.917291116e-05
-0.0001058807776
-0.0001122271117
-0.0001182261537
-0.0001238661721
-0.0001291239908
-0.0001339464816
-0.0001382651327
-0.0001420529774
-0.0001453443764
-0.0001482225802
-0.0001508031657
-0.0001531877896
-0.0001554121189
-0.0001574629941
-0.0001593601987
-0.0001611053397
-0.0001626984547
-0.0001641960038
-0.0001656133761
-0.000166956787
-0.0001682177053
-0.0001694384448
-0.0001706518612
-0.0001719020392
-0.0001731667467
-0.0001744180912
-0.0001757647463
-0.0001770838902
-0.0001783927911
-0.0001796768305
-0.0001810031235
-0.0001824087877
-0.000183843982
-0.000185393302
-0.0001869870539
-0.0001885741201
-0.0001901291919
-0.0001915946696
-0.0001931384596
-0.0001946780109
-0.0001961958243
-0.00019766679
-0.0001988823758
-0.0001999710705
-0.0002008872222
-0.0002013137228
-0.0002013773632
-0.000201089005
-0.0002004652265
-0.0001992113342
-0.0001977774203
-0.0001957504511
-0.0001929295033
-0.000189796122
-0.0001860419859
-0.0001822242068
-0.0001778127249
-0.0001731603228
-0.0002367331922
-0.0002945916272
-0.0003269733893
-0.0003521370701
)


101
(
-1.859217316e-15
-7.980056797e-11
-7.719498214e-10
-3.104155228e-09
-8.228740951e-09
-1.729042924e-08
-3.147857069e-08
-5.303127182e-08
-8.430377552e-08
-1.283226361e-07
-1.89026263e-07
-2.716428786e-07
-3.823509519e-07
-5.297662344e-07
-7.257961111e-07
-9.848563962e-07
-1.324764409e-06
-1.76945347e-06
-2.349913239e-06
-3.098589814e-06
-4.064376684e-06
-5.300869447e-06
-6.860309567e-06
-8.805022318e-06
-1.120014416e-05
-1.410750988e-05
-1.758006668e-05
-2.165757791e-05
-2.635839823e-05
-3.168182116e-05
-3.759646879e-05