/*--------------------------------*- C++ -*----------------------------------*\
| =========                 |                                                 |
| \\      /  F ield         | OpenFOAM: The Open Source CFD Toolbox           |
|  \\    /   O peration     | Version:  2.3.1                                 |
|   \\  /    A nd           | Web:      www.OpenFOAM.org                      |
|    \\/     M anipulation  |                                                 |
\*---------------------------------------------------------------------------*/
FoamFile
{
    version     2.0;
    format      ascii;
    class       dictionary;
    location    "constant";
    object      GRPSI21;
}
// * * * * * * * * * * * * * * * * * * * * * * * * * * * * * * * * * * * * * //

GRPSI21_table
101
(

101
(
2.127547003e-08
4.32408787e-08
8.189099691e-08
1.114633111e-07
1.356741778e-07
1.575727254e-07
1.798203804e-07
2.038204954e-07
2.299174014e-07
2.58802731e-07
2.91271619e-07
3.269834123e-07
3.644490257e-07
3.982246808e-07
4.188353074e-07
4.173195335e-07
3.839084803e-07
3.204513259e-07
2.24863373e-07
1.104164871e-07
-1.313503841e-09
-1.108777572e-07
-2.049268938e-07
-2.716970211e-07
-3.143362327e-07
-3.360408253e-07
-3.403406377e-07
-3.313367903e-07
-3.13270033e-07
-2.897826183e-07
-2.639597948e-07
-2.392094764e-07
-2.120492566e-07
-1.855486511e-07
-1.637961708e-07
-1.344414107e-07
-1.014910511e-07
-9.777288234e-08
-1.008125015e-07
-8.688294404e-08
-7.590646562e-08
-6.639350587e-08
-5.752541615e-08
-5.032472126e-08
-4.391772007e-08
-3.819013492e-08
-3.32091533e-08
-2.8807968e-08
-2.501702147e-08
-2.168537066e-08
-1.883299998e-08
-1.629649573e-08
-1.408337467e-08
-1.218117699e-08
-1.0545855e-08
-9.017727949e-09
-7.724789615e-09
-6.633556258e-09
-5.641589505e-09
-4.807723189e-09
-4.065620845e-09
-3.441364586e-09
-2.891870465e-09
-2.412486307e-09
-2.013772073e-09
-1.672972852e-09
-1.376621784e-09
-1.12139243e-09
-9.087349808e-10
-7.31869925e-10
-5.830456006e-10
-4.595865155e-10
-3.582736281e-10
-2.59889859e-10
-1.87881316e-10
-1.614105075e-10
-1.321464106e-10
-9.662940926e-11
-7.054042947e-11
-5.073171593e-11
-3.507196092e-11
-2.370928879e-11
-1.474777329e-11
-9.112335905e-12
-7.149781865e-12
-5.034162664e-12
-3.087060932e-12
-1.839667037e-12
-9.590819245e-13
-5.431647642e-13
-4.080156847e-13
-2.120943965e-13
-9.713446266e-14
-4.545605673e-14
-2.083645913e-14
-8.723479043e-15
-2.022660943e-15
7.994055286e-22
-6.192647426e-32
-6.505509298e-32
1.238529481e-31
)


101
(
2.086141963e-08
4.245303379e-08
8.046580405e-08
1.095354172e-07
1.332347419e-07
1.545652085e-07
1.760871788e-07
1.992078619e-07
2.242782766e-07
2.519476707e-07
2.829904379e-07
3.172876389e-07
3.53668285e-07
3.875328256e-07
4.102929004e-07
4.133351871e-07
3.87468086e-07
3.321503847e-07
2.462175124e-07
1.392179506e-07
2.932168127e-08
-7.865684159e-08
-1.741205666e-07
-2.467294199e-07
-2.960447986e-07
-3.243078463e-07
-3.346277732e-07
-3.306257945e-07
-3.163309385e-07
-2.955084494e-07
-2.71361325e-07
-2.472255911e-07
-2.215536973e-07
-1.957113613e-07
-1.729173068e-07
-1.46292592e-07
-1.155445561e-07
-1.007606975e-07
-9.886654964e-08
-9.14894258e-08
-8.138393708e-08
-7.15702296e-08
-6.236389864e-08
-5.440687498e-08
-4.75024733e-08
-4.142256294e-08
-3.611940068e-08
-3.145975917e-08
-2.739212158e-08
-2.382637417e-08
-2.072631457e-08
-1.800966737e-08
-1.563785079e-08
-1.357181341e-08
-1.176438282e-08
-1.014274399e-08
-8.718650561e-09
-7.494783819e-09
-6.422288071e-09
-5.494005758e-09
-4.684443468e-09
-3.985396569e-09
-3.380326775e-09
-2.851446142e-09
-2.392288861e-09
-1.999631668e-09
-1.664970742e-09
-1.377548633e-09
-1.131602632e-09
-9.223489604e-10
-7.464481396e-10
-5.99987818e-10
-4.794473255e-10
-3.72917888e-10
-2.80876233e-10
-2.173760977e-10
-1.728889539e-10
-1.34507159e-10
-1.020418296e-10
-7.579643196e-11
-5.504815491e-11
-3.920630015e-11
-2.704339963e-11
-1.798678036e-11
-1.207284345e-11
-8.24596051e-12
-5.557746763e-12
-3.622426192e-12
-2.236683857e-12
-1.33756884e-12
-8.027461703e-13
-4.786366382e-13
-2.776361028e-13
-1.483962377e-13
-7.699404147e-14
-4.252894032e-14
-1.343361246e-14
5.296490354e-15
1.423452361e-14
3.386122486e-14
4.665181878e-14
)


101
(
2.045090554e-08
4.16718493e-08
7.905393045e-08
1.076298599e-07
1.308313562e-07
1.516118245e-07
1.724352094e-07
1.947083531e-07
2.18789332e-07
2.452824202e-07
2.74931334e-07
3.077937141e-07
3.429825611e-07
3.766597733e-07
4.011208453e-07
4.081557453e-07
3.891179835e-07
3.417794559e-07
2.65075913e-07
1.660292771e-07
5.962626415e-08
-4.652276045e-08
-1.427348046e-07
-2.197757253e-07
-2.750978487e-07
-3.096763282e-07
-3.260128255e-07
-3.272691857e-07
-3.171704343e-07
-2.994229268e-07
-2.772885888e-07
-2.541327114e-07
-2.296993844e-07
-2.049840687e-07
-1.82279013e-07
-1.572910961e-07
-1.290806815e-07
-1.090255681e-07
-1.005013407e-07
-9.400049128e-08
-8.575557506e-08
-7.652299787e-08
-6.725843051e-08
-5.885983185e-08
-5.145302008e-08
-4.495446355e-08
-3.931538778e-08
-3.439004065e-08
-3.007633868e-08
-2.628638468e-08
-2.296383826e-08
-2.004312166e-08
-1.748507259e-08
-1.525661148e-08
-1.330690024e-08
-1.157500522e-08
-1.003827043e-08
-8.688171002e-09
-7.507178227e-09
-6.477449037e-09
-5.577666072e-09
-4.797150358e-09
-4.115521187e-09
-3.516194788e-09
-2.992194523e-09
-2.539731995e-09
-2.150066624e-09
-1.811270621e-09
-1.518975729e-09
-1.266656715e-09
-1.049488435e-09
-8.634108452e-10
-7.066341989e-10
-5.746657621e-10
-4.591615339e-10
-3.627302615e-10
-2.861889737e-10
-2.250806644e-10
-1.759263199e-10
-1.35994817e-10
-1.035345113e-10
-7.766367716e-11
-5.730233978e-11
-4.145130448e-11
-2.933763766e-11
-2.024802505e-11
-1.380732775e-11
-9.536926574e-12
-6.453415629e-12
-4.231115915e-12
-2.739453239e-12
-1.697348488e-12
-1.042357973e-12
-6.488234994e-13
-3.917882035e-13
-2.679178679e-13
-7.250032677e-14
1.166617418e-13
2.479018552e-13
4.645628255e-13
5.831249269e-13
)


101
(
2.004393168e-08
4.089732744e-08
7.765543843e-08
1.057469978e-07
1.284651906e-07
1.487155407e-07
1.688706362e-07
1.903341301e-07
2.13472737e-07
2.388463015e-07
2.671616214e-07
2.986150689e-07
3.325728243e-07
3.658805852e-07
3.917005074e-07
4.022767062e-07
3.894824444e-07
3.499279018e-07
2.821943988e-07
1.914522767e-07
8.98901095e-08
-1.378433791e-08
-1.1009247e-07
-1.904755922e-07
-2.511121565e-07
-2.91745391e-07
-3.141344244e-07
-3.209248328e-07
-3.154836171e-07
-3.01346953e-07
-2.817196644e-07
-2.59999417e-07
-2.367390868e-07
-2.13208369e-07
-1.916407671e-07
-1.678155251e-07
-1.414579667e-07
-1.197711086e-07
-1.060219403e-07
-9.736608189e-08
-8.974062166e-08
-8.135084807e-08
-7.245505504e-08
-6.395353361e-08
-5.616007897e-08
-4.922693581e-08
-4.320381115e-08
-3.797590965e-08
-3.341487612e-08
-2.940264365e-08
-2.586811652e-08
-2.273117382e-08
-1.996719234e-08
-1.754834739e-08
-1.542258248e-08
-1.354817764e-08
-1.188948779e-08
-1.040517463e-08
-9.092876007e-09
-7.937758472e-09
-6.916385776e-09
-6.024137922e-09
-5.240037573e-09
-4.547448431e-09
-3.938227067e-09
-3.403054469e-09
-2.934770327e-09
-2.52005284e-09
-2.154740824e-09
-1.838585318e-09
-1.562585756e-09
-1.319187159e-09
-1.107186587e-09
-9.2680816e-10
-7.699143505e-10
-6.328879188e-10
-5.153000448e-10
-4.158311555e-10
-3.328890867e-10
-2.645285071e-10
-2.088917095e-10
-1.635091667e-10
-1.263319835e-10
-9.637525783e-11
-7.231937797e-11
-5.31028593e-11
-3.782764623e-11
-2.668435286e-11
-1.910187661e-11
-1.341113689e-11
-9.076111545e-12
-5.918477613e-12
-3.860444353e-12
-2.560775655e-12
-1.693130982e-12
-1.290198098e-12
-2.214121559e-13
9.713299262e-13
1.904634295e-12
3.728024638e-12
4.848130248e-12
)


101
(
1.964050257e-08
4.012946748e-08
7.627036867e-08
1.038871027e-07
1.261371425e-07
1.458786221e-07
1.653980381e-07
1.860940277e-07
2.083441423e-07
2.326665975e-07
2.597275197e-07
2.89830056e-07
3.225647109e-07
3.553877204e-07
3.822993624e-07
3.960403499e-07
3.889862256e-07
3.569798992e-07
2.980290915e-07
2.158317993e-07
1.20182504e-07
1.98183055e-08
-7.586685961e-08
-1.586653412e-07
-2.239279501e-07
-2.703161285e-07
-2.987700509e-07
-3.113465643e-07
-3.110091236e-07
-3.010697186e-07
-2.845534177e-07
-2.648359843e-07
-2.429103077e-07
-2.204657861e-07
-1.995877565e-07
-1.777655016e-07
-1.538980289e-07
-1.315453353e-07
-1.145210051e-07
-1.030023273e-07
-9.449010442e-08
-8.642722743e-08
-7.800595309e-08
-6.969390612e-08
-6.174160296e-08
-5.445231584e-08
-4.803016811e-08
-4.244777057e-08
-3.759296324e-08
-3.333180465e-08
-2.957917524e-08
-2.622062463e-08
-2.322480468e-08
-2.05818519e-08
-1.826284931e-08
-1.620092814e-08
-1.437267711e-08
-1.273852068e-08
-1.127904871e-08
-9.980180176e-09
-8.806355162e-09
-7.768952351e-09
-6.848792046e-09
-6.029696887e-09
-5.311966492e-09
-4.675917051e-09
-4.103363368e-09
-3.587509186e-09
-3.125168865e-09
-2.722470666e-09
-2.367962107e-09
-2.046653295e-09
-1.758447683e-09
-1.50569091e-09
-1.28493712e-09
-1.090753304e-09
-9.174070119e-10
-7.634348317e-10
-6.303386519e-10
-5.154626413e-10
-4.191107753e-10
-3.389641245e-10
-2.713109091e-10
-2.152067222e-10
-1.687172285e-10
-1.302232092e-10
-9.811609762e-11
-7.179613643e-11
-5.253315484e-11
-3.884601042e-11
-2.80449679e-11
-1.952050379e-11
-1.315110288e-11
-8.800527464e-12
-6.187060824e-12
-4.937390519e-12
-1.792250728e-13
5.312135303e-12
9.766351764e-12
1.535808377e-11
1.75555319e-11
)


101
(
1.924062216e-08
3.936826598e-08
7.489874221e-08
1.02050366e-07
1.23847866e-07
1.431027208e-07
1.620206774e-07
1.819942036e-07
2.034140794e-07
2.267613356e-07
2.526595907e-07
2.81491179e-07
3.130441023e-07
3.453158796e-07
3.73106499e-07
3.896876325e-07
3.87925175e-07
3.631910701e-07
3.128536334e-07
2.393579127e-07
1.504627918e-07
5.43042507e-08
-3.99559793e-08
-1.243038972e-07
-1.934936886e-07
-2.452693153e-07
-2.797419907e-07
-2.983090046e-07
-3.034743614e-07
-2.98245739e-07
-2.855149257e-07
-2.685081665e-07
-2.482839981e-07
-2.270830081e-07
-2.071529561e-07
-1.869157148e-07
-1.653435171e-07
-1.437204732e-07
-1.249906615e-07
-1.109118649e-07
-1.007580912e-07
-9.227877759e-08
-8.407279977e-08
-7.605464087e-08
-6.816956068e-08
-6.067590786e-08
-5.387340236e-08
-4.787457403e-08
-4.267332535e-08
-3.814190419e-08
-3.416650718e-08
-3.058945018e-08
-2.735092773e-08
-2.444714045e-08
-2.18922122e-08
-1.962198315e-08
-1.759984776e-08
-1.577514862e-08
-1.413889855e-08
-1.268754746e-08
-1.134306515e-08
-1.013205888e-08
-9.049577825e-09
-8.066335266e-09
-7.202484587e-09
-6.44228827e-09
-5.752989822e-09
-5.122458394e-09
-4.534581974e-09
-4.011417859e-09
-3.557326973e-09
-3.142660753e-09
-2.761085052e-09
-2.413622115e-09
-2.103163863e-09
-1.825364907e-09
-1.575927878e-09
-1.352861732e-09
-1.151153376e-09
-9.679970502e-10
-8.06844223e-10
-6.705893158e-10
-5.544330829e-10
-4.537292446e-10
-3.682785547e-10
-2.960444819e-10
-2.341007318e-10
-1.798137088e-10
-1.356019788e-10
-1.029765306e-10
-7.791125166e-11
-5.68402388e-11
-4.074663926e-11
-2.844125304e-11
-2.034052992e-11
-1.679393489e-11
4.799517146e-13
2.147022615e-11
4.708974097e-11
8.029312278e-11
9.251023254e-11
)


101
(
1.884429508e-08
3.861371778e-08
7.354056259e-08
1.002369071e-07
1.215977989e-07
1.403889525e-07
1.587406639e-07
1.780385283e-07
1.986887972e-07
2.211409278e-07
2.459757001e-07
2.736304327e-07
3.040657927e-07
3.357553534e-07
3.642521869e-07
3.833851237e-07
3.865029105e-07
3.687284889e-07
3.268210618e-07
2.621141897e-07
1.806239767e-07
8.954956758e-08
-2.413350169e-09
-8.744110166e-08
-1.598262035e-07
-2.165319107e-07
-2.568851781e-07
-2.815794054e-07
-2.925900103e-07
-2.925662336e-07
-2.842053415e-07
-2.705914867e-07
-2.526479028e-07
-2.329876398e-07
-2.142257112e-07
-1.954059199e-07
-1.758755414e-07
-1.556678197e-07
-1.36534439e-07
-1.206890659e-07
-1.087822976e-07
-9.933570959e-08
-9.090306567e-08
-8.306083804e-08
-7.53565465e-08
-6.783114064e-08
-6.07438183e-08
-5.431606857e-08
-4.87136857e-08
-4.385614222e-08
-3.96332814e-08
-3.585039769e-08
-3.238436148e-08
-2.920576543e-08
-2.637749386e-08
-2.387407188e-08
-2.16398598e-08
-1.961290241e-08
-1.777854267e-08
-1.613377321e-08
-1.459857009e-08
-1.320140517e-08
-1.19427731e-08
-1.077954553e-08
-9.731754776e-09
-8.813355439e-09
-7.98823573e-09
-7.229114658e-09
-6.511318653e-09
-5.843436313e-09
-5.247578295e-09
-4.713285981e-09
-4.223790852e-09
-3.769189735e-09
-3.349015965e-09
-2.960090979e-09
-2.608517246e-09
-2.295872034e-09
-2.006600376e-09
-1.734930583e-09
-1.482857097e-09
-1.262507032e-09
-1.073358583e-09
-9.030217743e-10
-7.546501059e-10
-6.278457426e-10
-5.165342246e-10
-4.147975301e-10
-3.245134407e-10
-2.545088957e-10
-2.008856479e-10
-1.527402703e-10
-1.13606202e-10
-8.324161781e-11
-6.307981433e-11
-5.381576129e-11
1.30533e-11
9.47724296e-11
1.983198024e-10
3.115426671e-10
3.394116378e-10
)


101
(
1.84515263e-08
3.786581466e-08
7.219581469e-08
9.844678523e-08
1.193872246e-07
1.377380727e-07
1.555593087e-07
1.742290024e-07
1.941710053e-07
2.15809926e-07
2.396840368e-07
2.662645441e-07
2.956615275e-07
3.267640557e-07
3.558251903e-07
3.772466322e-07
3.848581822e-07
3.737008726e-07
3.400091352e-07
2.841152318e-07
2.105231273e-07
1.253414146e-07
3.658171027e-08
-4.822230696e-08
-1.23019423e-07
-1.840928074e-07
-2.300558049e-07
-2.608996688e-07
-2.780126299e-07
-2.836200961e-07
-2.801646741e-07
-2.705893963e-07
-2.555768095e-07
-2.379107533e-07
-2.205852037e-07
-2.031597873e-07
-1.854855843e-07
-1.669887209e-07
-1.483928314e-07
-1.317261737e-07
-1.18419875e-07
-1.077795612e-07
-9.870433281e-08
-9.077439798e-08
-8.320800531e-08
-7.577194674e-08
-6.856773467e-08
-6.179266981e-08
-5.576114577e-08
-5.051545338e-08
-4.600525623e-08
-4.19992077e-08
-3.830994268e-08
-3.488543727e-08
-3.178188231e-08
-2.899741382e-08
-2.65271013e-08
-2.429667819e-08
-2.226537094e-08
-2.043216411e-08
-1.869458423e-08
-1.708938139e-08
-1.562528787e-08
-1.426247195e-08
-1.301432488e-08
-1.190958582e-08
-1.091915426e-08
-1.001194254e-08
-9.159379871e-09
-8.338985119e-09
-7.586441831e-09
-6.908272787e-09
-6.287450254e-09
-5.709792663e-09
-5.166826145e-09
-4.64840225e-09
-4.164289211e-09
-3.731542119e-09
-3.335829528e-09
-2.964011531e-09
-2.603612832e-09
-2.265448135e-09
-1.971330055e-09
-1.704633058e-09
-1.460442663e-09
-1.249920984e-09
-1.064440213e-09
-8.884497771e-10
-7.234573829e-10
-5.854457238e-10
-4.786633969e-10
-3.824054632e-10
-2.945434959e-10
-2.262142688e-10
-1.785703708e-10
-1.562689919e-10
7.092971088e-11
3.562939926e-10
7.288174787e-10
1.126773992e-09
1.216134756e-09
)


101
(
1.806232103e-08
3.712454774e-08
7.086446991e-08
9.668000437e-08
1.172162855e-07
1.351505532e-07
1.524773638e-07
1.705661533e-07
1.898606007e-07
2.107683145e-07
2.337857488e-07
2.59399159e-07
2.878464565e-07
3.183762273e-07
3.478842372e-07
3.713502516e-07
3.830860057e-07
3.781779977e-07
3.52449029e-07
3.053335361e-07
2.400025145e-07
1.614252661e-07
7.6777049e-08
-6.848798313e-09
-8.320714848e-08
-1.479788786e-07
-1.991340118e-07
-2.360062596e-07
-2.593678125e-07
-2.709503363e-07
-2.728690034e-07
-2.679123183e-07
-2.564919382e-07
-2.414024503e-07
-2.259182366e-07
-2.100233673e-07
-1.941071803e-07
-1.774030874e-07
-1.599467012e-07
-1.433218696e-07
-1.291877588e-07
-1.174734125e-07
-1.075776793e-07
-9.929533514e-08
-9.170445791e-08
-8.436064518e-08
-7.716269825e-08
-7.016358365e-08
-6.375557751e-08
-5.813573662e-08
-5.32994165e-08
-4.901662249e-08
-4.513195126e-08
-4.149663267e-08
-3.810244406e-08
-3.503422311e-08
-3.232498984e-08
-2.986355481e-08
-2.761786205e-08
-2.559933243e-08
-2.36728462e-08
-2.188513027e-08
-2.022085936e-08
-1.863334981e-08
-1.715395953e-08
-1.582108357e-08
-1.46466356e-08
-1.359298018e-08
-1.262214122e-08
-1.166365375e-08
-1.073982215e-08
-9.876919179e-09
-9.082479884e-09
-8.379155766e-09
-7.717806857e-09
-7.06365352e-09
-6.431570174e-09
-5.851716896e-09
-5.327887885e-09
-4.835236572e-09
-4.351023223e-09
-3.871162796e-09
-3.439003281e-09
-3.048592954e-09
-2.68250559e-09
-2.348273915e-09
-2.052773789e-09
-1.776315839e-09
-1.498284337e-09
-1.257289504e-09
-1.062857069e-09
-8.774790206e-10
-7.002230279e-10
-5.627988822e-10
-4.599710812e-10
-4.205703787e-10
2.654052593e-10
1.148659985e-09
2.275443343e-09
3.636535093e-09
4.066294628e-09
)


101
(
1.767668436e-08
3.638990535e-08
6.954648673e-08
9.493651487e-08
1.150849621e-07
1.326265058e-07
1.494949467e-07
1.670492861e-07
1.857552024e-07
2.06012267e-07
2.2827607e-07
2.530308534e-07
2.806224781e-07
3.106078117e-07
3.40465533e-07
3.657486877e-07
3.812526104e-07
3.822066852e-07
3.641468729e-07
3.257188968e-07
2.689055409e-07
1.975363015e-07
1.178796559e-07
3.644223215e-08
-4.053713066e-08
-1.082352042e-07
-1.640438236e-07
-2.06686918e-07
-2.36319142e-07
-2.541279545e-07
-2.618204981e-07
-2.619786792e-07
-2.547507242e-07
-2.428932404e-07
-2.29779104e-07
-2.156425389e-07
-2.014542759e-07
-1.865507306e-07
-1.706112447e-07
-1.547789898e-07
-1.40562306e-07
-1.281378673e-07
-1.174042083e-07
-1.085806053e-07
-1.007721931e-07
-9.344830596e-08
-8.631292171e-08
-7.92407253e-08
-7.259753126e-08
-6.662755386e-08
-6.141371342e-08
-5.682072209e-08
-5.273675482e-08
-4.893512718e-08
-4.534847548e-08
-4.20073425e-08
-3.905092012e-08
-3.636210342e-08
-3.38603775e-08
-3.166220619e-08
-2.956454912e-08
-2.760229094e-08
-2.576773135e-08
-2.398331049e-08
-2.229086954e-08
-2.071660956e-08
-1.932319118e-08
-1.809956526e-08
-1.698376438e-08
-1.589340084e-08
-1.482116545e-08
-1.3802545e-08
-1.283778355e-08
-1.196146073e-08
-1.115800796e-08
-1.038491113e-08
-9.615509834e-09
-8.858802548e-09
-8.182269209e-09
-7.575992407e-09
-6.953237829e-09
-6.309889867e-09
-5.707007319e-09
-5.169476345e-09
-4.674291981e-09
-4.168678115e-09
-3.720851989e-09
-3.318453201e-09
-2.890288577e-09
-2.505220446e-09
-2.176048754e-09
-1.852674661e-09
-1.537556848e-09
-1.283713838e-09
-1.091956199e-09
-1.014369987e-09
8.386834656e-10
3.218148134e-09
6.048062319e-09
9.994080301e-09
1.163194936e-08
)


101
(
1.729462336e-08
3.566187695e-08
6.824181959e-08
9.321624331e-08
1.129931304e-07
1.301657213e-07
1.466115068e-07
1.636769344e-07
1.818513832e-07
2.015353851e-07
2.231453326e-07
2.471485965e-07
2.739806683e-07
3.034600665e-07
3.335876249e-07
3.604751814e-07
3.794028409e-07
3.858174623e-07
3.750923024e-07
3.45204474e-07
2.970798827e-07
2.334399516e-07
1.595992573e-07
8.137764958e-08
4.809176204e-09
-6.494004138e-08
-1.247486621e-07
-1.7276987e-07
-2.08549545e-07
-2.327133483e-07
-2.465146461e-07
-2.522425593e-07
-2.497153054e-07
-2.416822814e-07
-2.315332183e-07
-2.195180325e-07
-2.071410952e-07
-1.9408154e-07
-1.799104789e-07
-1.654096775e-07
-1.51815378e-07
-1.392126735e-07
-1.278387454e-07
-1.184289322e-07
-1.102420346e-07
-1.028371922e-07
-9.581592608e-08
-8.882624846e-08
-8.208468492e-08
-7.582497431e-08
-7.023995226e-08
-6.530254345e-08
-6.099274557e-08
-5.71123228e-08
-5.341566737e-08
-4.980700347e-08
-4.661416241e-08
-4.371907035e-08
-4.097906975e-08
-3.860445894e-08
-3.638281714e-08
-3.426671622e-08
-3.227992651e-08
-3.036938421e-08
-2.853021701e-08
-2.671146563e-08
-2.504750447e-08
-2.361031231e-08
-2.234256322e-08
-2.116158576e-08
-1.998696637e-08
-1.881987484e-08
-1.767372122e-08
-1.662447127e-08
-1.569055223e-08
-1.481451163e-08
-1.390782086e-08
-1.298762497e-08
-1.214902816e-08
-1.140940788e-08
-1.065347694e-08
-9.851582703e-09
-9.058755704e-09
-8.344430067e-09
-7.729882564e-09
-7.047388458e-09
-6.386401852e-09
-5.819846152e-09
-5.202547275e-09
-4.639118581e-09
-4.143423885e-09
-3.615927232e-09
-3.098822441e-09
-2.665372685e-09
-2.352786939e-09
-2.255824396e-09
2.285660191e-09
8.083635029e-09
1.409229829e-08
2.104737597e-08
2.322255127e-08
)


101
(
1.691614421e-08
3.494044916e-08
6.695040825e-08
9.151906773e-08
1.109405411e-07
1.277677156e-07
1.438259886e-07
1.604468345e-07
1.781446355e-07
1.97329222e-07
2.183804078e-07
2.417360696e-07
2.67904335e-07
2.969238472e-07
3.272569815e-07
3.555502573e-07
3.775679654e-07
3.890340566e-07
3.852751254e-07
3.637237048e-07
3.243775287e-07
2.689104645e-07
2.016388124e-07
1.276505148e-07
5.260123009e-08
-1.823336745e-08
-8.127814846e-08
-1.341330554e-07
-1.757694114e-07
-2.062624909e-07
-2.263894253e-07
-2.380765373e-07
-2.406960821e-07
-2.370072384e-07
-2.304292657e-07
-2.210366517e-07
-2.107213536e-07
-1.995893664e-07
-1.873200271e-07
-1.745023882e-07
-1.621200278e-07
-1.499612262e-07
-1.383340343e-07
-1.284496153e-07
-1.198370179e-07
-1.122798557e-07
-1.053905287e-07
-9.858989939e-08
-9.188991138e-08
-8.547338456e-08
-7.960570801e-08
-7.432804423e-08
-6.977153356e-08
-6.581893726e-08
-6.200436068e-08
-5.824361479e-08
-5.493482903e-08
-5.188449942e-08
-4.892617012e-08
-4.633140205e-08
-4.401376074e-08
-4.182282276e-08
-3.975660298e-08
-3.774253579e-08
-3.579078361e-08
-3.385936774e-08
-3.196012369e-08
-3.024557995e-08
-2.87999356e-08
-2.751452533e-08
-2.627936338e-08
-2.503968897e-08
-2.376828043e-08
-2.256188227e-08
-2.148980403e-08
-2.050573255e-08
-1.947713744e-08
-1.845789369e-08
-1.749191495e-08
-1.658557128e-08
-1.571359678e-08
-1.478084735e-08
-1.379301459e-08
-1.290139556e-08
-1.218711478e-08
-1.135497527e-08
-1.042809003e-08
-9.631264076e-09
-8.845920401e-09
-8.096080036e-09
-7.360981356e-09
-6.579756068e-09
-5.808286612e-09
-5.107772872e-09
-4.611455999e-09
-4.491952533e-09
5.366893323e-09
1.797356903e-08
2.98336848e-08
4.395335022e-08
4.889859373e-08
)


101
(
1.654125412e-08
3.422560906e-08
6.567218417e-08
8.984482596e-08
1.08926828e-07
1.2543173e-07
1.411368806e-07
1.573562373e-07
1.746296377e-07
1.933835756e-07
2.13965679e-07
2.367734354e-07
2.623713847e-07
2.909823038e-07
3.214708946e-07
3.509871176e-07
3.757735997e-07
3.918794893e-07
3.94690701e-07
3.81210688e-07
3.506424533e-07
3.036965939e-07
2.436591368e-07
1.748566775e-07
1.024611396e-07
3.16531152e-08
-3.367749564e-08
-9.064330813e-08
-1.376757288e-07
-1.743116652e-07
-2.008248281e-07
-2.187340093e-07
-2.269013403e-07
-2.280548667e-07
-2.256368548e-07
-2.194522341e-07
-2.116138381e-07
-2.025955287e-07
-1.922720332e-07
-1.813120736e-07
-1.706116094e-07
-1.595297647e-07
-1.481975883e-07
-1.381487395e-07
-1.291959021e-07
-1.214138074e-07
-1.145849276e-07
-1.080410331e-07
-1.015486311e-07
-9.516159555e-08
-8.916310422e-08
-8.360856998e-08
-7.879842192e-08
-7.472320906e-08
-7.08839863e-08
-6.708855649e-08
-6.375520849e-08
-6.064751208e-08
-5.75204613e-08
-5.47311535e-08
-5.230611479e-08
-5.008142411e-08
-4.800757307e-08
-4.601710898e-08
-4.399238165e-08
-4.198617666e-08
-4.000479849e-08
-3.805802391e-08
-3.641554714e-08
-3.50132173e-08
-3.370593775e-08
-3.248954277e-08
-3.121601885e-08
-2.990828862e-08
-2.868603903e-08
-2.759282393e-08
-2.65207002e-08
-2.542810997e-08
-2.43806811e-08
-2.340777709e-08
-2.244301944e-08
-2.139784232e-08
-2.027983975e-08
-1.91990096e-08
-1.835566949e-08
-1.749275912e-08
-1.635986515e-08
-1.525986743e-08
-1.4283517e-08
-1.336846887e-08
-1.23492769e-08
-1.124238143e-08
-1.019677188e-08
-9.163544367e-09
-8.391960658e-09
-8.216623051e-09
1.158689542e-08
3.674187574e-08
5.767956653e-08
8.075588912e-08
8.815722109e-08
)


101
(
1.616996136e-08
3.351734334e-08
6.440706863e-08
8.819331895e-08
1.069515232e-07
1.231567187e-07
1.38542164e-07
1.544022787e-07
1.713011439e-07
1.896866018e-07
2.098830613e-07
2.322382394e-07
2.573547234e-07
2.856111249e-07
3.162187862e-07
3.467957515e-07
3.740502449e-07
3.943864035e-07
4.033444457e-07
3.976021901e-07
3.757060804e-07
3.375226658e-07
2.853155684e-07
2.226155926e-07
1.540085711e-07
8.442264056e-08
1.791491517e-08
-4.224825582e-08
-9.40277305e-08
-1.36448444e-07
-1.692405818e-07
-1.934697764e-07
-2.074805745e-07
-2.139415858e-07
-2.162663627e-07
-2.139151278e-07
-2.090661587e-07
-2.024347017e-07
-1.941164672e-07
-1.85086428e-07
-1.763799452e-07
-1.669319172e-07
-1.565227704e-07
-1.468047264e-07
-1.377657095e-07
-1.297755021e-07
-1.229156685e-07
-1.165996078e-07
-1.104042461e-07
-1.042866359e-07
-9.843042943e-08
-9.268936506e-08
-8.762807782e-08
-8.346469105e-08
-7.969888706e-08
-7.589027328e-08
-7.258430699e-08
-6.955742564e-08
-6.638836317e-08
-6.347503937e-08
-6.096968489e-08
-5.881077579e-08
-5.677930493e-08
-5.481161816e-08
-5.285014179e-08
-5.095560221e-08
-4.898157433e-08
-4.696991712e-08
-4.51585454e-08
-4.357075045e-08
-4.220020643e-08
-4.106035108e-08
-3.994463158e-08
-3.870457991e-08
-3.746022797e-08
-3.626598256e-08
-3.508468424e-08
-3.402839385e-08
-3.303906846e-08
-3.207606909e-08
-3.110335809e-08
-3.003285272e-08
-2.890450566e-08
-2.767072699e-08
-2.667454722e-08
-2.588730449e-08
-2.470389368e-08
-2.331252799e-08
-2.207848013e-08
-2.10366543e-08
-1.977658037e-08
-1.830848312e-08
-1.691609969e-08
-1.548026822e-08
-1.435517612e-08
-1.398603809e-08
2.281972542e-08
6.913667855e-08
1.031380806e-07
1.408929731e-07
1.540960595e-07
)


101
(
1.580227433e-08
3.281563765e-08
6.315497319e-08
8.65643086e-08
1.050140703e-07
1.209414572e-07
1.360394566e-07
1.515816145e-07
1.681536693e-07
1.862258864e-07
2.061132401e-07
2.28106611e-07
2.52825074e-07
2.807821074e-07
3.114844791e-07
3.429804576e-07
3.724260195e-07
3.965913185e-07
4.112589036e-07
4.128641521e-07
3.994312905e-07
3.701354132e-07
3.262647773e-07
2.705374039e-07
2.068480002e-07
1.397271771e-07
7.324935664e-08
1.094574342e-08
-4.4733191e-08
-9.234497228e-08
-1.311057524e-07
-1.616138859e-07
-1.816408565e-07
-1.937539514e-07
-2.013171952e-07
-2.033948418e-07
-2.021000377e-07
-1.982297234e-07
-1.920801353e-07
-1.850399459e-07
-1.784678836e-07
-1.710386668e-07
-1.621720514e-07
-1.534302947e-07
-1.447322438e-07
-1.366953816e-07
-1.297943962e-07
-1.236378462e-07
-1.177845865e-07
-1.121262425e-07
-1.06625452e-07
-1.008521576e-07
-9.563339418e-08
-9.140420961e-08
-8.768038583e-08
-8.395688219e-08
-8.078072709e-08
-7.802585315e-08
-7.503691015e-08
-7.204515475e-08
-6.947923619e-08
-6.750689354e-08
-6.562330643e-08
-6.367644097e-08
-6.193107719e-08
-6.02709599e-08
-5.852038523e-08
-5.65998261e-08
-5.467816878e-08
-5.307028196e-08
-5.165710279e-08
-5.057461516e-08
-4.968792121e-08
-4.873639492e-08
-4.775793816e-08
-4.658994679e-08
-4.535719787e-08
-4.438509614e-08
-4.350976189e-08
-4.280069433e-08
-4.205890391e-08
-4.103189611e-08
-3.998494126e-08
-3.886570307e-08
-3.780266075e-08
-3.700776328e-08
-3.601024784e-08
-3.452787918e-08
-3.293902705e-08
-3.186297546e-08
-3.040963516e-08
-2.86513947e-08
-2.692722816e-08
-2.48930743e-08
-2.32652473e-08
-2.264413775e-08
4.10472909e-08
1.204494739e-07
1.723838404e-07
2.365187835e-07
2.643423391e-07
)


101
(
1.543820286e-08
3.212047836e-08
6.191580319e-08
8.49575219e-08
1.031138155e-07
1.187845711e-07
1.336260835e-07
1.488905227e-07
1.651816008e-07
1.829897205e-07
2.026357056e-07
2.243526901e-07
2.487532484e-07
2.764666426e-07
3.0724974e-07
3.39538469e-07
3.709169226e-07
3.985198917e-07
4.184325724e-07
4.26956396e-07
4.217245079e-07
4.013568144e-07
3.662208144e-07
3.182351187e-07
2.605597901e-07
1.971712399e-07
1.319967284e-07
6.872838469e-08
1.017584163e-08
-4.178894503e-08
-8.594975341e-08
-1.225209175e-07
-1.486075812e-07
-1.665789105e-07
-1.797525931e-07
-1.867721427e-07
-1.896009092e-07
-1.889496114e-07
-1.852368261e-07
-1.802570326e-07
-1.75878053e-07
-1.70725836e-07
-1.638645751e-07
-1.566956952e-07
-1.489115669e-07
-1.412227009e-07
-1.343768103e-07
-1.28342172e-07
-1.228708139e-07
-1.177049011e-07
-1.126849944e-07
-1.071787202e-07
-1.019628054e-07
-9.765746777e-08
-9.39814006e-08
-9.0400655e-08
-8.742935113e-08
-8.508142968e-08
-8.252152561e-08
-7.977335295e-08
-7.721442523e-08
-7.534075303e-08
-7.364023543e-08
-7.18456471e-08
-7.050678045e-08
-6.930354036e-08
-6.791806147e-08
-6.621914213e-08
-6.449054548e-08
-6.307582188e-08
-6.169854218e-08
-6.075077026e-08
-6.011277472e-08
-5.954524288e-08
-5.925468669e-08
-5.860415967e-08
-5.754695824e-08
-5.656362589e-08
-5.589567327e-08
-5.573011431e-08
-5.544653942e-08
-5.484052882e-08
-5.406510355e-08
-5.312538027e-08
-5.233910227e-08
-5.176961392e-08
-5.104548463e-08
-4.979006031e-08
-4.795682025e-08
-4.688382332e-08
-4.53488259e-08
-4.327421537e-08
-4.127374723e-08
-3.852891461e-08
-3.619243786e-08
-3.524188786e-08
6.897976211e-08
1.973089209e-07
2.72557991e-07
3.486640047e-07
3.735478592e-07
)


101
(
1.507775811e-08
3.14318524e-08
6.068945611e-08
8.337265888e-08
1.012500432e-07
1.166845595e-07
1.312990903e-07
1.463249126e-07
1.623792565e-07
1.799670532e-07
1.994294881e-07
2.209492891e-07
2.45110372e-07
2.72636191e-07
3.034950281e-07
3.364635267e-07
3.695303063e-07
4.001913811e-07
4.248636509e-07
4.39853782e-07
4.425248073e-07
4.310480823e-07
4.049327029e-07
3.653312252e-07
3.147012534e-07
2.563052459e-07
1.937535027e-07
1.308166278e-07
7.058577315e-08
1.52826301e-08
-3.350436393e-08
-7.56622113e-08
-1.0763512e-07
-1.315014187e-07
-1.504751609e-07
-1.628057418e-07
-1.702898747e-07
-1.733932508e-07
-1.72474891e-07
-1.697454612e-07
-1.676168401e-07
-1.647547576e-07
-1.601608405e-07
-1.551431924e-07
-1.489037928e-07
-1.420069333e-07
-1.354030052e-07
-1.296013266e-07
-1.245641711e-07
-1.19827226e-07
-1.153307357e-07
-1.103867388e-07
-1.053920968e-07
-1.010942867e-07
-9.763201406e-08
-9.414135275e-08
-9.125060894e-08
-8.943817728e-08
-8.762135338e-08
-8.535444592e-08
-8.294959051e-08
-8.1179298e-08
-7.963552217e-08
-7.835677281e-08
-7.74421918e-08
-7.6700861e-08
-7.617939488e-08
-7.510676056e-08
-7.386098738e-08
-7.273903213e-08
-7.162071653e-08
-7.101946605e-08
-7.069832889e-08
-7.066217214e-08
-7.12959488e-08
-7.193201751e-08
-7.152397208e-08
-7.074026365e-08
-7.050705867e-08
-7.080519565e-08
-7.138769305e-08
-7.195809826e-08
-7.182711824e-08
-7.127708255e-08
-7.105739425e-08
-7.10536805e-08
-7.088346727e-08
-7.02528999e-08
-6.85239487e-08
-6.739205061e-08
-6.601256079e-08
-6.367900078e-08
-6.137528022e-08
-5.792469431e-08
-5.443402337e-08
-5.268860982e-08
1.095207074e-07
3.066185808e-07
4.13200511e-07
5.245516246e-07
5.643399686e-07
)


101
(
1.472094993e-08
3.074977365e-08
5.947581615e-08
8.180935255e-08
9.942197589e-08
1.146398163e-07
1.290552871e-07
1.438799278e-07
1.597403735e-07
1.77147935e-07
1.964747004e-07
2.178687174e-07
2.418667446e-07
2.692606935e-07
3.001982831e-07
3.33748366e-07
3.682771044e-07
4.016376849e-07
4.305700046e-07
4.515525102e-07
4.617960965e-07
4.590833841e-07
4.42158334e-07
4.114414119e-07
3.687708984e-07
3.166110951e-07
2.580702071e-07
1.968824185e-07
1.363228336e-07
7.884092909e-08
2.635548137e-08
-2.066265785e-08