/*--------------------------------*- C++ -*----------------------------------*\
| =========                 |                                                 |
| \\      /  F ield         | OpenFOAM: The Open Source CFD Toolbox           |
|  \\    /   O peration     | Version:  2.3.1                                 |
|   \\  /    A nd           | Web:      www.OpenFOAM.org                      |
|    \\/     M anipulation  |                                                 |
\*---------------------------------------------------------------------------*/
FoamFile
{
    version     2.0;
    format      ascii;
    class       dictionary;
    location    "constant";
    object      GRPSI58;
}
// * * * * * * * * * * * * * * * * * * * * * * * * * * * * * * * * * * * * * //

GRPSI58_table
101
(

101
(
-1.898167097e-44
-6.113824534e-37
-1.075230178e-34
-2.397721136e-33
-2.127435785e-32
-1.043130762e-31
-3.510504021e-31
-1.042443078e-30
-2.684249767e-30
-6.295114125e-30
-1.372020557e-29
-2.852079973e-29
-5.61734252e-29
-1.097521175e-28
-2.081852048e-28
-3.826841795e-28
-6.856444031e-28
-1.218829441e-27
-2.02596873e-27
-3.403136322e-27
-5.398268696e-27
-8.171836735e-27
-1.220048521e-26
-1.753390203e-26
-2.420476506e-26
-3.219496255e-26
-4.131115809e-26
-5.114510765e-26
-6.129366723e-26
-7.104244797e-26
-7.966969173e-26
-8.632457641e-26
-9.013978475e-26
-9.032174551e-26
-8.665005332e-26
-7.806956004e-26
-4.420007598e-25
-1.104166884e-24
-1.163294654e-24
-1.209265831e-24
-1.241389723e-24
-1.261735371e-24
-1.265453682e-24
-1.253917817e-24
-1.229151989e-24
-1.18791883e-24
-1.133551646e-24
-1.063968734e-24
-9.824055847e-25
-8.879132113e-25
-7.840412459e-25
-6.707659621e-25
-5.499075789e-25
-4.233487646e-25
-2.928454708e-25
-1.597199365e-25
-2.304664666e-26
1.100198508e-25
2.432238676e-25
3.718177302e-25
4.96124354e-25
6.139560577e-25
7.243765061e-25
8.266431791e-25
9.194793943e-25
1.002626318e-24
1.07500085e-24
1.136234776e-24
1.186295584e-24
1.224552642e-24
1.251306706e-24
1.266722436e-24
1.271030943e-24
1.264337411e-24
8.127732051e-25
5.323795665e-25
6.146634953e-25
6.710216685e-25
7.05295043e-25
7.205153221e-25
7.193353747e-25
7.024345866e-25
6.738740919e-25
4.363387426e-25
2.879292803e-25
3.263972519e-25
3.354190851e-25
3.232894058e-25
2.958923697e-25
1.646614961e-25
1.551336765e-25
1.441248895e-25
1.177870998e-25
7.508208468e-26
4.709137902e-26
2.666644245e-26
9.431508154e-27
3.92398678e-26
1.355320148e-25
4.045389656e-25
1.065743317e-24
)


101
(
-1.898167093e-44
-3.934020012e-37
-5.998670181e-35
-1.254188092e-33
-1.071101321e-32
-5.109297814e-32
-1.674732958e-31
-4.865327814e-31
-1.225572193e-30
-2.813639708e-30
-6.000444545e-30
-1.220673098e-29
-2.344325228e-29
-4.477223789e-29
-8.269133646e-29
-1.471461345e-28
-2.536639255e-28
-4.332346301e-28
-6.74007727e-28
-1.065610056e-27
-1.537961498e-27
-2.035767866e-27
-2.586690448e-27
-2.924269487e-27
-2.694185916e-27
-1.424486467e-27
1.531316058e-27
6.99148888e-27
1.584759052e-26
2.913640033e-26
4.791380915e-26
7.322033516e-26
1.058636871e-25
1.479010688e-25
1.989324928e-25
2.601017594e-25
1.431308068e-25
-1.147361959e-25
-6.222456854e-26
6.1330765e-27
8.995058662e-26
1.862461746e-25
2.996105055e-25
4.285214569e-25
5.702507407e-25
7.27878114e-25
8.976810886e-25
1.081536242e-24
1.275621083e-24
1.480734482e-24
1.692605238e-24
1.911010527e-24
2.133886018e-24
2.358805687e-24
2.583329672e-24
2.805697343e-24
3.028122318e-24
3.239934318e-24
3.446598645e-24
3.641500795e-24
3.825443694e-24
3.994833977e-24
4.148100044e-24
4.284492521e-24
4.402046303e-24
4.499935222e-24
4.576285194e-24
4.63034576e-24
4.662458334e-24
4.670596836e-24
4.655542411e-24
4.617145156e-24
4.556493381e-24
4.472550997e-24
4.149690269e-24
3.897055866e-24
3.811488026e-24
3.696964643e-24
3.554892174e-24
3.389260386e-24
3.204358657e-24
3.00354621e-24
2.790020814e-24
2.467813022e-24
2.188462158e-24
2.001924778e-24
1.799301822e-24
1.587943524e-24
1.375069777e-24
1.119642559e-24
9.358546647e-25
7.647598096e-25
5.984448175e-25
4.405587393e-25
3.087651705e-25
1.973224068e-25
1.058474058e-25
3.533335011e-25
1.021065051e-24
2.636778841e-24
6.157567186e-24
)


101
(
-1.898167093e-44
-1.671558393e-37
-1.227203033e-35
-1.115768667e-34
-1.669406747e-34
2.0303959e-33
1.588636049e-32
6.937838862e-32
2.354953856e-31
6.806942192e-31
1.766660762e-30
4.252167879e-30
9.683805173e-30
2.121124885e-29
4.522363918e-29
9.404410441e-29
1.911226934e-28
3.80604784e-28
7.390091414e-28
1.399797698e-27
2.583239771e-27
4.616432009e-27
8.011077169e-27
1.349880725e-26
2.204671102e-26
3.489839229e-26
5.358487554e-26
7.989270937e-26
1.159004162e-25
1.637953271e-25
2.259147634e-25
3.045120959e-25
4.012965048e-25
5.212752515e-25
6.645383441e-25
8.334860945e-25
1.030183968e-24
1.2559509e-24
1.513723276e-24
1.806205958e-24
2.13269762e-24
2.488372063e-24
2.879429555e-24
3.305063892e-24
3.761309802e-24
4.252748448e-24
4.77446589e-24
5.329464761e-24
5.911956322e-24
6.523135164e-24
7.15570629e-24
7.808597157e-24
8.478114768e-24
9.159361122e-24
9.846655873e-24
1.053541589e-23
1.123090438e-23
1.190956266e-23
1.258083451e-23
1.322956682e-23
1.385620895e-23
1.445068378e-23
1.500704315e-23
1.552174549e-23
1.598839504e-23
1.64021998e-23
1.675612534e-23
1.70453916e-23
1.726906669e-23
1.741858638e-23
1.749378191e-23
1.749119629e-23
1.741243975e-23
1.72515886e-23
1.70098217e-23
1.668874041e-23
1.629462226e-23
1.582340298e-23
1.526846438e-23
1.463289342e-23
1.392548338e-23
1.316044605e-23
1.234478979e-23
1.148830396e-23
1.060012851e-23
9.691920964e-24
8.764906945e-24
7.823128125e-24
6.883415676e-24
5.967965799e-24
5.083538422e-24
4.247044538e-24
3.460244598e-24
2.731738903e-24
2.080617022e-24
1.494009097e-24
9.76806305e-25
2.750746296e-24
6.90374919e-24
1.583517823e-23
3.347598523e-23
)


101
(
-1.898167093e-44
-1.510775708e-37
-1.191302996e-35
-1.133144906e-34
-2.053229434e-34
1.832665461e-33
1.541788255e-32
6.923679391e-32
2.398150962e-31
7.052486457e-31
1.858947423e-30
4.537873048e-30
1.047317883e-29
2.321912658e-29
5.008649579e-29
1.054387359e-28
2.170432876e-28
4.380164482e-28
8.637581821e-28
1.662888863e-27
3.123961074e-27
5.696303055e-27
1.009200623e-26
1.73765627e-26
2.903761072e-26
4.707188648e-26
7.405688672e-26
1.131704676e-25
1.682780814e-25
2.437523673e-25
3.445124016e-25
4.75702437e-25
6.419308875e-25
8.527622772e-25
1.111883686e-24
1.425676465e-24
1.800185345e-24
2.240558574e-24
2.755013374e-24
3.352467608e-24
4.036034388e-24
4.800489633e-24
5.657742833e-24
6.610306879e-24
7.654847609e-24
8.801759282e-24
1.004559166e-23
1.139437293e-23
1.284034286e-23
1.438761748e-23
1.602416572e-23
1.774834007e-23
1.955337357e-23
2.142983548e-23
2.336560205e-23
2.534952802e-23
2.739127235e-23
2.944142327e-23
3.15152138e-23
3.357726419e-23
3.562420595e-23
3.762977473e-23
3.957531211e-23
4.144661417e-23
4.322398928e-23
4.488974125e-23
4.642101855e-23
4.779872808e-23
4.901272947e-23
5.003515981e-23
5.085792217e-23
5.146398418e-23
5.18496848e-23
5.199451809e-23
5.189098215e-23
5.153107519e-23
5.092698253e-23
5.007676804e-23
4.895937091e-23
4.756654405e-23
4.589973577e-23
4.399156007e-23
4.186900584e-23
3.955947701e-23
3.708155802e-23
3.447317223e-23
3.175392294e-23
2.893729344e-23
2.603832897e-23
2.313637437e-23
2.026073496e-23
1.747364096e-23
1.479637967e-23
1.224345197e-23
9.881538083e-24
7.673591321e-24
5.616155191e-24
1.380516501e-23
3.089386168e-23
6.422148362e-23
1.246042122e-22
)


101
(
-1.89816727e-44
-1.358991857e-37
-1.154982569e-35
-1.148386984e-34
-2.433204088e-34
1.626695275e-33
1.488252206e-32
6.880408677e-32
2.431803899e-31
7.273169449e-31
1.945863796e-30
4.813908813e-30
1.124875805e-29
2.521499839e-29
5.495556622e-29
1.169211127e-28
2.433424276e-28
4.966827222e-28
9.923399048e-28
1.937306412e-27
3.695265894e-27
6.856157016e-27
1.236987242e-26
2.170493989e-26
3.700526293e-26
6.126073089e-26
9.848183784e-26
1.538298991e-25
2.338178882e-25
3.462002813e-25
5.000710193e-25
7.054826618e-25
9.723537131e-25
1.317708034e-24
1.752234888e-24
2.290489037e-24
2.946788274e-24
3.734588263e-24
4.672612744e-24
5.782349558e-24
7.077232242e-24
8.556705474e-24
1.024445477e-23
1.215120106e-23
1.427939708e-23
1.665267877e-23
1.926945045e-23
2.214985772e-23
2.528791049e-23
2.869673823e-23
3.236138243e-23
3.628298599e-23
4.045269729e-23
4.485629852e-23
4.947352287e-23
5.428381426e-23
5.930399714e-23
6.444273136e-23
6.972453543e-23
7.507816332e-23
8.049063909e-23
8.590407581e-23
9.127334053e-23
9.655952111e-23
1.017136147e-22
1.066880143e-22
1.114242554e-22
1.158685328e-22
1.199835087e-22
1.236947352e-22
1.269698855e-22
1.29753532e-22
1.320202664e-22
1.337123132e-22
1.3479564e-22
1.352264055e-22
1.350048357e-22
1.341275742e-22
1.32551519e-22
1.302514192e-22
1.271809545e-22
1.233662535e-22
1.188660069e-22
1.137572485e-22
1.080768641e-22
1.019065523e-22
9.529490826e-23
8.83168647e-23
8.09698351e-23
7.341114125e-23
6.573513299e-23
5.814434947e-23
5.069242923e-23
4.343905636e-23
3.654393108e-23
2.993282573e-23
2.354399514e-23
5.184944696e-23
1.056806158e-22
2.030002919e-22
3.679740394e-22
)


101
(
-1.898167097e-44
-1.216068527e-37
-1.11831607e-35
-1.161469869e-34
-2.808113349e-34
1.41316101e-33
1.428102111e-32
6.807229281e-32
2.455266211e-31
7.465921925e-31
2.026285967e-30
5.076748328e-30
1.200044531e-29
2.717182144e-29
5.975970836e-29
1.283026208e-28
2.695325858e-28
5.553855929e-28
1.121753095e-27
2.21600008e-27
4.281443433e-27
8.062291185e-27
1.477799361e-26
2.6361255e-26
4.573670995e-26
7.712470455e-26
1.263751466e-25
2.012855026e-25
3.120071335e-25
4.71113877e-25
6.93869294e-25
9.978798657e-25
1.401711101e-24
1.933850788e-24
2.616792284e-24
3.479277562e-24
4.550645544e-24
5.859936757e-24
7.444605269e-24
9.348428313e-24
1.160589093e-23
1.423124852e-23
1.727115762e-23
2.075395218e-23
2.469740619e-23
2.915130174e-23
3.412805105e-23
3.967288137e-23
4.579103065e-23
5.251686012e-23
5.984004566e-23
6.77738181e-23
7.63131865e-23
8.544281479e-23
9.513571966e-23
1.053621599e-22
1.161521388e-22
1.273547409e-22
1.390097753e-22
1.509924484e-22
1.632727642e-22
1.757400223e-22
1.883025784e-22
2.008747238e-22
2.133525992e-22
2.256304995e-22
2.375837891e-22
2.490901239e-22
2.600531651e-22
2.703028229e-22
2.797506379e-22
2.882557366e-22
2.957353379e-22
3.020504099e-22
3.071045407e-22
3.107701591e-22
3.12986036e-22
3.13715288e-22
3.128588917e-22
3.1038381e-22
3.061550652e-22
3.001058133e-22
2.922741214e-22
2.828213434e-22
2.71836652e-22
2.594780358e-22
2.458062413e-22
2.310240648e-22
2.151495859e-22
1.984049842e-22
1.809553214e-22
1.633723433e-22
1.457755343e-22
1.28341416e-22
1.113986873e-22
9.482724696e-23
7.842686841e-23
1.581345746e-22
2.987825449e-22
5.371642936e-22
9.186722954e-22
)


101
(
-1.898167093e-44
-1.081851943e-37
-1.08137892e-35
-1.172375849e-34
-3.176751486e-34
1.192784924e-33
1.361450211e-32
6.703516749e-32
2.467954814e-31
7.627832661e-31
2.099114712e-30
5.322868968e-30
1.271801349e-29
2.906196485e-29
6.442626803e-29
1.393904319e-28
2.951107636e-28
6.128542782e-28
1.248825584e-27
2.491319767e-27
4.864943712e-27
9.275612547e-27
1.723466827e-26
3.11858345e-26
5.493475545e-26
9.414058069e-26
1.568779376e-25
2.542355498e-25
4.010457622e-25
6.162821846e-25
9.236605547e-25
1.351501317e-24
1.931210702e-24
2.707838126e-24
3.72198028e-24
5.024357852e-24
6.668643944e-24
8.709962142e-24
1.12162905e-23
1.426737639e-23
1.793436015e-23
2.226278652e-23
2.734013076e-23
3.322847673e-23
3.997657185e-23
4.767970684e-23
5.638242148e-23
6.617609379e-23
7.70949343e-23
8.921509297e-23
1.025473212e-22
1.171357277e-22
1.32993853e-22
1.501165689e-22
1.68478399e-22
1.88046555e-22
2.088758262e-22
2.307411686e-22
2.537084869e-22
2.775846159e-22
3.023172405e-22
3.277194355e-22
3.536291641e-22
3.798843629e-22
4.062924206e-22
4.326472091e-22
4.587175021e-22
4.842654247e-22
5.090918405e-22
5.328585737e-22
5.55365691e-22
5.763137877e-22
5.95499599e-22
6.126322735e-22
6.274891995e-22
6.397831621e-22
6.493007082e-22
6.559042585e-22
6.593369452e-22
6.595469024e-22
6.562918838e-22
6.493146225e-22
6.384568146e-22
6.238996874e-22
6.058255926e-22
5.845492616e-22
5.600898654e-22
5.32840127e-22
5.02868946e-22
4.705565522e-22
4.359318702e-22
4.00352521e-22
3.640708585e-22
3.275530881e-22
2.913621955e-22
2.55480963e-22
2.193889643e-22
4.113716464e-22
7.297667996e-22
1.239727315e-21
2.016600159e-21
)


101
(
-1.898167093e-44
-9.561788408e-38
-1.04424666e-35
-1.181093529e-34
-3.537925104e-34
9.663335131e-34
1.288446753e-32
6.56881747e-32
2.469352676e-31
7.75617099e-31
2.163285845e-30
5.548786416e-30
1.339120951e-29
3.08575384e-29
6.888218331e-29
1.499916768e-28
3.195728869e-28
6.678086209e-28
1.370346817e-27
2.755385046e-27
5.427313226e-27
1.045396209e-26
1.964822377e-26
3.599154762e-26
6.423506785e-26
1.116301758e-25
1.88793917e-25
3.106917104e-25
4.978261209e-25
7.771490262e-25
1.183208359e-24
1.758482086e-24
2.552014612e-24
3.631384496e-24
5.062991796e-24
6.928905656e-24
9.318699136e-24
1.232718887e-23
1.606830413e-23
2.067555686e-23
2.627738863e-23
3.297388819e-23
4.091883873e-23
5.023276422e-23
6.10189044e-23
7.344429116e-23
8.761273128e-23
1.036923665e-22
1.217748658e-22
1.420090544e-22
1.644544388e-22
1.892155058e-22
2.163522782e-22
2.458947457e-22
2.778361317e-22
3.121560468e-22
3.489559702e-22
3.879298412e-22
4.291854152e-22
4.724550025e-22
5.176665727e-22
5.645401466e-22
6.128245925e-22
6.622466256e-22
7.124860918e-22
7.631790268e-22
8.139351348e-22
8.643519796e-22
9.140757378e-22
9.625230068e-22
1.009294788e-21
1.053829145e-21
1.095697511e-21
1.134369915e-21
1.169413101e-21
1.200263632e-21
1.226420311e-21
1.247541325e-21
1.263031123e-21
1.272742585e-21
1.276267403e-21
1.273121341e-21
1.262707637e-21
1.244960864e-21
1.220066729e-21
1.188645908e-21
1.150560368e-21
1.106494953e-21
1.056459916e-21
1.00128317e-21
9.403400739e-22
8.763718546e-22
8.098481967e-22
7.418162923e-22
6.732105791e-22
6.044717173e-22
5.344076443e-22
9.424855184e-22
1.584001208e-21
2.557062963e-21
3.973643294e-21
)


101
(
-1.898167447e-44
-8.388753377e-38
-1.006994721e-35
-1.187619087e-34
-3.890459401e-34
7.346223298e-34
1.209287982e-32
6.402892236e-32
2.459021062e-31
7.848439426e-31
2.217790294e-30
5.751120161e-30
1.400995617e-29
3.25309761e-29
7.305568359e-29
1.599186325e-28
3.424298554e-28
7.190053872e-28
1.483200458e-27
3.000478168e-27
5.950197584e-27
1.155463151e-26
2.192300502e-26
4.057623279e-26
7.323038623e-26
1.288056858e-25
2.206666415e-25
3.680940418e-25
5.98076448e-25
9.46943857e-25
1.462306447e-24
2.204191795e-24
3.244262579e-24
4.678997044e-24
6.609309507e-24
9.159161104e-24
1.246719887e-23
1.668395668e-23
2.198778171e-23
2.858725753e-23
3.669331082e-23
4.649022976e-23
5.823061104e-23
7.212765221e-23
8.837210746e-23
1.072359218e-22
1.289178178e-22
1.537020451e-22
1.817789106e-22
2.134122552e-22
2.487498804e-22
2.879966019e-22
3.313011887e-22
3.787697343e-22
4.304492615e-22
4.863615585e-22
5.466811755e-22
6.110365648e-22
6.795919452e-22
7.520109048e-22
8.282204024e-22
9.078390413e-22
9.905245975e-22
1.075871009e-21
1.163396908e-21
1.25251816e-21
1.342608776e-21
1.433052298e-21
1.523284011e-21
1.612398879e-21
1.699729399e-21
1.784309339e-21
1.865377862e-21
1.9420119e-21
2.013457841e-21
2.078750165e-21
2.136951562e-21
2.187357683e-21
2.228757688e-21
2.260807976e-21
2.282791413e-21
2.293888558e-21
2.292964395e-21
2.279209199e-21
2.252530754e-21
2.213913299e-21
2.162827542e-21
2.100470295e-21
2.026535223e-21
1.942599161e-21
1.84676369e-21
1.743624004e-21
1.634004663e-21
1.519906546e-21
1.40304552e-21
1.28486667e-21
1.163440494e-21
1.94388052e-21
3.111666547e-21
4.781754459e-21
7.090564609e-21
)


101
(
-1.898167447e-44
-7.297529102e-38
-9.696981668e-36
-1.191955641e-34
-4.233208489e-34
4.985069822e-34
1.12421475e-32
6.205730002e-32
2.436601429e-31
7.902386007e-31
2.26168492e-30
5.92664469e-30
1.45645137e-29
3.405549151e-29
7.687759663e-29
1.689930749e-28
3.632216425e-28
7.652804015e-28
1.58448165e-27
3.21939336e-27
6.416303907e-27
1.253688787e-26
2.396559591e-26
4.473651141e-26
8.149908867e-26
1.44826954e-25
2.508877896e-25
4.234982946e-25
6.966547965e-25
1.11709828e-24
1.747303985e-24
2.667794286e-24
3.977467e-24
5.807792583e-24
8.303176206e-24
1.164050711e-23
1.602142416e-23
2.166947139e-23
2.884768193e-23
3.786311572e-23
4.903732841e-23
6.267327339e-23
7.915995194e-23
9.88461606e-23
1.220532707e-22
1.491983685e-22
1.806183581e-22
2.167596517e-22
2.579626134e-22
3.046577584e-22
3.571341314e-22
4.157479441e-22
4.807882433e-22
5.524908742e-22
6.310203903e-22
7.164783599e-22
8.091506286e-22
9.08635271e-22
1.015179979e-21
1.128393071e-21
1.248230273e-21
1.374226248e-21
1.505941423e-21
1.642860243e-21
1.784337156e-21
1.929522776e-21
2.077430189e-21
2.227173579e-21
2.377906938e-21
2.528381636e-21
2.677628306e-21
2.824145539e-21
2.966659538e-21
3.103717064e-21
3.234102982e-21
3.356374675e-21
3.468933573e-21
3.570556023e-21
3.659145842e-21
3.733914084e-21
3.793680562e-21
3.837094248e-21
3.862491074e-21
3.867787086e-21
3.85205788e-21
3.816685535e-21
3.76016063e-21
3.684379887e-21
3.58861631e-21
3.475164776e-21
3.340572788e-21
3.191062931e-21
3.028069006e-21
2.854937895e-21
2.674955421e-21
2.491615425e-21
2.302793801e-21
3.657456913e-21
5.586911333e-21
8.169003092e-21
1.158055608e-20
)


101
(
-1.898132166e-44
-6.286136389e-38
-9.324317589e-36
-1.194113289e-34
-4.565057304e-34
2.588786996e-34
1.033509201e-32
5.977539406e-32
2.401822922e-31
7.916041466e-31
2.294107505e-30
6.072336378e-30
1.504563858e-29
3.540549351e-29
8.028245821e-29
1.770498767e-28
3.815292881e-28
8.055840078e-28
1.671604857e-27
3.405733711e-27
6.810233796e-27
1.336425047e-26
2.56907844e-26
4.828191728e-26
8.863570562e-26
1.588647818e-25
2.778239979e-25
4.738139308e-25
7.879622155e-25
1.277910534e-24
2.022100921e-24
3.123637987e-24
4.712308063e-24
6.95958927e-24
1.00615777e-23
1.425859348e-23
1.982885589e-23
2.708608786e-23
3.639828018e-23
4.81944464e-23
6.293528617e-23
8.107865152e-23
1.031899746e-22
1.298015989e-22
1.614176777e-22
1.986479039e-22
2.420165607e-22
2.921807352e-22
3.496875851e-22
4.151920173e-22
4.891894842e-22
5.722480651e-22
6.648538514e-22
7.67435713e-22
8.80344275e-22
1.00381187e-21
1.138317215e-21
1.283457487e-21
1.43961938e-21
1.606354968e-21
1.783685468e-21
1.971107948e-21
2.168104988e-21
2.374079586e-21
2.588229068e-21
2.809465764e-21
3.036423527e-21
3.267721069e-21
3.502197933e-21
3.738219459e-21
3.974529496e-21
4.209074506e-21
4.439909896e-21
4.664892787e-21
4.88216921e-21
5.089729254e-21
5.285099956e-21
5.466436717e-21
5.630718542e-21
5.776135879e-21
5.900776322e-21
6.002862387e-21
6.079958543e-21
6.128510879e-21
6.146059233e-21
6.134250421e-21
6.089884888e-21
6.01501181e-21
5.908877079e-21
5.775038994e-21
5.607248213e-21
5.413094295e-21
5.194792594e-21
4.957233962e-21
4.706350137e-21
4.449549038e-21
4.185696634e-21
6.325051515e-21
9.213615279e-21
1.277481833e-20
1.718493052e-20
)


101
(
-1.89801061e-44
-5.352500189e-38
-8.952704229e-36
-1.194110003e-34
-4.884924569e-34
1.666446674e-35
9.374958198e-33
5.718753152e-32
2.354509751e-31
7.887770521e-31
2.314294243e-30
6.185426844e-30
1.544473707e-29
3.655706595e-29
8.320964992e-29
1.839400071e-28
3.969840655e-28
8.390109861e-28
1.742376653e-27
3.554154757e-27
7.119164514e-27
1.400629559e-26
2.702670052e-26
5.104777429e-26
9.428047897e-26
1.701647053e-25
2.999486443e-25
5.160640183e-25
8.664239571e-25
1.419378306e-24
2.269501362e-24
3.543334413e-24
5.403658784e-24
8.065120195e-24
1.178173978e-23
1.686588755e-23
2.368423217e-23
3.265621522e-23
4.427306438e-23
5.91066844e-23
7.778319461e-23
1.009494292e-22
1.293851474e-22
1.638546133e-22
2.051017593e-22
2.539819247e-22
3.112600072e-22
3.778499537e-22
4.54561359e-22
5.423318023e-22
6.419340909e-22
7.542139235e-22
8.799148831e-22
1.019718726e-21
1.174219191e-21
1.343875121e-21
1.529406467e-21
1.730502748e-21
1.947710332e-21
2.180575371e-21
2.429175456e-21
2.693022768e-21
2.971560361e-21
3.264147661e-21
3.569894498e-21
3.887404353e-21
4.215125988e-21
4.551041837e-21
4.893446974e-21
5.240287095e-21
5.589951519e-21
5.939926298e-21
6.287776751e-21
6.630396506e-21
6.965030183e-21
7.288807621e-21
7.598557955e-21
7.891871412e-21
8.164229586e-21
8.413069079e-21
8.635186044e-21
8.828092665e-21
8.988747344e-21
9.112401706e-21
9.19366984e-21
9.234491885e-21
9.230454494e-21
9.181740997e-21
9.087485468e-21
8.954426042e-21
8.771800372e-21
8.547881425e-21
8.285361092e-21
7.992124238e-21
7.67662351e-21
7.35281133e-21
7.021956308e-21
1.007454315e-20
1.394867043e-20
1.826817551e-20
2.320804522e-20
)


101
(
-1.897923636e-44
-4.494412441e-38
-8.582873122e-36
-1.191969609e-34
-5.191768218e-34
-2.271828927e-34
8.365388679e-33
5.430028641e-32
2.294574204e-31
7.816258103e-31
2.321586399e-30
6.263440959e-30
1.575397921e-29
3.748834459e-29
8.560441525e-29
1.89532793e-28
4.092741239e-28
8.648191859e-28
1.795051884e-27
3.66050706e-27
7.333305991e-27
1.444006567e-26
2.791867064e-26
5.290530314e-26
9.81431859e-26
1.781005783e-25
3.159580958e-25
5.476276058e-25
9.269674264e-25
1.53208103e-24
2.472743001e-24
3.898267857e-24
6.004509528e-24
9.049916652e-24
1.334958743e-23
1.929320872e-23
2.734434018e-23
3.804022786e-23
5.200976617e-23
6.998397431e-23
9.277523244e-23
1.21247281e-22
1.564244264e-22
1.993461044e-22
2.510507923e-22
3.126935367e-22
3.853355916e-22
4.701896591e-22
5.683747677e-22
6.811563209e-22
8.096565136e-22
9.550618327e-22
1.118426989e-21
1.300744351e-21
1.502904877e-21
1.725684557e-21
1.970028224e-21
2.235875991e-21
2.523926771e-21
2.833838191e-21
3.16567194e-21
3.519030957e-21
3.893319465e-21
4.287833185e-21
4.701627686e-21
5.133161093e-21
5.580707526e-21
6.041690299e-21
6.513830897e-21
6.994092256e-21
7.480640021e-21
7.970393146e-21
8.460858176e-21
8.948025799e-21
9.427998687e-21
9.896669479e-21
1.034980566e-20
1.07846499e-20
1.119579388e-20
1.157923871e-20
1.193064567e-20
1.224583802e-20
1.252230763e-20
1.27542791e-20
1.29321868e-20
1.305773192e-20
1.312720827e-20
1.313717009e-20
1.308509605e-20
1.298170743e-20
1.281412253e-20
1.258857006e-20
1.230742792e-20
1.198204242e-20
1.162641774e-20
1.125963474e-20
1.088557206e-20
1.477604753e-20
1.93436934e-20
2.382481415e-20
2.833852849e-20
)


101
(
-1.897924348e-44
-3.709576805e-38
-8.215547889e-36
-1.18772372e-34
-5.484597092e-34
-4.716903359e-34
7.310397528e-33
5.11225192e-32
2.222029731e-31
7.700549475e-31
2.315442137e-30
6.304241798e-30
1.596646244e-29
3.817988619e-29
8.741860122e-29
1.937178207e-28
4.181502927e-28
8.824439872e-28
1.828378953e-27
3.721943348e-27
7.446147273e-27
1.465069788e-26
2.833132409e-26
5.376827584e-26
1.000201694e-25
1.822142788e-25
3.248630572e-25
5.664434667e-25
9.654518231e-25
1.608022229e-24
2.61703444e-24
4.162252203e-24
6.470366894e-24
9.841244169e-24
1.465025517e-23
2.136498397e-23
3.054909372e-23
4.286420976e-23
5.908563845e-23
8.011351749e-23
1.069588773e-22
1.407202536e-22
1.826840197e-22
2.34195946e-22
2.966334485e-22
3.714982697e-22
4.602044384e-22
5.643022219e-22
6.852511035e-22
8.246728123e-22
9.840852772e-22
1.165062564e-21
1.369020024e-21
1.597316243e-21
1.851162236e-21
2.131674189e-21
2.440075286e-21
2.776586375e-21
3.14217647e-21
3.536602288e-21
3.959900638e-21
4.411759189e-21
4.891637683e-21
5.398560223e-21
5.931475528e-21
6.489026243e-21
7.069048824e-21
7.668970033e-21
8.285434286e-21
8.914504915e-21
9.553827383e-21
1.019943079e-20
1.084878542e-20
1.149761642e-20
1.214116147e-20
1.277387778e-20
1.338899673e-20
1.398433875e-20
1.455373999e-20
1.509179624e-20
1.559385101e-20
1.6052847e-20
1.646618908e-20
1.682927359e-20
1.713005935e-20
1.736540178e-20
1.753276525e-20
1.763064946e-20
1.764900635e-20
1.760185001e-20
1.748180407e-20
1.728542679e-20
1.702307548e-20
1.669804408e-20
1.633853974e-20
1.59634114e-20
1.558291101e-20
1.994021753e-20
2.453038244e-20
2.824028124e-20
3.083686812e-20
)


101
(
-1.897925051e-44
-2.995597996e-38
-7.851431649e-36
-1.181410112e-34
-5.762468174e-34
-7.158674213e-34
6.214329371e-33
4.766522501e-32
2.136992649e-31
7.540068085e-31
2.295435361e-30
6.306063408e-30
1.607630032e-29
3.861487634e-29
8.861094087e-29
1.964053803e-28
4.234271203e-28
8.915092908e-28
1.841612527e-27
3.736991583e-27
7.454604235e-27
1.463166695e-26
2.824934482e-26
5.359626001e-26
9.980488312e-26
1.822427046e-25
3.260520234e-25
5.711552146e-25
9.7899077e-25
1.641309222e-24
2.690880732e-24
4.313924096e-24
6.763357752e-24
1.037488614e-23
1.55788482e-23
2.291571073e-23
3.304572846e-23
4.675401028e-23
6.496331816e-23
8.874492266e-23
1.193108468e-22
1.58000186e-22
2.06362753e-22
2.660610038e-22
3.388361764e-22
4.265693023e-22
5.310761052e-22
6.542757179e-22
7.979954144e-22
9.642135525e-22
1.154834978e-21
1.37185066e-21
1.617083524e-21
1.892263233e-21
2.198931478e-21
2.53852402e-21
2.912574868e-21
3.321553368e-21
3.766756695e-21
4.248056416e-21
4.765546447e-21
5.318686474e-21
5.907088311e-21
6.52935928e-21
7.184368836e-21
7.870736431e-21
8.585976475e-21
9.327455712e-21
1.009085039e-20
1.087176822e-20
1.166653399e-20
1.246993804e-20
1.327914899e-20
1.408944653e-20
1.489630011e-20
1.569369643e-20
1.6471299e-20
1.722654972e-20
1.79509361e-20
1.864193928e-20
1.929293673e-20
1.98942202e-20
2.04431874e-20
2.093515052e-20
2.135944182e-20
2.170969871e-20
2.197831857e-20
2.217103236e-20
2.227244366e-20
2.229305499e-20
2.223980676e-20
2.209207073e-20
2.187594971e-20
2.158292754e-20
2.124995396e-20
2.09004515e-20
2.054531839e-20
2.465391364e-20
2.825941185e-20
3.020098469e-20
3.038405868e-20
)


101
(
-1.897923636e-44
-2.349975189e-38
-7.491205946e-36
-1.173072468e-34
-6.024494567e-34
-9.587133418e-34
5.081855521e-33
4.39415623e-32
2.039679568e-31
7.334620375e-31
2.261264396e-30
6.267540741e-30
1.607873997e-29
3.877946913e-29
8.914785909e-29
1.975270913e-28
4.249827101e-28
8.918235935e-28
1.834516561e-27
3.705510284e-27
7.358911093e-27
1.438455422e-26
2.767693293e-26
5.239446556e-26
9.749070601e-26
1.781285286e-25
3.19321076e-25
5.611867739e-25
9.661403657e-25
1.628600921e-24
2.687070536e-24
4.33870764e-24
6.855761122e-24
1.060118818e-23
1.605044932e-23
2.380591805e-23
3.461332647e-23
4.937137054e-23
6.914165003e-23
9.515858674e-23
1.288277977e-22
1.71720527e-22
2.256329976e-22
2.925319732e-22
3.745201566e-22
4.738627937e-22
5.928028295e-22
7.336503455e-22
8.986309915e-22
1.090048784e-21
1.310145364e-21
1.561300907e-21
1.845768544e-21
2.165600298e-21
2.522697202e-21
2.918782978e-21
3.355515157e-21
3.833648304e-21
4.354710583e-21
4.918780218e-21
5.525871262e-21
6.175143174e-21
6.865964299e-21
7.596682448e-21
8.366227982e-21
9.171914927e-21
1.001183156e-20
1.088282456e-20
1.178022128e-20
1.26987295e-20
1.363273332e-20
1.457638959e-20
1.552519826e-20
1.647393511e-20
1.741832696e-20
1.835312754e-20
1.926756554e-20
2.015202186e-20
2.099981433e-20
2.180884241e-20
2.257118697e-20
2.327861475e-20
2.392868216e-20
2.451119202e-20
2.502230079e-20
2.54538557e-20
2.579406765e-20
2.605072207e-20
2.621538783e-20
2.62870187e-20
2.628509489e-20
2.618412578e-20
2.600787313e-20
2.575988176e-20
2.546352851e-20
2.514542751e-20
2.479310758e-20
2.772103572e-20
2.92651312e-20
2.870518707e-20
2.587101645e-20
)


101
(
-1.897923636e-44
-1.770126475e-38
-7.13564394e-36
-1.162764429e-34
-6.269871468e-34
-1.199228349e-33
3.91796569e-33
3.996693304e-32
1.930420811e-31
7.084447438e-31
2.212769789e-30
6.187738979e-30
1.59703038e-29
3.866324173e-29
8.900453124e-29
1.970368149e-28
4.227584085e-28
8.833689228e-28
1.807318311e-27
3.628566159e-27
7.162322187e-27
1.391816823e-26
2.663607773e-26
5.021028047e-26
9.316658896e-26
1.700172862e-25
3.048748734e-25
5.367580186e-25
9.269616049e-25
1.569308719e-24
2.603216928e-24
4.23007606e-24
6.732596832e-24
1.048977867e-23
1.600830685e-23
2.393580825e-23
3.5084718e-23
5.044779575e-23
7.120603611e-23
9.873769515e-23
1.346226229e-22
1.806418007e-22
2.388063246e-22
3.113502916e-22
4.007027115e-22
5.094817719e-22
6.403502358e-22
7.960143071e-22
9.790996406e-22
1.192210357e-21
1.437868455e-21
1.718723036e-21
2.037385515e-21
2.3962005e-21
2.797357227e-21
3.242836372e-21
3.734231715e-21
4.272514831e-21
4.859129859e-21
5.494402719e-21
6.178103274e-21
6.909176583e-21
7.686080111e-21
8.50709015e-21
9.370727618e-21
1.027270885e-20
1.121155883e-20
1.21831785e-20
1.318282477e-20
1.420330893e-20
1.523828611e-20
1.628120866e-20
1.732442191e-20
1.836253426e-20
1.939071743e-20
2.04031602e-20
2.13905045e-20
2.23418045e-20
2.324692747e-20
2.410065259e-20
2.489725196e-20
2.563582077e-20
2.630670842e-20
2.69016341e-20
2.742138011e-20
2.785821765e-20
2.819937062e-20
2.844876982e-20
2.861282713e-20
2.868046903e-20
2.867096177e-20
2.858173951e-20
2.840816559e-20
2.81772806e-20
2.790535098e-20
2.758322969e-20
2.716268035e-20
2.803869362e-20
2.677758775e-20
2.354268476e-20
1.768536957e-20
)


101
(
-1.897925051e-44
-1.253381817e-38
-6.785301203e-36
-1.150544119e-34
-6.49785304e-34
-1.436413828e-33
2.727913028e-33
3.575866195e-32
1.809654387e-31
6.790235777e-31
2.149926193e-30
6.066133326e-30
1.57487298e-29
3.825921637e-29
8.816522347e-29
1.949120348e-28
4.167565511e-28
8.662930947e-28
1.760666838e-27
3.508242673e-27
6.870666351e-27
1.324756992e-26
2.516379274e-26
4.712705215e-26
8.700423927e-26
1.582354866e-25
2.832903876e-25
4.988258701e-25
8.629373756e-25
1.465520345e-24
2.441787594e-24
3.989902372e-24
6.392761456e-24
1.003216583e-23
1.542894392e-23
2.32547776e-23
3.436324296e-23
4.981217223e-23
7.087097937e-23
9.90299748e-23
1.360110759e-22
1.837709029e-22
2.444899723e-22
3.206108716e-22
4.148227916e-22
5.300288337e-22
6.692639903e-22
8.355950864e-22
1.032008473e-21
1.261395461e-21
1.52650292e-21
1.830098589e-21
2.174964405e-21
2.563652223e-21
2.998482202e-21
3.481505836e-21
4.014278666e-21
4.597794162e-21
5.232897569e-21
5.919964175e-21
6.658861737e-21
7.447528754e-21
8.283712171e-21
9.165114116e-21
1.008901662e-20
1.105051964e-20
1.204665817e-20
1.307247901e-20
1.412281967e-20
1.518901262e-20
1.62650637e-20
1.734079211e-20
1.840722439e-20
1.945855138e-20
2.048807213e-20
2.148846835e-20
2.245353604e-20
2.33748321e-20
2.423482603e-20
2.50276596e-20
2.575085524e-20
2.640682521e-20
2.698240679e-20
2.747385643e-20
2.789134611e-20
2.822058411e-20
2.845668754e-20
2.859883872e-20
2.866464666e-20
2.864099112e-20
2.854616432e-20
2.839515416e-20
2.817320786e-20
2.790455573e-20
2.761713117e-20
2.722894452e-20
2.665422081e-20