/*--------------------------------*- C++ -*----------------------------------*\
| =========                 |                                                 |
| \\      /  F ield         | OpenFOAM: The Open Source CFD Toolbox           |
|  \\    /   O peration     | Version:  2.3.1                                 |
|   \\  /    A nd           | Web:      www.OpenFOAM.org                      |
|    \\/     M anipulation  |                                                 |
\*---------------------------------------------------------------------------*/
FoamFile
{
    version     2.0;
    format      ascii;
    class       dictionary;
    location    "constant";
    object      Henorm_table;
}
// * * * * * * * * * * * * * * * * * * * * * * * * * * * * * * * * * * * * * //

Henorm_table
101
(

101
(
0
0.009999999776
0.01999999955
0.02999999933
0.03999999911
0.05000000075
0.05999999866
0.0700000003
0.07999999821
0.09000000358
0.1000000015
0.1099999994
0.1199999973
0.1299999952
0.1400000006
0.150000006
0.1599999964
0.1700000018
0.1800000072
0.1899999976
0.200000003
0.2099999934
0.2199999988
0.2300000042
0.2399999946
0.25
0.2599999905
0.2700000107
0.2800000012
0.2899999917
0.3000000119
0.3100000024
0.3199999928
0.3300000131
0.3400000036
0.349999994
0.3600000143
0.3700000048
0.3799999952
0.3899999857
0.400000006
0.4099999964
0.4199999869
0.4300000072
0.4399999976
0.4499999881
0.4600000083
0.4699999988
0.4799999893
0.4900000095
0.5
0.5099999905
0.5199999809
0.5299999714
0.5400000215
0.5500000119
0.5600000024
0.5699999928
0.5799999833
0.5899999738
0.6000000238
0.6100000143
0.6200000048
0.6299999952
0.6399999857
0.6499999762
0.6600000262
0.6700000167
0.6800000072
0.6899999976
0.6999999881
0.7099999785
0.7200000286
0.7300000191
0.7400000095
0.75
0.7599999905
0.7699999809
0.7799999714
0.7900000215
0.8000000119
0.8100000024
0.8199999928
0.8299999833
0.8399999738
0.8500000238
0.8600000143
0.8700000048
0.8799999952
0.8899999857
0.8999999762
0.9100000262
0.9200000167
0.9300000072
0.9399999976
0.9499999881
0.9599999785
0.9700000286
0.9800000191
0.9900000095
1
)


101
(
0
0.009999999776
0.01999999955
0.02999999933
0.03999999911
0.05000000075
0.05999999866
0.0700000003
0.07999999821
0.09000000358
0.1000000015
0.1099999994
0.1199999973
0.1299999952
0.1400000006
0.150000006
0.1599999964
0.1700000018
0.1800000072
0.1899999976
0.200000003
0.2099999934
0.2199999988
0.2300000042
0.2399999946
0.25
0.2599999905
0.2700000107
0.2800000012
0.2899999917
0.3000000119
0.3100000024
0.3199999928
0.3300000131
0.3400000036
0.349999994
0.3600000143
0.3700000048
0.3799999952
0.3899999857
0.400000006
0.4099999964
0.4199999869
0.4300000072
0.4399999976
0.4499999881
0.4600000083
0.4699999988
0.4799999893
0.4900000095
0.5
0.5099999905
0.5199999809
0.5299999714
0.5400000215
0.5500000119
0.5600000024
0.5699999928
0.5799999833
0.5899999738
0.6000000238
0.6100000143
0.6200000048
0.6299999952
0.6399999857
0.6499999762
0.6600000262
0.6700000167
0.6800000072
0.6899999976
0.6999999881
0.7099999785
0.7200000286
0.7300000191
0.7400000095
0.75
0.7599999905
0.7699999809
0.7799999714
0.7900000215
0.8000000119
0.8100000024
0.8199999928
0.8299999833
0.8399999738
0.8500000238
0.8600000143
0.8700000048
0.8799999952
0.8899999857
0.8999999762
0.9100000262
0.9200000167
0.9300000072
0.9399999976
0.9499999881
0.9599999785
0.9700000286
0.9800000191
0.9900000095
1
)


101
(
0
0.009999999776
0.01999999955
0.02999999933
0.03999999911
0.05000000075
0.05999999866
0.0700000003
0.07999999821
0.09000000358
0.1000000015
0.1099999994
0.1199999973
0.1299999952
0.1400000006
0.150000006
0.1599999964
0.1700000018
0.1800000072
0.1899999976
0.200000003
0.2099999934
0.2199999988
0.2300000042
0.2399999946
0.25
0.2599999905
0.2700000107
0.2800000012
0.2899999917
0.3000000119
0.3100000024
0.3199999928
0.3300000131
0.3400000036
0.349999994
0.3600000143
0.3700000048
0.3799999952
0.3899999857
0.400000006
0.4099999964
0.4199999869
0.4300000072
0.4399999976
0.4499999881
0.4600000083
0.4699999988
0.4799999893
0.4900000095
0.5
0.5099999905
0.5199999809
0.5299999714
0.5400000215
0.5500000119
0.5600000024
0.5699999928
0.5799999833
0.5899999738
0.6000000238
0.6100000143
0.6200000048
0.6299999952
0.6399999857
0.6499999762
0.6600000262
0.6700000167
0.6800000072
0.6899999976
0.6999999881
0.7099999785
0.7200000286
0.7300000191
0.7400000095
0.75
0.7599999905
0.7699999809
0.7799999714
0.7900000215
0.8000000119
0.8100000024
0.8199999928
0.8299999833
0.8399999738
0.8500000238
0.8600000143
0.8700000048
0.8799999952
0.8899999857
0.8999999762
0.9100000262
0.9200000167
0.9300000072
0.9399999976
0.9499999881
0.9599999785
0.9700000286
0.9800000191
0.9900000095
1
)


101
(
0
0.009999999776
0.01999999955
0.02999999933
0.03999999911
0.05000000075
0.05999999866
0.0700000003
0.07999999821
0.09000000358
0.1000000015
0.1099999994
0.1199999973
0.1299999952
0.1400000006
0.150000006
0.1599999964
0.1700000018
0.1800000072
0.1899999976
0.200000003
0.2099999934
0.2199999988
0.2300000042
0.2399999946
0.25
0.2599999905
0.2700000107
0.2800000012
0.2899999917
0.3000000119
0.3100000024
0.3199999928
0.3300000131
0.3400000036
0.349999994
0.3600000143
0.3700000048
0.3799999952
0.3899999857
0.400000006
0.4099999964
0.4199999869
0.4300000072
0.4399999976
0.4499999881
0.4600000083
0.4699999988
0.4799999893
0.4900000095
0.5
0.5099999905
0.5199999809
0.5299999714
0.5400000215
0.5500000119
0.5600000024
0.5699999928
0.5799999833
0.5899999738
0.6000000238
0.6100000143
0.6200000048
0.6299999952
0.6399999857
0.6499999762
0.6600000262
0.6700000167
0.6800000072
0.6899999976
0.6999999881
0.7099999785
0.7200000286
0.7300000191
0.7400000095
0.75
0.7599999905
0.7699999809
0.7799999714
0.7900000215
0.8000000119
0.8100000024
0.8199999928
0.8299999833
0.8399999738
0.8500000238
0.8600000143
0.8700000048
0.8799999952
0.8899999857
0.8999999762
0.9100000262
0.9200000167
0.9300000072
0.9399999976
0.9499999881
0.9599999785
0.9700000286
0.9800000191
0.9900000095
1
)


101
(
0
0.009999999776
0.01999999955
0.02999999933
0.03999999911
0.05000000075
0.05999999866
0.0700000003
0.07999999821
0.09000000358
0.1000000015
0.1099999994
0.1199999973
0.1299999952
0.1400000006
0.150000006
0.1599999964
0.1700000018
0.1800000072
0.1899999976
0.200000003
0.2099999934
0.2199999988
0.2300000042
0.2399999946
0.25
0.2599999905
0.2700000107
0.2800000012
0.2899999917
0.3000000119
0.3100000024
0.3199999928
0.3300000131
0.3400000036
0.349999994
0.3600000143
0.3700000048
0.3799999952
0.3899999857
0.400000006
0.4099999964
0.4199999869
0.4300000072
0.4399999976
0.4499999881
0.4600000083
0.4699999988
0.4799999893
0.4900000095
0.5
0.5099999905
0.5199999809
0.5299999714
0.5400000215
0.5500000119
0.5600000024
0.5699999928
0.5799999833
0.5899999738
0.6000000238
0.6100000143
0.6200000048
0.6299999952
0.6399999857
0.6499999762
0.6600000262
0.6700000167
0.6800000072
0.6899999976
0.6999999881
0.7099999785
0.7200000286
0.7300000191
0.7400000095
0.75
0.7599999905
0.7699999809
0.7799999714
0.7900000215
0.8000000119
0.8100000024
0.8199999928
0.8299999833
0.8399999738
0.8500000238
0.8600000143
0.8700000048
0.8799999952
0.8899999857
0.8999999762
0.9100000262
0.9200000167
0.9300000072
0.9399999976
0.9499999881
0.9599999785
0.9700000286
0.9800000191
0.9900000095
1
)


101
(
0
0.009999999776
0.01999999955
0.02999999933
0.03999999911
0.05000000075
0.05999999866
0.0700000003
0.07999999821
0.09000000358
0.1000000015
0.1099999994
0.1199999973
0.1299999952
0.1400000006
0.150000006
0.1599999964
0.1700000018
0.1800000072
0.1899999976
0.200000003
0.2099999934
0.2199999988
0.2300000042
0.2399999946
0.25
0.2599999905
0.2700000107
0.2800000012
0.2899999917
0.3000000119
0.3100000024
0.3199999928
0.3300000131
0.3400000036
0.349999994
0.3600000143
0.3700000048
0.3799999952
0.3899999857
0.400000006
0.4099999964
0.4199999869
0.4300000072
0.4399999976
0.4499999881
0.4600000083
0.4699999988
0.4799999893
0.4900000095
0.5
0.5099999905
0.5199999809
0.5299999714
0.5400000215
0.5500000119
0.5600000024
0.5699999928
0.5799999833
0.5899999738
0.6000000238
0.6100000143
0.6200000048
0.6299999952
0.6399999857
0.6499999762
0.6600000262
0.6700000167
0.6800000072
0.6899999976
0.6999999881
0.7099999785
0.7200000286
0.7300000191
0.7400000095
0.75
0.7599999905
0.7699999809
0.7799999714
0.7900000215
0.8000000119
0.8100000024
0.8199999928
0.8299999833
0.8399999738
0.8500000238
0.8600000143
0.8700000048
0.8799999952
0.8899999857
0.8999999762
0.9100000262
0.9200000167
0.9300000072
0.9399999976
0.9499999881
0.9599999785
0.9700000286
0.9800000191
0.9900000095
1
)


101
(
0
0.009999999776
0.01999999955
0.02999999933
0.03999999911
0.05000000075
0.05999999866
0.0700000003
0.07999999821
0.09000000358
0.1000000015
0.1099999994
0.1199999973
0.1299999952
0.1400000006
0.150000006
0.1599999964
0.1700000018
0.1800000072
0.1899999976
0.200000003
0.2099999934
0.2199999988
0.2300000042
0.2399999946
0.25
0.2599999905
0.2700000107
0.2800000012
0.2899999917
0.3000000119
0.3100000024
0.3199999928
0.3300000131
0.3400000036
0.349999994
0.3600000143
0.3700000048
0.3799999952
0.3899999857
0.400000006
0.4099999964
0.4199999869
0.4300000072
0.4399999976
0.4499999881
0.4600000083
0.4699999988
0.4799999893
0.4900000095
0.5
0.5099999905
0.5199999809
0.5299999714
0.5400000215
0.5500000119
0.5600000024
0.5699999928
0.5799999833
0.5899999738
0.6000000238
0.6100000143
0.6200000048
0.6299999952
0.6399999857
0.6499999762
0.6600000262
0.6700000167
0.6800000072
0.6899999976
0.6999999881
0.7099999785
0.7200000286
0.7300000191
0.7400000095
0.75
0.7599999905
0.7699999809
0.7799999714
0.7900000215
0.8000000119
0.8100000024
0.8199999928
0.8299999833
0.8399999738
0.8500000238
0.8600000143
0.8700000048
0.8799999952
0.8899999857
0.8999999762
0.9100000262
0.9200000167
0.9300000072
0.9399999976
0.9499999881
0.9599999785
0.9700000286
0.9800000191
0.9900000095
1
)


101
(
0
0.009999999776
0.01999999955
0.02999999933
0.03999999911
0.05000000075
0.05999999866
0.0700000003
0.07999999821
0.09000000358
0.1000000015
0.1099999994
0.1199999973
0.1299999952
0.1400000006
0.150000006
0.1599999964
0.1700000018
0.1800000072
0.1899999976
0.200000003
0.2099999934
0.2199999988
0.2300000042
0.2399999946
0.25
0.2599999905
0.2700000107
0.2800000012
0.2899999917
0.3000000119
0.3100000024
0.3199999928
0.3300000131
0.3400000036
0.349999994
0.3600000143
0.3700000048
0.3799999952
0.3899999857
0.400000006
0.4099999964
0.4199999869
0.4300000072
0.4399999976
0.4499999881
0.4600000083
0.4699999988
0.4799999893
0.4900000095
0.5
0.5099999905
0.5199999809
0.5299999714
0.5400000215
0.5500000119
0.5600000024
0.5699999928
0.5799999833
0.5899999738
0.6000000238
0.6100000143
0.6200000048
0.6299999952
0.6399999857
0.6499999762
0.6600000262
0.6700000167
0.6800000072
0.6899999976
0.6999999881
0.7099999785
0.7200000286
0.7300000191
0.7400000095
0.75
0.7599999905
0.7699999809
0.7799999714
0.7900000215
0.8000000119
0.8100000024
0.8199999928
0.8299999833
0.8399999738
0.8500000238
0.8600000143
0.8700000048
0.8799999952
0.8899999857
0.8999999762
0.9100000262
0.9200000167
0.9300000072
0.9399999976
0.9499999881
0.9599999785
0.9700000286
0.9800000191
0.9900000095
1
)


101
(
0
0.009999999776
0.01999999955
0.02999999933
0.03999999911
0.05000000075
0.05999999866
0.0700000003
0.07999999821
0.09000000358
0.1000000015
0.1099999994
0.1199999973
0.1299999952
0.1400000006
0.150000006
0.1599999964
0.1700000018
0.1800000072
0.1899999976
0.200000003
0.2099999934
0.2199999988
0.2300000042
0.2399999946
0.25
0.2599999905
0.2700000107
0.2800000012
0.2899999917
0.3000000119
0.3100000024
0.3199999928
0.3300000131
0.3400000036
0.349999994
0.3600000143
0.3700000048
0.3799999952
0.3899999857
0.400000006
0.4099999964
0.4199999869
0.4300000072
0.4399999976
0.4499999881
0.4600000083
0.4699999988
0.4799999893
0.4900000095
0.5
0.5099999905
0.5199999809
0.5299999714
0.5400000215
0.5500000119
0.5600000024
0.5699999928
0.5799999833
0.5899999738
0.6000000238
0.6100000143
0.6200000048
0.6299999952
0.6399999857
0.6499999762
0.6600000262
0.6700000167
0.6800000072
0.6899999976
0.6999999881
0.7099999785
0.7200000286
0.7300000191
0.7400000095
0.75
0.7599999905
0.7699999809
0.7799999714
0.7900000215
0.8000000119
0.8100000024
0.8199999928
0.8299999833
0.8399999738
0.8500000238
0.8600000143
0.8700000048
0.8799999952
0.8899999857
0.8999999762
0.9100000262
0.9200000167
0.9300000072
0.9399999976
0.9499999881
0.9599999785
0.9700000286
0.9800000191
0.9900000095
1
)


101
(
0
0.009999999776
0.01999999955
0.02999999933
0.03999999911
0.05000000075
0.05999999866
0.0700000003
0.07999999821
0.09000000358
0.1000000015
0.1099999994
0.1199999973
0.1299999952
0.1400000006
0.150000006
0.1599999964
0.1700000018
0.1800000072
0.1899999976
0.200000003
0.2099999934
0.2199999988
0.2300000042
0.2399999946
0.25
0.2599999905
0.2700000107
0.2800000012
0.2899999917
0.3000000119
0.3100000024
0.3199999928
0.3300000131
0.3400000036
0.349999994
0.3600000143
0.3700000048
0.3799999952
0.3899999857
0.400000006
0.4099999964
0.4199999869
0.4300000072
0.4399999976
0.4499999881
0.4600000083
0.4699999988
0.4799999893
0.4900000095
0.5
0.5099999905
0.5199999809
0.5299999714
0.5400000215
0.5500000119
0.5600000024
0.5699999928
0.5799999833
0.5899999738
0.6000000238
0.6100000143
0.6200000048
0.6299999952
0.6399999857
0.6499999762
0.6600000262
0.6700000167
0.6800000072
0.6899999976
0.6999999881
0.7099999785
0.7200000286
0.7300000191
0.7400000095
0.75
0.7599999905
0.7699999809
0.7799999714
0.7900000215
0.8000000119
0.8100000024
0.8199999928
0.8299999833
0.8399999738
0.8500000238
0.8600000143
0.8700000048
0.8799999952
0.8899999857
0.8999999762
0.9100000262
0.9200000167
0.9300000072
0.9399999976
0.9499999881
0.9599999785
0.9700000286
0.9800000191
0.9900000095
1
)


101
(
0
0.009999999776
0.01999999955
0.02999999933
0.03999999911
0.05000000075
0.05999999866
0.0700000003
0.07999999821
0.09000000358
0.1000000015
0.1099999994
0.1199999973
0.1299999952
0.1400000006
0.150000006
0.1599999964
0.1700000018
0.1800000072
0.1899999976
0.200000003
0.2099999934
0.2199999988
0.2300000042
0.2399999946
0.25
0.2599999905
0.2700000107
0.2800000012
0.2899999917
0.3000000119
0.3100000024
0.3199999928
0.3300000131
0.3400000036
0.349999994
0.3600000143
0.3700000048
0.3799999952
0.3899999857
0.400000006
0.4099999964
0.4199999869
0.4300000072
0.4399999976
0.4499999881
0.4600000083
0.4699999988
0.4799999893
0.4900000095
0.5
0.5099999905
0.5199999809
0.5299999714
0.5400000215
0.5500000119
0.5600000024
0.5699999928
0.5799999833
0.5899999738
0.6000000238
0.6100000143
0.6200000048
0.6299999952
0.6399999857
0.6499999762
0.6600000262
0.6700000167
0.6800000072
0.6899999976
0.6999999881
0.7099999785
0.7200000286
0.7300000191
0.7400000095
0.75
0.7599999905
0.7699999809
0.7799999714
0.7900000215
0.8000000119
0.8100000024
0.8199999928
0.8299999833
0.8399999738
0.8500000238
0.8600000143
0.8700000048
0.8799999952
0.8899999857
0.8999999762
0.9100000262
0.9200000167
0.9300000072
0.9399999976
0.9499999881
0.9599999785
0.9700000286
0.9800000191
0.9900000095
1
)


101
(
0
0.009999999776
0.01999999955
0.02999999933
0.03999999911
0.05000000075
0.05999999866
0.0700000003
0.07999999821
0.09000000358
0.1000000015
0.1099999994
0.1199999973
0.1299999952
0.1400000006
0.150000006
0.1599999964
0.1700000018
0.1800000072
0.1899999976
0.200000003
0.2099999934
0.2199999988
0.2300000042
0.2399999946
0.25
0.2599999905
0.2700000107
0.2800000012
0.2899999917
0.3000000119
0.3100000024
0.3199999928
0.3300000131
0.3400000036
0.349999994
0.3600000143
0.3700000048
0.3799999952
0.3899999857
0.400000006
0.4099999964
0.4199999869
0.4300000072
0.4399999976
0.4499999881
0.4600000083
0.4699999988
0.4799999893
0.4900000095
0.5
0.5099999905
0.5199999809
0.5299999714
0.5400000215
0.5500000119
0.5600000024
0.5699999928
0.5799999833
0.5899999738
0.6000000238
0.6100000143
0.6200000048
0.6299999952
0.6399999857
0.6499999762
0.6600000262
0.6700000167
0.6800000072
0.6899999976
0.6999999881
0.7099999785
0.7200000286
0.7300000191
0.7400000095
0.75
0.7599999905
0.7699999809
0.7799999714
0.7900000215
0.8000000119
0.8100000024
0.8199999928
0.8299999833
0.8399999738
0.8500000238
0.8600000143
0.8700000048
0.8799999952
0.8899999857
0.8999999762
0.9100000262
0.9200000167
0.9300000072
0.9399999976
0.9499999881
0.9599999785
0.9700000286
0.9800000191
0.9900000095
1
)


101
(
0
0.009999999776
0.01999999955
0.02999999933
0.03999999911
0.05000000075
0.05999999866
0.0700000003
0.07999999821
0.09000000358
0.1000000015
0.1099999994
0.1199999973
0.1299999952
0.1400000006
0.150000006
0.1599999964
0.1700000018
0.1800000072
0.1899999976
0.200000003
0.2099999934
0.2199999988
0.2300000042
0.2399999946
0.25
0.2599999905
0.2700000107
0.2800000012
0.2899999917
0.3000000119
0.3100000024
0.3199999928
0.3300000131
0.3400000036
0.349999994
0.3600000143
0.3700000048
0.3799999952
0.3899999857
0.400000006
0.4099999964
0.4199999869
0.4300000072
0.4399999976
0.4499999881
0.4600000083
0.4699999988
0.4799999893
0.4900000095
0.5
0.5099999905
0.5199999809
0.5299999714
0.5400000215
0.5500000119
0.5600000024
0.5699999928
0.5799999833
0.5899999738
0.6000000238
0.6100000143
0.6200000048
0.6299999952
0.6399999857
0.6499999762
0.6600000262
0.6700000167
0.6800000072
0.6899999976
0.6999999881
0.7099999785
0.7200000286
0.7300000191
0.7400000095
0.75
0.7599999905
0.7699999809
0.7799999714
0.7900000215
0.8000000119
0.8100000024
0.8199999928
0.8299999833
0.8399999738
0.8500000238
0.8600000143
0.8700000048
0.8799999952
0.8899999857
0.8999999762
0.9100000262
0.9200000167
0.9300000072
0.9399999976
0.9499999881
0.9599999785
0.9700000286
0.9800000191
0.9900000095
1
)


101
(
0
0.009999999776
0.01999999955
0.02999999933
0.03999999911
0.05000000075
0.05999999866
0.0700000003
0.07999999821
0.09000000358
0.1000000015
0.1099999994
0.1199999973
0.1299999952
0.1400000006
0.150000006
0.1599999964
0.1700000018
0.1800000072
0.1899999976
0.200000003
0.2099999934
0.2199999988
0.2300000042
0.2399999946
0.25
0.2599999905
0.2700000107
0.2800000012
0.2899999917
0.3000000119
0.3100000024
0.3199999928
0.3300000131
0.3400000036
0.349999994
0.3600000143
0.3700000048
0.3799999952
0.3899999857
0.400000006
0.4099999964
0.4199999869
0.4300000072
0.4399999976
0.4499999881
0.4600000083
0.4699999988
0.4799999893
0.4900000095
0.5
0.5099999905
0.5199999809
0.5299999714
0.5400000215
0.5500000119
0.5600000024
0.5699999928
0.5799999833
0.5899999738
0.6000000238
0.6100000143
0.6200000048
0.6299999952
0.6399999857
0.6499999762
0.6600000262
0.6700000167
0.6800000072
0.6899999976
0.6999999881
0.7099999785
0.7200000286
0.7300000191
0.7400000095
0.75
0.7599999905
0.7699999809
0.7799999714
0.7900000215
0.8000000119
0.8100000024
0.8199999928
0.8299999833
0.8399999738
0.8500000238
0.8600000143
0.8700000048
0.8799999952
0.8899999857
0.8999999762
0.9100000262
0.9200000167
0.9300000072
0.9399999976
0.9499999881
0.9599999785
0.9700000286
0.9800000191
0.9900000095
1
)


101
(
0
0.009999999776
0.01999999955
0.02999999933
0.03999999911
0.05000000075
0.05999999866
0.0700000003
0.07999999821
0.09000000358
0.1000000015
0.1099999994
0.1199999973
0.1299999952
0.1400000006
0.150000006
0.1599999964
0.1700000018
0.1800000072
0.1899999976
0.200000003
0.2099999934
0.2199999988
0.2300000042
0.2399999946
0.25
0.2599999905
0.2700000107
0.2800000012
0.2899999917
0.3000000119
0.3100000024
0.3199999928
0.3300000131
0.3400000036
0.349999994
0.3600000143
0.3700000048
0.3799999952
0.3899999857
0.400000006
0.4099999964
0.4199999869
0.4300000072
0.4399999976
0.4499999881
0.4600000083
0.4699999988
0.4799999893
0.4900000095
0.5
0.5099999905
0.5199999809
0.5299999714
0.5400000215
0.5500000119
0.5600000024
0.5699999928
0.5799999833
0.5899999738
0.6000000238
0.6100000143
0.6200000048
0.6299999952
0.6399999857
0.6499999762
0.6600000262
0.6700000167
0.6800000072
0.6899999976
0.6999999881
0.7099999785
0.7200000286
0.7300000191
0.7400000095
0.75
0.7599999905
0.7699999809
0.7799999714
0.7900000215
0.8000000119
0.8100000024
0.8199999928
0.8299999833
0.8399999738
0.8500000238
0.8600000143
0.8700000048
0.8799999952
0.8899999857
0.8999999762
0.9100000262
0.9200000167
0.9300000072
0.9399999976
0.9499999881
0.9599999785
0.9700000286
0.9800000191
0.9900000095
1
)


101
(
0
0.009999999776
0.01999999955
0.02999999933
0.03999999911
0.05000000075
0.05999999866
0.0700000003
0.07999999821
0.09000000358
0.1000000015
0.1099999994
0.1199999973
0.1299999952
0.1400000006
0.150000006
0.1599999964
0.1700000018
0.1800000072
0.1899999976
0.200000003
0.2099999934
0.2199999988
0.2300000042
0.2399999946
0.25
0.2599999905
0.2700000107
0.2800000012
0.2899999917
0.3000000119
0.3100000024
0.3199999928
0.3300000131
0.3400000036
0.349999994
0.3600000143
0.3700000048
0.3799999952
0.3899999857
0.400000006
0.4099999964
0.4199999869
0.4300000072
0.4399999976
0.4499999881
0.4600000083
0.4699999988
0.4799999893
0.4900000095
0.5
0.5099999905
0.5199999809
0.5299999714
0.5400000215
0.5500000119
0.5600000024
0.5699999928
0.5799999833
0.5899999738
0.6000000238
0.6100000143
0.6200000048
0.6299999952
0.6399999857
0.6499999762
0.6600000262
0.6700000167
0.6800000072
0.6899999976
0.6999999881
0.7099999785
0.7200000286
0.7300000191
0.7400000095
0.75
0.7599999905
0.7699999809
0.7799999714
0.7900000215
0.8000000119
0.8100000024
0.8199999928
0.8299999833
0.8399999738
0.8500000238
0.8600000143
0.8700000048
0.8799999952
0.8899999857
0.8999999762
0.9100000262
0.9200000167
0.9300000072
0.9399999976
0.9499999881
0.9599999785
0.9700000286
0.9800000191
0.9900000095
1
)


101
(
0
0.009999999776
0.01999999955
0.02999999933
0.03999999911
0.05000000075
0.05999999866
0.0700000003
0.07999999821
0.09000000358
0.1000000015
0.1099999994
0.1199999973
0.1299999952
0.1400000006
0.150000006
0.1599999964
0.1700000018
0.1800000072
0.1899999976
0.200000003
0.2099999934
0.2199999988
0.2300000042
0.2399999946
0.25
0.2599999905
0.2700000107
0.2800000012
0.2899999917
0.3000000119
0.3100000024
0.3199999928
0.3300000131
0.3400000036
0.349999994
0.3600000143
0.3700000048
0.3799999952
0.3899999857
0.400000006
0.4099999964
0.4199999869
0.4300000072
0.4399999976
0.4499999881
0.4600000083
0.4699999988
0.4799999893
0.4900000095
0.5
0.5099999905
0.5199999809
0.5299999714
0.5400000215
0.5500000119
0.5600000024
0.5699999928
0.5799999833
0.5899999738
0.6000000238
0.6100000143
0.6200000048
0.6299999952
0.6399999857
0.6499999762
0.6600000262
0.6700000167
0.6800000072
0.6899999976
0.6999999881
0.7099999785
0.7200000286
0.7300000191
0.7400000095
0.75
0.7599999905
0.7699999809
0.7799999714
0.7900000215
0.8000000119
0.8100000024
0.8199999928
0.8299999833
0.8399999738
0.8500000238
0.8600000143
0.8700000048
0.8799999952
0.8899999857
0.8999999762
0.9100000262
0.9200000167
0.9300000072
0.9399999976
0.9499999881
0.9599999785
0.9700000286
0.9800000191
0.9900000095
1
)


101
(
0
0.009999999776
0.01999999955
0.02999999933
0.03999999911
0.05000000075
0.05999999866
0.0700000003
0.07999999821
0.09000000358
0.1000000015
0.1099999994
0.1199999973
0.1299999952
0.1400000006
0.150000006
0.1599999964
0.1700000018
0.1800000072
0.1899999976
0.200000003
0.2099999934
0.2199999988
0.2300000042
0.2399999946
0.25
0.2599999905
0.2700000107
0.2800000012
0.2899999917
0.3000000119
0.3100000024
0.3199999928
0.3300000131
0.3400000036
0.349999994
0.3600000143
0.3700000048
0.3799999952
0.3899999857
0.400000006
0.4099999964
0.4199999869
0.4300000072
0.4399999976
0.4499999881
0.4600000083
0.4699999988
0.4799999893
0.4900000095
0.5
0.5099999905
0.5199999809
0.5299999714
0.5400000215
0.5500000119
0.5600000024
0.5699999928
0.5799999833
0.5899999738
0.6000000238
0.6100000143
0.6200000048
0.6299999952
0.6399999857
0.6499999762
0.6600000262
0.6700000167
0.6800000072
0.6899999976
0.6999999881
0.7099999785
0.7200000286
0.7300000191
0.7400000095
0.75
0.7599999905
0.7699999809
0.7799999714
0.7900000215
0.8000000119
0.8100000024
0.8199999928
0.8299999833
0.8399999738
0.8500000238
0.8600000143
0.8700000048
0.8799999952
0.8899999857
0.8999999762
0.9100000262
0.9200000167
0.9300000072
0.9399999976
0.9499999881
0.9599999785
0.9700000286
0.9800000191
0.9900000095
1
)


101
(
0
0.009999999776
0.01999999955
0.02999999933
0.03999999911
0.05000000075
0.05999999866
0.0700000003
0.07999999821
0.09000000358
0.1000000015
0.1099999994
0.1199999973
0.1299999952
0.1400000006
0.150000006
0.1599999964
0.1700000018
0.1800000072
0.1899999976
0.200000003
0.2099999934
0.2199999988
0.2300000042
0.2399999946
0.25
0.2599999905
0.2700000107
0.2800000012
0.2899999917
0.3000000119
0.3100000024
0.3199999928
0.3300000131
0.3400000036
0.349999994
0.3600000143
0.3700000048
0.3799999952
0.3899999857
0.400000006
0.4099999964
0.4199999869
0.4300000072
0.4399999976
0.4499999881
0.4600000083
0.4699999988
0.4799999893
0.4900000095
0.5
0.5099999905
0.5199999809
0.5299999714
0.5400000215
0.5500000119
0.5600000024
0.5699999928
0.5799999833
0.5899999738
0.6000000238
0.6100000143
0.6200000048
0.6299999952
0.6399999857
0.6499999762
0.6600000262
0.6700000167
0.6800000072
0.6899999976
0.6999999881
0.7099999785
0.7200000286
0.7300000191
0.7400000095
0.75
0.7599999905
0.7699999809
0.7799999714
0.7900000215
0.8000000119
0.8100000024
0.8199999928
0.8299999833
0.8399999738
0.8500000238
0.8600000143
0.8700000048
0.8799999952
0.8899999857
0.8999999762
0.9100000262
0.9200000167
0.9300000072
0.9399999976
0.9499999881
0.9599999785
0.9700000286
0.9800000191
0.9900000095
1
)


101
(
0
0.009999999776
0.01999999955
0.02999999933
0.03999999911
0.05000000075
0.05999999866
0.0700000003
0.07999999821
0.09000000358
0.1000000015
0.1099999994
0.1199999973
0.1299999952
0.1400000006
0.150000006
0.1599999964
0.1700000018
0.1800000072
0.1899999976
0.200000003
0.2099999934
0.2199999988
0.2300000042
0.2399999946
0.25
0.2599999905
0.2700000107
0.2800000012
0.2899999917
0.3000000119
0.3100000024
0.3199999928
0.3300000131
0.3400000036
0.349999994
0.3600000143
0.3700000048
0.3799999952
0.3899999857
0.400000006
0.4099999964
0.4199999869
0.4300000072
0.4399999976
0.4499999881
0.4600000083
0.4699999988
0.4799999893
0.4900000095
0.5
0.5099999905
0.5199999809
0.5299999714
0.5400000215
0.5500000119
0.5600000024
0.5699999928
0.5799999833
0.5899999738
0.6000000238
0.6100000143
0.6200000048
0.6299999952
0.6399999857
0.6499999762
0.6600000262
0.6700000167
0.6800000072
0.6899999976
0.6999999881
0.7099999785
0.7200000286
0.7300000191
0.7400000095
0.75
0.7599999905
0.7699999809
0.7799999714
0.7900000215
0.8000000119
0.8100000024
0.8199999928
0.8299999833
0.8399999738
0.8500000238
0.8600000143
0.8700000048
0.8799999952
0.8899999857
0.8999999762
0.9100000262
0.9200000167
0.9300000072
0.9399999976
0.9499999881
0.9599999785
0.9700000286
0.9800000191
0.9900000095
1
)


101
(
0
0.009999999776
0.01999999955
0.02999999933
0.03999999911
0.05000000075
0.05999999866
0.0700000003
0.07999999821
0.09000000358
0.1000000015
0.1099999994
0.1199999973
0.1299999952
0.1400000006
0.150000006
0.1599999964
0.1700000018
0.1800000072
0.1899999976
0.200000003
0.2099999934
0.2199999988
0.2300000042
0.2399999946
0.25
0.2599999905
0.2700000107
0.2800000012
0.2899999917
0.3000000119
0.3100000024
0.3199999928
0.3300000131
0.3400000036
0.349999994
0.3600000143
0.3700000048
0.3799999952
0.3899999857
0.400000006
0.4099999964
0.4199999869
0.4300000072
0.4399999976
0.4499999881
0.4600000083
0.4699999988
0.4799999893
0.4900000095
0.5
0.5099999905
0.5199999809
0.5299999714
0.5400000215
0.5500000119
0.5600000024
0.5699999928
0.5799999833
0.5899999738
0.6000000238
0.6100000143
0.6200000048
0.6299999952
0.6399999857
0.6499999762
0.6600000262
0.6700000167
0.6800000072
0.6899999976
0.6999999881
0.7099999785
0.7200000286
0.7300000191
0.7400000095
0.75
0.7599999905
0.7699999809
0.7799999714
0.7900000215
0.8000000119
0.8100000024
0.8199999928
0.8299999833
0.8399999738
0.8500000238
0.8600000143
0.8700000048
0.8799999952
0.8899999857
0.8999999762
0.9100000262
0.9200000167
0.9300000072
0.9399999976
0.9499999881
0.9599999785
0.9700000286
0.9800000191
0.9900000095
1
)


101
(
0
0.009999999776
0.01999999955
0.02999999933
0.03999999911
0.05000000075
0.05999999866
0.0700000003
0.07999999821
0.09000000358
0.1000000015
0.1099999994
0.1199999973
0.1299999952
0.1400000006
0.150000006
0.1599999964
0.1700000018
0.1800000072
0.1899999976
0.200000003
0.2099999934
0.2199999988
0.2300000042
0.2399999946
0.25
0.2599999905
0.2700000107
0.2800000012
0.2899999917
0.3000000119
0.3100000024
0.3199999928
0.3300000131
0.3400000036
0.349999994
0.3600000143
0.3700000048
0.3799999952
0.3899999857
0.400000006
0.4099999964
0.4199999869
0.4300000072
0.4399999976
0.4499999881
0.4600000083
0.4699999988
0.4799999893
0.4900000095
0.5
0.5099999905
0.5199999809
0.5299999714
0.5400000215
0.5500000119
0.5600000024
0.5699999928
0.5799999833
0.5899999738
0.6000000238
0.6100000143
0.6200000048
0.6299999952
0.6399999857
0.6499999762
0.6600000262
0.6700000167
0.6800000072
0.6899999976
0.6999999881
0.7099999785
0.7200000286
0.7300000191
0.7400000095
0.75
0.7599999905
0.7699999809
0.7799999714
0.7900000215
0.8000000119
0.8100000024
0.8199999928
0.8299999833
0.8399999738
0.8500000238
0.8600000143
0.8700000048
0.8799999952
0.8899999857
0.8999999762
0.9100000262
0.9200000167
0.9300000072
0.9399999976
0.9499999881
0.9599999785
0.9700000286
0.9800000191
0.9900000095
1
)


101
(
0
0.009999999776
0.01999999955
0.02999999933
0.03999999911
0.05000000075
0.05999999866
0.0700000003
0.07999999821
0.09000000358
0.1000000015
0.1099999994
0.1199999973
0.1299999952
0.1400000006
0.150000006
0.1599999964
0.1700000018
0.1800000072
0.1899999976
0.200000003
0.2099999934
0.2199999988
0.2300000042
0.2399999946
0.25
0.2599999905
0.2700000107
0.2800000012
0.2899999917
0.3000000119
0.3100000024
0.3199999928
0.3300000131
0.3400000036
0.349999994
0.3600000143
0.3700000048
0.3799999952
0.3899999857
0.400000006
0.4099999964
0.4199999869
0.4300000072
0.4399999976
0.4499999881
0.4600000083
0.4699999988
0.4799999893
0.4900000095
0.5
0.5099999905
0.5199999809
0.5299999714
0.5400000215
0.5500000119
0.5600000024
0.5699999928
0.5799999833
0.5899999738
0.6000000238
0.6100000143
0.6200000048
0.6299999952
0.6399999857
0.6499999762
0.6600000262
0.6700000167
0.6800000072
0.6899999976
0.6999999881
0.7099999785
0.7200000286
0.7300000191
0.7400000095
0.75
0.7599999905
0.7699999809
0.7799999714