/*--------------------------------*- C++ -*----------------------------------*\
| =========                 |                                                 |
| \\      /  F ield         | OpenFOAM: The Open Source CFD Toolbox           |
|  \\    /   O peration     | Version:  2.3.1                                 |
|   \\  /    A nd           | Web:      www.OpenFOAM.org                      |
|    \\/     M anipulation  |                                                 |
\*---------------------------------------------------------------------------*/
FoamFile
{
    version     2.0;
    format      ascii;
    class       dictionary;
    location    "constant";
    object      la_i18;
}
// * * * * * * * * * * * * * * * * * * * * * * * * * * * * * * * * * * * * * //

la_i18_table
101
(

101
(
0
0
0
0
0
0
0
0
0
0
0
0
0
0
0
0
0
0
0
0
0
0
0
0
0
0
0
0
0
0
0
0
0
0
0
0
0
0
0
0
0
0
0
0
0
0
0
0
0
0
0
0
0
0
0
0
0
0
0
0
0
0
0
0
0
0
0
0
0
0
0
0
0
0
0
0
0
0
0
0
0
0
0
0
0
0
0
0
0
0
0
0
0
0
0
0
0
0
0
0
0.2042399742
)


101
(
0
1.034901347e-05
-0.0002483129071
-0.001809873272
-0.007041504466
-0.0191237078
-0.04188079184
-0.08069210163
-0.1409365012
-0.2292936759
-0.3528086254
-0.5191252961
-0.738545575
-1.014865821
-1.357683698
-1.775633491
-2.269449248
-2.811271892
-3.460567093
-4.086520427
-4.759977171
-5.484670931
-6.093917702
-6.596475138
-7.018796115
-7.333530639
-7.534256574
-7.623046046
-7.558797993
-7.338881055
-6.946616559
-6.379811658
-5.671358827
-4.653295624
-3.389190042
-1.910085786
-1.413906062
-2.233704935
-1.547564588
0.1494238784
2.159697675
4.258139571
6.331148894
8.3469134
10.31678176
12.23240985
14.09735319
15.87507988
17.54579331
19.07339557
20.4487369
21.65888621
22.70847361
23.6122168
24.36367212
24.95625053
25.36708768
25.6209772
25.70925676
25.64638441
25.43178159
25.08180774
24.61168119
24.03089558
23.34486801
22.56450986
21.70722758
20.78713603
19.81595422
18.80400891
17.75989065
16.71113353
15.72015544
14.86140026
14.06899951
12.95617433
11.46181083
10.31905169
9.603381351
8.715616898
7.638693038
6.641099593
6.030821792
5.686231602
4.10869569
3.565882952
3.348454006
2.628699918
2.094537965
2.11677146
1.113501377
0.9426985931
0.8059676507
0.3902320849
0.235557019
0.06805658503
0.03900938477
0.04421267307
0.04925197053
0.05751922098
0.06552988734
)


101
(
0
-8.465221452e-06
-0.000270898482
-0.001763597335
-0.006677462783
-0.01788437736
-0.03881194623
-0.07411035107
-0.1282995337
-0.2069553486
-0.3157884037
-0.4610235514
-0.6511112104
-0.8884538614
-1.180462392
-1.534153871
-1.948825027
-2.398743161
-2.930843735
-3.445936934
-3.992589155
-4.58130768
-5.092449388
-5.512166002
-5.865071217
-6.155902403
-6.376427696
-6.534400786
-6.609684314
-6.594966491
-6.478740028
-6.24595597
-5.890532754
-5.318983899
-4.497893178
-3.464774229
-2.900716905
-3.133579762
-3.031428934
-2.198717187
-0.8724360924
0.6876259415
2.258691574
3.758575858
5.206435875
6.618013415
8.020364085
9.404393924
10.73865462
11.98914718
13.13179977
14.14762965
15.03399721
15.81492515
16.50650998
17.10919537
17.60343149
17.98448928
18.24808494
18.40070281
18.43674046
18.362695
18.18999564
17.92569604
17.5759213
17.14387711
16.63864809
16.07121785
15.45441994
14.80132421
14.10780772
13.3699691
12.61675508
11.98157199
11.58788486
11.10402723
9.961470044
8.642826725
7.98313579
7.561083022
6.82658282
5.954954946
5.291446024
5.137248331
4.594443041
3.336431838
2.947324196
2.753512815
2.151303451
1.768804429
1.648139382
0.9405780414
0.8911249897
0.6978066122
0.2779641223
0.1737152935
0.131029337
0.1435449943
0.1551862462
0.1665979167
0.1780619611
)


101
(
0
-2.610507597e-05
-0.0002946906348
-0.001723349716
-0.006333822593
-0.01673269012
-0.03599899614
-0.0681389018
-0.1169613623
-0.1870730851
-0.2831998623
-0.4104705284
-0.5757941127
-0.7808075228
-1.031383644
-1.333224894
-1.685765257
-2.065878284
-2.509436922
-2.941850363
-3.396556144
-3.895185866
-4.340675689
-4.720420026
-5.044102882
-5.338879903
-5.605731167
-5.854843065
-6.079551145
-6.271241119
-6.424618653
-6.526710567
-6.549310833
-6.418467126
-6.065323212
-5.437827109
-5.134123058
-5.250834911
-5.414601301
-5.233450019
-4.589233669
-3.606258628
-2.505121159
-1.432525359
-0.4274586914
0.5371486815
1.523958879
2.542233898
3.579405478
4.598909879
5.572136774
6.469121396
7.272741285
7.99907828
8.677841441
9.314110523
9.914511697
10.45360747
10.92136317
11.32198283
11.63988468
11.87373308
12.02832004
12.10776524
12.11947853
12.06655188
11.94479358
11.7610707
11.51655197
11.23557323
10.92926493
10.57972107
10.1440904
9.661415699
9.344669627
9.247844018
8.842869726
7.846268066
6.962648838
6.610390366
6.291409065
5.690866692
5.002812976
4.564520065
4.422948061
3.891852624
2.850447024
2.685325242
2.417710512
2.008085429
1.768839372
1.457507013
1.011691168
0.8707757209
0.4380029049
0.3298131044
0.3227197091
0.3308675451
0.3342869073
0.3267092907
0.3066232852
)


101
(
0
-4.490900351e-05
-0.0003197923548
-0.001688967046
-0.006017228471
-0.01566875611
-0.03341814988
-0.06271879637
-0.1067743527
-0.1693803998
-0.2544947705
-0.3663118674
-0.5109381768
-0.6890862216
-0.905772872
-1.166203619
-1.469701051
-1.79660464
-2.173319389
-2.546141985
-2.934105334
-3.36538738
-3.776334419
-4.136039299
-4.456272053
-4.766122215
-5.086231589
-5.42719314
-5.79312682
-6.177518801
-6.576943643
-6.986470271
-7.367768115
-7.663385661
-7.787628497
-7.686879416
-7.645053517
-7.871360171
-8.267118449
-8.568212066
-8.537597655
-8.147306229
-7.543850202
-6.885229647
-6.274081741
-5.720101472
-5.146855345
-4.499356733
-3.770148407
-3.008105012
-2.228865904
-1.466632266
-0.7485064821
-0.08004620925
0.571269979
1.22470524
1.879520194
2.529694422
3.152752814
3.763091746
4.331051224
4.844319116
5.305448128
5.7096116
6.063476649
6.379655918
6.64519998
6.856311865
7.005093676
7.104538146
7.194665406
7.271095422
7.275131487
7.129553698
6.93456204
6.936441219
7.042753207
6.755513531
6.059861697
5.551650451
5.435306728
5.250995014
4.767391207
4.278439015
4.001170727
3.843019452
3.303951042
2.638039977
2.515221309
2.17643244
1.841004446
1.65947686
1.280317057
1.097338342
0.6766027957
0.5243775754
0.4802219901
0.454188549
0.4341271972
0.550041223
0.6957697483
)


101
(
0
-6.323782463e-05
-0.000345199349
-0.001660149727
-0.005725859432
-0.01468596357
-0.0310479607
-0.05779686327
-0.0976165194
-0.1536361013
-0.229189895
-0.3277907928
-0.4547620218
-0.6105233214
-0.7989894516
-1.02557724
-1.290267522
-1.576013861
-1.901024226
-2.227828584
-2.56885969
-2.951681656
-3.336472171
-3.689817999
-4.019634116
-4.352856915
-4.72516498
-5.150808101
-5.636360981
-6.188655887
-6.80292034
-7.478414648
-8.188073911
-8.866389751
-9.430547252
-9.815383926
-10.14279945
-10.60143643
-11.24178869
-11.929114
-12.45049572
-12.65665867
-12.580804
-12.36713209
-12.14118619
-11.97006619
-11.80201925
-11.56203675
-11.20851866
-10.76290875
-10.24353252
-9.685782058
-9.122333038
-8.566904811
-8.006621392
-7.402075719
-6.764578751
-6.088749823
-5.406143732
-4.686836522
-3.952631523
-3.243225781
-2.544757032
-1.875306265
-1.235980657
-0.6109446156
-0.00751524205
0.5716629235
1.116603015
1.597749961
2.075464238
2.564678731
3.034110029
3.362938893
3.52133063
3.695673963
4.065869777
4.403475496
4.338524448
3.970859261
3.863683655
4.059335737
3.991375347
3.713923374
3.473331548
3.358673646
3.187046369
2.769850036
2.492422066
2.306768251
2.047895732
1.767364541
1.53778652
1.34149699
0.8885308984
0.6844315947
0.6587485364
0.7770945186
0.874810916
0.7600356788
0.5644067052
)


101
(
0
-8.051258797e-05
-0.0003717725054
-0.00163639861
-0.005457891592
-0.01377738882
-0.02887155468
-0.05332266572
-0.08937579483
-0.1396099991
-0.2068285344
-0.2940884197
-0.4060077503
-0.543039309
-0.7082627201
-0.9069299113
-1.140478444
-1.394085528
-1.68154263
-1.972834293
-2.278408287
-2.62797824
-2.995119308
-3.353930088
-3.698964228
-4.056217501
-4.465989662
-4.958307118
-5.546388817
-6.235270337
-7.026338527
-7.917376488
-8.89742237
-9.918374559
-10.88162357
-11.71548175
-12.44857106
-13.20671347
-14.10334069
-15.13008333
-16.12981977
-16.91583698
-17.41735703
-17.69367724
-17.88689254
-18.10152194
-18.33306441
-18.52136111
-18.59408718
-18.54000526
-18.3832118
-18.13354206
-17.81988309
-17.47949694
-17.10942212
-16.66113785
-16.13632595
-15.54647616
-14.90912652
-14.20659447
-13.44966384
-12.67219104
-11.86722889
-11.03829119
-10.20540591
-9.361770968
-8.51131844
-7.653021621
-6.782876491
-5.936516453
-5.09485416
-4.230157375
-3.343811569
-2.540120679
-1.903618672
-1.3548491
-0.7038607658
0.07077431965
0.7095822015
0.9348973518
1.019117121
1.460460963
1.910618564
2.079856999
2.123976139
2.210998045
2.309852883
2.285620871
2.041120143
2.074325538
1.962648067
1.81100555
1.609274881
1.438368945
0.9871234686
0.9294598158
0.9511888997
0.9167423191
0.8185020222
0.4150907975
-0.1065390873
)


101
(
0
-9.87173622e-05
-0.0003990439501
-0.001617440031
-0.00521194528
-0.01293849065
-0.02687021623
-0.04925053902
-0.08195194854
-0.1270872298
-0.1870528419
-0.264502442
-0.3636234367
-0.4848866708
-0.630880918
-0.8065159773
-1.014450246
-1.243056511
-1.499887563
-1.766935924
-2.04494669
-2.363339429
-2.719316346
-3.082361519
-3.440896296
-3.818999789
-4.259280297
-4.798292859
-5.458535829
-6.251847495
-7.182379552
-8.253151773
-9.453123296
-10.74887003
-12.06385896
-13.30411354
-14.44370956
-15.54821553
-16.7341256
-18.05663914
-19.46798897
-20.78537499
-21.87137385
-22.69775027
-23.35965539
-23.99455168
-24.64793158
-25.28429262
-25.82127617
-26.21066345
-26.48088396
-26.64088757
-26.70901095
-26.70106799
-26.63713679
-26.47377147
-26.19512082
-25.81491455
-25.35622436
-24.80386447
-24.1627011
-23.46426947
-22.7052817
-21.88410215
-21.00351221
-20.06967528
-19.0923587
-18.09122297
-17.03726043
-15.94857913
-14.82921833
-13.6531125
-12.42417985
-11.22523534
-10.14830213
-9.14596267
-8.099329889
-6.945948963
-5.759009828
-4.796887744
-4.148083856
-3.387548461
-2.469102475
-1.675500442
-1.117581716
-0.6135176062
-0.1084819124
0.3353953061
0.5186979197
0.7838933422
0.9761215219
1.073902992
1.152440062
1.116171929
0.8554147063
0.8511785213
0.8819811916
0.5499079832
-0.04046278161
-1.757102932
-4.208913513
)


101
(
0
-0.0001164877544
-0.0004265509297
-0.001602793525
-0.004986195789
-0.01216345846
-0.0250297361
-0.04554241161
-0.07525952455
-0.115901739
-0.1695466183
-0.2385187968
-0.3266476
-0.4343880203
-0.5641482388
-0.7206458892
-0.9071502809
-1.115281432
-1.349365752
-1.593979887
-1.852376208
-2.151138143
-2.492122847
-2.856170465
-3.230178566
-3.626549261
-4.086203181
-4.654569884
-5.360686278
-6.22345709
-7.251777
-8.450265765
-9.818992319
-11.33449963
-12.93615846
-14.53201865
-16.05844357
-17.52515008
-19.01501447
-20.62121635
-22.37712406
-24.15774319
-25.81789789
-27.2324001
-28.41856564
-29.50636821
-30.59402304
-31.69492494
-32.74113378
-33.64864771
-34.39426185
-35.01478954
-35.55912999
-36.00614149
-36.36704174
-36.62537599
-36.72419639
-36.68758522
-36.54841306
-36.29581801
-35.92999179
-35.47654498
-34.92245935
-34.28591906
-33.54641316
-32.70534775
-31.77756422
-30.78830311
-29.72203387
-28.55450014
-27.30963745
-25.95514218
-24.52818567
-23.08432709
-21.70086309
-20.34655573
-18.90975336
-17.36854234
-15.75048439
-14.17645147
-12.8509164
-11.5750111
-10.21303748
-8.768424836
-7.507269133
-6.387561983
-5.292350383
-4.270294104
-3.395720325
-2.673452048
-1.854706703
-1.283015105
-0.7764205197
-0.4324872502
-0.3406398042
0.007834679518
0.5355382481
-0.8996583808
-3.022442616
-7.533799419
-14.34631994
)


101
(
0
-0.0001334075211
-0.000455002919
-0.001592325023
-0.004779738733
-0.01144760006
-0.0233353781
-0.04216119546
-0.06921530883
-0.1058949741
-0.1540001901
-0.2156013493
-0.2943210319
-0.3906669344
-0.5067120448
-0.646939375
-0.8152964081
-1.006289678
-1.222395246
-1.450618808
-1.691956851
-1.969343754
-2.297143235
-2.661447986
-3.046024506
-3.453455657
-3.82162084
-4.498897635
-5.227172699
-6.127413002
-7.21497548
-8.503246909
-9.987732933
-11.65991697
-13.47813532
-15.36538053
-17.23782315
-19.0600019
-20.876058
-22.76222697
-24.79708584
-26.96573531
-29.12516834
-31.11997869
-32.88699037
-34.49034941
-36.04389566
-37.61073094
-39.1639609
-40.62093826
-41.92363674
-43.08310882
-44.13553796
-45.12058518
-46.02599256
-46.79331849
-47.4120401
-47.85129427
-48.16929014
-48.35571254
-48.41530103
-48.36986573
-48.19771345
-47.92919193
-47.53405379
-46.98431794
-46.28947195
-45.48270221
-44.57999574
-43.56068453
-42.42046552
-41.11882522
-39.66082822
-38.13533128
-36.63592552
-35.14232888
-33.49266039
-31.67353552
-29.75220432
-27.75908908
-25.87442158
-24.07543647
-22.24463105
-20.27513411
-18.26441529
-16.44651482
-14.6475165
-12.94805281
-11.28102574
-9.75788398
-8.159090411
-6.865346527
-5.640775412
-4.620668225
-3.941773642
-2.896828343
-1.671557136
-5.501157373
-10.63308599
-19.04813049
-25.68097612
)


101
(
0
-0.0001509258052
-0.0004835884529
-0.001585399586
-0.00459065681
-0.01078593349
-0.02177522234
-0.03907641152
-0.06375076781
-0.09693270819
-0.1401766196
-0.1953973969
-0.265887622
-0.3525689519
-0.4568960356
-0.5830471532
-0.7357172065
-0.9123351631
-1.111709227
-1.327600273
-1.555229443
-1.814668494
-2.126011893
-2.482329187
-2.870996035
-3.288452715
-3.757885195
-4.332025426
-5.057876505
-5.966270577
-7.077352502
-8.406318769
-9.965430127
-11.73231119
-13.69779087
-15.79946494
-17.95693129
-20.10605126
-22.24051311
-24.40936081
-26.69954836
-29.16946179
-31.73731191
-34.26914093
-36.61529969
-38.76530587
-40.81425559
-42.86934216
-44.91372021
-46.92294444
-48.81015199
-50.55990443
-52.19980779
-53.7517934
-55.23946197
-56.61816263
-57.85949796
-58.90016745
-59.79369646
-60.55427178
-61.16722544
-61.66269907
-62.02792572
-62.2859101
-62.40844134
-62.34798965
-62.11050525
-61.68960152
-61.14931227
-60.47344461
-59.65885181
-58.65016513
-57.43181694
-56.06465652
-54.66295262
-53.23461987
-51.63905999
-49.80908747
-47.78410536
-45.61383662
-43.43213425
-41.29758232
-39.09085176
-36.73063246
-34.154249
-31.7521473
-29.29774236
-26.83349513
-24.4273998
-21.98555383
-19.50979787
-17.34608575
-15.2357232
-13.25619008
-11.73272774
-9.776530994
-7.475383838
-14.77095344
-24.29860267
-38.6084299
-59.82735733
)


101
(
0
-0.0001680628473
-0.0005126148685
-0.001581893194
-0.004418081769
-0.01017483035
-0.02033718227
-0.03625704265
-0.05880269072
-0.08888927207
-0.1278649727
-0.17749239
-0.2408510705
-0.3190778325
-0.4133669384
-0.5273909238
-0.6664207632
-0.8291417344
-1.016311092
-1.218836284
-1.434494338
-1.680880459
-1.973761255
-2.319398633
-2.704486743
-3.123884501
-3.589659973
-4.148025845
-4.852497548
-5.742537909
-6.846145583
-8.176959214
-9.751489834
-11.56855991
-13.61284997
-15.8504462
-18.21483238
-20.6346633
-23.06191615
-25.50796763
-28.03467039
-30.73289171
-33.61860345
-36.58408558
-39.47968314
-42.20647616
-44.77078651
-47.2818248
-49.82870933
-52.37006194
-54.84383054
-57.19868202
-59.44016309
-61.60212695
-63.69275709
-65.72993383
-67.6428649
-69.37021511
-70.92703839
-72.35569649
-73.63640968
-74.78535994
-75.8007745
-76.69628554
-77.48073305
-78.09611527
-78.49959762
-78.67965573
-78.68307332
-78.53011757
-78.23968722
-77.75902013
-77.03729458
-76.08472356
-75.0107663
-73.86093525
-72.57453344
-71.05073402
-69.19299096
-67.13299783
-64.96439568
-62.76963985
-60.46749957
-57.92322289
-55.01698241
-52.28390418
-49.43338056
-46.39140856
-43.24541772
-40.21954753
-36.85494681
-33.89570451
-30.90864332
-28.04525573
-25.44115059
-22.31397053
-18.63267711
-31.39693453
-46.76221247
-63.84255358
-79.3953773
)


101
(
0
-0.0001845359604
-0.0005418869771
-0.001581393466
-0.004260684066
-0.009610422543
-0.01901080642
-0.03367766982
-0.05431761614
-0.0816564373
-0.116879298
-0.1615874918
-0.2187423397
-0.28956295
-0.3750303695
-0.4786864057
-0.6053106579
-0.7555735964
-0.9300876398
-1.122895079
-1.327598677
-1.557154926
-1.833146537
-2.16353324
-2.537876563
-2.949068438
-3.407018384
-3.945098109
-4.614626784
-5.463240892
-6.525538219
-7.827839974
-9.388746719
-11.19634721
-13.25751158
-15.55433977
-18.04057255
-20.65228547
-23.31896598
-26.01333467
-28.76504919
-31.66159169
-34.77081555
-38.0558239
-41.3981515
-44.64637236
-47.74330613
-50.74311056
-53.72590433
-56.75593671
-59.78970815
-62.75314782
-65.60948192
-68.37309818
-71.08588724
-73.76336069
-76.35240593
-78.80137965
-81.08251789
-83.22484857
-85.23537587
-87.11428688
-88.85516742
-90.4654815
-91.9800042
-93.37914744
-94.58089338
-95.53314167
-96.25569054
-96.76824581
-97.14126653
-97.35502526
-97.32529728
-97.02185279
-96.51333564
-95.85898352
-95.05749335
-94.05717037
-92.68576339
-91.02119178
-89.12732528
-87.12646624
-85.04046658
-82.5729506
-79.67269954
-76.91234585
-74.00493893
-70.79474615
-66.95710644
-63.57740911
-60.01695967
-56.36835594
-52.43222486
-48.79165387
-45.51109763
-41.34806786
-36.47630294
-53.05601339
-72.00127778
-88.84630477
-110.6242382
)


101
(
0
-0.0002012806443
-0.0005712717148
-0.00158359384
-0.004117294567
-0.009089024974
-0.01778651144
-0.03131418302
-0.0502445245
-0.07513909815
-0.1070557648
-0.1474473267
-0.1990731941
-0.2633935751
-0.341278849
-0.4356617769
-0.5510384121
-0.6897553705
-0.8522134256
-1.034092635
-1.22923785
-1.446106001
-1.703305486
-2.013906611
-2.372480527
-2.771349503
-3.214342636
-3.723021353
-4.346741125
-5.138522614
-6.13981936
-7.377276811
-8.873235615
-10.6412781
-12.6693693
-14.95409373
-17.47430535
-20.18523619
-23.0212535
-25.91312706
-28.86493146
-31.92513582
-35.18446502
-38.67482907
-42.33579508
-46.02821061
-49.61290798
-53.06822033
-56.49820782
-59.95677029
-63.46067512
-66.97499878
-70.43033573
-73.80037223
-77.10486258
-80.38394328
-83.62558287
-86.76491319
-89.77565582
-92.65488709
-95.41352295
-98.0383104
-100.5340787
-102.8909977
-105.1522798
-107.3441766
-109.3844198
-111.2067494
-112.748678
-114.0430482
-115.1555645
-116.1306216
-116.8855906
-117.372045
-117.6070888
-117.5966362
-117.3746695
-117.0207004
-116.2779593
-115.2176682
-113.8281147
-112.2017815
-110.5113299
-108.3911262
-105.712245
-103.1464191
-100.505525
-97.41301555
-93.50288052
-89.81367766
-86.31720905
-82.5162687
-77.95437242
-73.78504671
-70.06579529
-65.22636725
-58.72357378
-76.20172328
-94.68847883
-105.4805292
-121.3898314
)


101
(
0
-0.000217672175
-0.0006008434009
-0.001588250262
-0.003987019705
-0.008607743157
-0.01665519281
-0.02914531491
-0.04653781828
-0.06926113459
-0.09824318571
-0.1348017044
-0.1815754334
-0.2400955192
-0.3112725922
-0.3972623411
-0.50270676
-0.6299396632
-0.7816011692
-0.9524923496
-1.137699424
-1.340436525
-1.578657414
-1.866986253
-2.205931422
-2.585435992
-3.006015737
-3.48203563
-4.054201252
-4.775859605
-5.69506949
-6.850213697
-8.260379352
-9.932608981
-11.88176243
-14.09518583
-16.57392555
-19.29240172
-22.20182532
-25.22076136
-28.32047448
-31.51538147
-34.87600456
-38.4770951
-42.31989819
-46.30499411
-50.29602168
-54.19033471
-57.99655492
-61.83299509
-65.74412348
-69.69917734
-73.68299857
-77.6101228
-81.46914365
-85.31044828
-89.1419524
-92.90945561
-96.58710751
-100.1582029
-103.6303335
-106.9743062
-110.1893135
-113.26999
-116.2420518
-119.1398244
-121.9666365
-124.60817
-126.9978253
-129.0857775
-130.9264033
-132.6136206
-134.0950817
-135.3400445
-136.3561433
-137.0602212
-137.441425
-137.6377727
-137.4986317
-137.0590554
-136.2422616
-135.0456377
-133.7490615
-132.1261431
-129.7545032
-127.3623163
-125.1606106
-122.2513638
-118.7634406
-114.9457913
-111.5975211
-107.7498373
-103.485491
-98.83619771
-95.21707629
-89.67576003
-82.45553515
-97.30297236
-109.8506675
-107.7091986
-77.88546351
)


101
(
0
-0.0002336076092
-0.0006304070708
-0.001595043976
-0.003868737957
-0.008163369737
-0.01560894873
-0.02715165653
-0.04315784452
-0.0639458568
-0.09031530652
-0.1234871876
-0.1659112601
-0.2192440987
-0.284377427
-0.3628618211
-0.4591131976
-0.5759118309
-0.7155171835
-0.8761693787
-1.051247247
-1.240920375
-1.460683898
-1.723973071
-2.037856552
-2.394887278
-2.789215509
-3.231212951
-3.748303808
-4.391648865
-5.213238609
-6.25689828
-7.55470023
-9.110263724
-10.93594473
-13.02936246
-15.39959584
-18.04448851
-20.92590683
-23.98169005
-27.15500035
-30.43347694
-33.84893861
-37.48177379
-41.38904555
-45.53109147
-49.78639376
-54.01622073
-58.18067549
-62.31440955
-66.52153232
-70.84011495
-75.22670876
-79.62093896
-83.97044705
-88.28969261
-92.61375952
-96.91941284
-101.1593176
-105.324634
-109.3997914
-113.3737837
-117.2147592
-120.9266989
-124.5072199
-127.973606
-131.3940485
-134.6976931
-137.7836399
-140.5489802
-142.9959373
-145.234647
-147.2245229
-148.9829874
-150.5627163
-151.8555545
-152.7180343
-153.2412207
-153.4440127
-153.3431946
-152.9252724
-152.0639448
-150.9044822
-149.5801508
-147.5883143
-145.1675869
-143.1053679
-140.4337817
-137.2253345
-133.4366568
-130.2436392
-126.1144495
-122.5132759
-117.9948502
-114.4037865
-109.0773539
-102.4297057
-107.7864574
-107.3857184
-90.35467772
-80.15051401
)


101
(
0
-0.0002494634099
-0.0006595701791
-0.001603479391
-0.003761096282
-0.007752384923
-0.01463850236
-0.02531717867
-0.0400720877
-0.05912872156
-0.08317345158
-0.1133254705
-0.1518400198
-0.2004892011
-0.2601219645
-0.3321348536
-0.4196201897
-0.5263526817
-0.6547912752
-0.8036910998
-0.9677410165
-1.14643205
-1.346760445
-1.586591373
-1.871536878
-2.199748439
-2.563729576
-2.966821497
-3.428642435
-3.989897181
-4.703840094
-5.62367535
-6.786319259
-8.197636659
-9.865552791
-11.80041027
-14.01344095
-16.50223266
-19.26486128
-22.26347192
-25.42210833
-28.71448693
-32.13239307
-35.73864524
-39.60952795
-43.75972208
-48.12610176
-52.57374751
-56.98997297
-61.37327329
-65.79538321
-70.32578933
-74.99088001
-79.71982826
-84.44700242
-89.14258503
-93.82457586
-98.51767709
-103.1781408
-107.7838382
-112.3134438
-116.7503177
-121.0528704
-125.2197311
-129.2131849
-133.0631567
-136.8099815
-140.4644899
-143.9386484
-147.0788843
-149.8575151
-152.3400271
-154.5088917
-156.3584939
-158.010104
-159.4805085
-160.4608069
-160.9886999
-161.04064
-160.7472108
-160.2497588
-159.335898
-157.9036336
-156.3128083
-154.3533191
-151.7337797
-149.2326496
-146.5745162
-143.3618713
-139.538595
-136.2527218
-132.0567343
-128.5762143
-124.5824601
-120.9987621
-115.9215149
-108.9958885
-101.0343569
-83.88400367
-52.91823374
-7.333815481
)


101
(
0
-0.0002650014838
-0.0006888246031
-0.001613580669
-0.00366379469
-0.007373161527
-0.01373868641
-0.02362450302
-0.03724546363
-0.05475130597
-0.07671831759
-0.104161173
-0.1391769313
-0.1835651962
-0.2381716295
-0.3041355238
-0.3839308376
-0.4808453073
-0.5979378087
-0.7353499462
-0.8877821174
-1.053143975
-1.237583669
-1.452686824
-1.707901159
-2.002662099
-2.333743014
-2.698089017
-3.105603564
-3.585476949
-4.187267585
-4.973506017
-5.984875302
-7.231893302
-8.722800901
-10.45979245
-12.45911966
-14.74515645
-17.3190852
-20.1538828
-23.202972
-26.42310847
-29.77750168
-33.29607706
-37.05151712
-41.09437482
-45.41326436
-49.91464256
-54.4708917
-59.00245517
-63.54784
-68.18805511
-72.96953504
-77.87432413
-82.81587379
-87.73814512
-92.64561617
-97.5471407
-102.4184403
-107.2488689
-112.0176616
-116.6789937
-121.1994838
-125.5544854
-129.6950465
-133.6279134
-137.3663561
-140.9555075
-144.3645121
-147.4382477
-150.082942
-152.3288751
-154.1959015
-155.610659
-156.6833797
-157.6044454
-158.1311785
-158.0872245
-157.4222282
-156.2586271
-154.9310512
-153.2624919
-151.0631347
-148.5159301
-145.8796504
-142.7050056
-139.2426636
-135.9886022
-132.4481163
-128.3163761
-124.6538324
-120.4617827
-116.72882
-113.1853763
-109.6000083
-104.6584501
-97.96667302
-74.75023211
-41.07840575
-1.143447589
39.85470435
)


101
(
0
-0.0002801991729
-0.0007178427515
-0.00162491625
-0.003575595572
-0.007022975209
-0.01291346546
-0.02206017812
-0.0346505635
-0.05076042043
-0.07086570193
-0.0958838239
-0.1277207694
-0.1681814862
-0.2182122662
-0.2785800075
-0.3512987513
-0.4391100584
-0.5449178449
-0.670107734
-0.8106242294
-0.9630979173
-1.131997319
-1.323500551
-1.549714334
-1.81052103
-2.103141962
-2.424198099
-2.778903054
-3.18404128
-3.677786565
-4.323197366
-5.174502952
-6.232491114
-7.527810904
-9.046002214
-10.81202931
-12.84520354
-15.15337769
-17.7510661
-20.59940988
-23.65114122
-26.86724011
-30.23634698
-33.80629713
-37.64340168
-41.78075138
-46.16942638
-50.70263869
-55.27229278
-59.83980137
-64.45912517
-69.21216899
-74.10656918
-79.08548355
-84.05662082
-88.98557242
-93.88445135
-98.74623203
-103.5550036
-108.255961
-112.8440375
-117.2560228
-121.4419112
-125.3510584
-128.9723819
-132.2873425
-135.3349623
-138.1185343
-140.5349552
-142.4211086
-143.8114862
-144.7476497
-145.1126788
-144.9426722
-144.4998778
-143.7071732
-142.3428785
-140.3322639
-137.6394887
-134.6531649
-131.4519218
-127.8654824
-123.8071046
-119.6886066
-115.5078383
-110.8043293
-106.3837414
-102.1361809
-97.46976813
-93.23788375
-89.06593651
-85.0348538
-81.58587115
-78.1075689
-73.39169012
-67.15885354
-31.54293198
13.05404995
54.3343466
103.8063277
)


101
(
0
-0.0002950702735
-0.0007468516168
-0.001637033969
-0.003495349453
-0.006699569328
-0.01214218826
-0.02061329535
-0.03226392463
-0.04711569449
-0.06555231042
-0.08837676297
-0.1173457734
-0.1542188588
-0.1999461259
-0.2551757686
-0.3213728616
-0.4007287634
-0.4963267971
-0.6085994163
-0.7362458984
-0.8770726021
-1.030141654
-1.200463905
-1.396439985
-1.622204547
-1.875411573
-2.151390097
-2.454013683
-2.790379001
-3.18211138
-3.692413322
-4.368298631
-5.24051285
-6.322920706
-7.613900791
-9.10726086
-10.86007453
-12.8752477
-15.16746724
-17.7250393
-20.52263604
-23.50991835
-26.65598707
-29.98285554
-33.53714395
-37.37772811
-41.50099346
-45.84489699
-50.29141708
-54.75873518
-59.24681309
-63.8157819
-68.5159765
-73.31182134
-78.11999001
-82.86205189
-87.5167819
-92.0847163
-96.54915477
-100.8793047
-105.0250074
-108.9302392
-112.5269352
-115.7488411
-118.5721125
-120.9605584
-122.9246271
-124.479915
-125.5646139
-126.0172636
-125.8468898
-125.1075148
-123.7295319
-121.6713377
-119.1539446
-116.2237622
-112.7602039
-108.7137473
-103.9544876
-98.75744806
-93.43228152
-87.94739844
-82.03339012
-76.07801744
-70.483153
-64.5306656
-58.88388254
-53.78033987
-48.64480109
-44.06140841
-39.91506361
-36.05581718
-32.79842601
-29.69099739
-25.59527904
-20.32811558
21.13275114
67.41004121
102.0843877
136.1074433
)


101
(
0
-0.0003110403339
-0.0007741983324
-0.001650037858
-0.003422871207
-0.006401149453
-0.01142697687
-0.01927057233
-0.03005917276
-0.04376976065
-0.06070106302
-0.08154915269
-0.1079001191
-0.1414610106
-0.1832064028
-0.2336079158
-0.2936899222
-0.3653149648
-0.4506540604
-0.5515026933
-0.6668273843
-0.793615942
-0.9307838732
-1.081211883
-1.250217918
-1.441912917
-1.655679483
-1.887259031
-2.13625525
-2.406641107
-2.712075907
-3.084440746
-3.597844461
-4.277722216
-5.131589208
-6.186537273
-7.414739094
-8.865050511
-10.54569757
-12.48163565
-14.69435067
-17.16044922
-19.8336514
-22.6855393
-25.70473218
-28.91153195
-32.36761302
-36.10068135
-40.08876317
-44.24348741
-48.46000077
-52.67833585
-56.91996352
-61.23784993
-65.6357249
-70.03555241
-74.33690023
-78.48982383
-82.4695237
-86.26756916
-89.8336148
-93.12941428
-96.0863981
-98.62782207
-100.6689136
-102.1574962
-103.0647986
-103.3752682
-103.0917746
-102.2028709
-100.5702558
-98.16139265
-95.0615223
-91.28421245
-86.7735729
-81.67120335
-76.08450831
-69.96616196
-63.38162893
-56.25555521
-48.72993552
-41.1501301
-33.67172816
-26.00335488
-18.39764621
-11.52144178
-4.707009731
1.626932573
7.187072673
12.31454855
16.52868606
20.17383175
23.17611734
25.5662107
27.74169854
30.44488602
33.6071134
72.83414159
111.5004051
133.9589308
150.595162
)


101
(
0
-0.0003226029464
-0.000802058329
-0.001663265977
-0.003356622974
-0.006124814453
-0.0107615046
-0.01802469768
-0.02802081285
-0.04069259197
-0.05626627353
-0.07532180428
-0.09929539534
-0.1297844729
-0.167794389
-0.2136807846
-0.2681497786
-0.332492664
-0.4085107642
-0.4977048027
-0.6002158207
-0.7135765629
-0.8359217106
-0.9671727854
-1.110638751
-1.27047266
-1.444806448
-1.631419227
-1.828371743
-2.036158776
-2.262073326
-2.526928892
-2.874251917
-3.355846438
-4.001535424
-4.806108814
-5.770107523
-6.894075036
-8.246057967
-9.81333866
-11.63005558
-13.69174572
-15.9787433
-18.46394045
-21.10939188
-23.91584929
-26.91665035
-30.16316543
-33.65501389
-37.34770609
-41.14333338
-44.94155999
-48.70734827
-52.46678286
-56.23884711
-59.97894998
-63.57267842
-66.94517057
-70.02970699
-72.8101716
-75.24037633
-77.26203644
-78.81262264
-79.81351126
-80.17315556
-79.81910467
-78.71157558
-76.82977439
-74.17620743
-70.77027707
-66.52290775
-61.38925715
-55.46083688
-48.84565569
-41.54277773
-33.64855453
-25.28917342
-16.46139778
-7.337138596
2.028639997
11.52957654
20.8818739
29.81124822
38.56419698
46.99776843
54.3435425
61.12919061
67.10957298
72.10630528
76.27960121
79.07151477
81.31689961
82.52546335
83.10488335
83.47340687
83.85732342
83.52913406
113.6474198
138.3348732
146.7821003
146.0334536
)


101
(
0
-0.000337240296
-0.000829194569
-0.001676763729
-0.003296411685
-0.005869621637
-0.01014331881
-0.01686500353
-0.02612874684
-0.03784967584
-0.05218945721
-0.06962277818
-0.09142283885
-0.1190837692
-0.1535814117
-0.1952281331
-0.2445064807
-0.3020219408
-0.3695533724
-0.4477122093
-0.5374637247
-0.6375164828
-0.7453492462
-0.859309174
-0.9798855725
-1.109423457
-1.2475928
-1.391278756
-1.537953614
-1.687981004
-1.841478614
-2.003175378
-2.218743392
-2.517528893
-2.945439884
-3.502882737
-4.200849409
-5.031146679
-6.030829644
-7.214645693
-8.614214074
-10.24538925
-12.09708464
-14.1390837
-16.35471496
-18.70382588
-21.20444991
-23.87950837
-26.77219364
-29.85262323
-33.05459116
-36.26871041
-39.40155613
-42.43719958
-45.37797004
-48.20058174
-50.81179879
-53.11128956
-55.00165177
-56.43716229
-57.3672107
-57.72705053
-57.45089453
-56.4699946
-54.69804006
-52.0647904
-48.52134337
-44.04747206
-38.65460516
-32.39679505
-25.25076011
-17.19383528
-8.325275835
1.173416766
11.21075016
21.68454515
32.42944699
43.42130091
54.4710112
65.35954968
75.94254899
85.98989597
95.20180975
103.8103044
111.7256436
118.2181607
123.6047496
127.9077059
130.9864693
132.964702
133.2626369
133.1204345
131.6884884