/*--------------------------------*- C++ -*----------------------------------*\
| =========                 |                                                 |
| \\      /  F ield         | OpenFOAM: The Open Source CFD Toolbox           |
|  \\    /   O peration     | Version:  2.3.1                                 |
|   \\  /    A nd           | Web:      www.OpenFOAM.org                      |
|    \\/     M anipulation  |                                                 |
\*---------------------------------------------------------------------------*/
FoamFile
{
    version     2.0;
    format      ascii;
    class       dictionary;
    location    "constant";
    object      la_i4;
}
// * * * * * * * * * * * * * * * * * * * * * * * * * * * * * * * * * * * * * //

la_i4_table
101
(

101
(
0
0
0
0
0
0
0
0
0
0
0
0
0
0
0
0
0
0
0
0
0
0
0
0
0
0
0
0
0
0
0
0
0
0
0
0
0
0
0
0
0
0
0
0
0
0
0
0
0
0
0
0
0
0
0
0
0
0
0
0
0
0
0
0
0
0
0
0
0
0
0
0
0
0
0
0
0
0
0
0
0
0
0
0
0
0
0
0
0
0
0
0
0
0
0
0
0
0
0
0
-0.01461927721
)


101
(
0
-9.145594203
-2.236443789
-5.032415258
-8.338279223
-12.11435353
-17.05912985
-22.5536718
-28.19842684
-33.5404071
-38.13040838
-41.58211053
-43.70784653
-44.36044102
-43.57631398
-41.58179369
-38.63095094
-34.85618708
-31.07948115
-26.47232048
-21.92364061
-17.8803355
-13.98611072
-10.76779692
-7.844588438
-5.730517039
-4.096191639
-2.902456644
-1.991644009
-0.8411206105
0.814842928
2.549133063
3.395160071
3.498648328
2.701858596
1.508748997
1.053433363
1.793028041
3.315203265
4.861425348
5.437839843
5.10655068
4.310220829
3.266305245
2.48588093
2.164297519
2.214808207
2.505515589
2.893654952
2.978084571
2.592772912
1.672623914
0.6429884677
-0.07977676005
-0.2915368041
-0.1168360625
0.08289503063
0.1843394856
0.2095189898
0.2033368682
0.09072524262
-0.1542041184
-0.4457896937
-0.6547518467
-0.7346757434
-0.7788979337
-0.9231122664
-1.173929724
-1.407972314
-1.36100134
-0.7118757456
0.4870261892
1.372075671
0.9175648016
-0.7023684371
-1.746539321
-1.103822696
-0.01713431723
0.158110638
-0.4071505157
-0.6632351774
-0.06690286578
-0.1168334026
-0.2355976527
-0.2950667731
-0.08220709822
-0.04057564264
-0.07991118429
-0.0249133371
-0.08600261813
-0.07343855794
0.02847035875
-0.01600573165
-0.02146306834
0.03711873925
0.05171625173
-0.002322170143
-0.002625107493
-0.003070843283
-0.003744441274
-0.004684721646
)


101
(
0
-11.17598071
-3.931603977
-5.927145362
-8.241615378
-11.89258009
-16.41144081
-21.51663103
-26.82856801
-31.89800003
-36.26043561
-39.56579781
-41.62987983
-42.31655122
-41.64715747
-39.77898944
-36.9969987
-33.60801252
-30.01189053
-25.88916135
-21.12326679
-16.59588131
-12.31567859
-8.770364744
-5.902424247
-3.469663067
-1.781899005
-0.7925208859
-0.3280263631
0.3096889913
2.13102302
5.24025697
7.822034786
8.36902956
6.734447747
4.013241655
1.808007048
2.297286007
4.92387884
8.096072664
10.32643997
10.64188666
9.41992655
7.364316281
5.589942596
4.504797406
4.179294002
4.525271843
5.285570719
5.996805344
6.067918492
5.034121626
3.16545969
1.404090217
0.4349969142
0.4115101008
0.7722954355
1.048106664
1.205550139
1.312326195
1.317945353
1.076678757
0.6007442164
0.1186105196
-0.1786987133
-0.3306383037
-0.5304555021
-0.9071053128
-1.413308089
-1.751882993
-1.296447009
0.2803751632
2.232998463
2.663567607
0.7368048432
-1.679862941
-1.814072917
-0.3226706798
0.5009937743
-0.05789122814
-0.7715399662
-0.07414633376
0.01585840178
-0.05210983876
-0.2611900364
-0.2882727638
-0.005896825947
0.006826545036
-0.008624515318
-0.02554496118
-0.05930739728
-0.05181526922
0.02661980415
-0.01935937922
0.1028488001
0.1197084457
-0.007795641233
-0.008662444372
-0.009792818656
-0.01066027644
-0.01251365293
)


101
(
0
-13.5124659
-5.663157968
-6.931071357
-8.554508707
-11.71781929
-15.81159755
-20.53007601
-25.52484493
-30.32845207
-34.49228432
-37.67814611
-39.70704017
-40.45521307
-39.91647135
-38.24246354
-35.64522198
-32.54736714
-29.1638035
-25.56357046
-20.93054006
-15.70984188
-11.15453377
-6.995926919
-4.007051568
-1.407810983
0.4878121665
1.573210089
1.849591098
1.77041547
2.863427405
6.304641625
11.05482231
13.23228565
12.35408743
8.418463745
3.883482943
2.195478366
4.44689295
9.183116907
13.30562882
14.96640344
14.23118355
11.82935283
8.952429731
6.813539551
5.86624733
5.785915576
6.416640929
7.51005906
8.264595844
7.911526242
6.113870687
3.603786536
1.643341336
0.8308839291
0.9831549563
1.315063343
1.567378716
1.762462981
1.885681927
1.802347182
1.406406972
0.8282465947
0.3121575382
-0.0290852853
-0.332220354
-0.7301916279
-1.288104029
-1.832272575
-1.700335659
-0.2646530193
1.989696793
3.109974488
1.69286035
-1.025997874
-1.876031435
-0.6989214206
0.3448745301
0.0644413853
-0.732030581
-0.06894221439
0.0638333213
0.008361468144
-0.136100696
-0.2389349644
-0.2589821831
0.02831760146
0.06402634598
-0.05234142546
-0.04534612782
-0.0727575356
0.03271430484
0.003432883925
0.1458394002
0.2104037035
-0.01971601472
-0.01880207185
-0.0181786971
-0.01979423358
-0.02138347755
)


101
(
0
-15.51059527
-7.436565232
-7.998544965
-8.921361805
-11.58958485
-15.25902905
-19.59544901
-24.28174791
-28.83322993
-32.81866513
-35.90738108
-37.90345735
-38.71858306
-38.3125705
-36.78619257
-34.39359779
-31.52743027
-28.38886084
-25.09929751
-20.86584296
-15.54174522
-10.18179305
-5.621920535
-2.288392961
0.2747695678
2.368644139
3.608902741
3.87324923
3.291091685
3.461846338
6.286318767
11.40346925
16.32959032
16.82066595
12.70966931
6.787667569
2.911575138
3.733098056
8.084507578
14.05623621
17.76842091
18.05552307
15.83844927
12.36333433
9.126768549
7.036714873
6.357665486
6.757524196
7.639965914
8.735499568
9.168906239
8.177809027
5.809970703
3.280574792
1.610859118
1.136612976
1.288305187
1.493364242
1.726381587
1.917026743
1.954809381
1.722592965
1.259790759
0.715136613
0.217957911
-0.2378170867
-0.6914256592
-1.22109595
-1.764789682
-1.753375933
-0.4420476594
1.849592505
3.161032656
2.037351244
-0.5064543304
-1.51509836
-0.6484514528
0.2082077951
-0.02972088732
-0.6936396404
0.0250562391
0.09580976692
0.02029335736
-0.1771336215
-0.1543285156
-0.2814045995
-0.1930528573
0.1118863868
-0.02528531923
-0.04855775911
-0.05497311986
-0.088056901
0.03547872675
0.2356127038
0.3166134889
-0.03078275366
-0.02601931008
-0.02278858136
-0.03347515599
-0.04864925942
)


101
(
0
-17.65870622
-9.316684822
-9.128317674
-9.34346802
-11.50910362
-14.75359583
-18.71367495
-23.09896929
-27.41368005
-31.23509785
-34.239028
-36.22941873
-37.12278657
-36.90904189
-35.58215026
-33.36875115
-30.73565999
-27.95058442
-25.0724079
-21.18418296
-15.95211868
-10.26237598
-5.249681107
-1.439062546
1.255975004
3.609910876
5.186143241
5.425554915
4.574120719
3.705136945
5.367369936
11.01798499
17.14823788
19.92978719
17.67946512
10.99032409
4.37500803
2.29898482
5.844123855
12.25150834
17.8611253
20.19060042
18.65993553
15.155914
11.27380785
8.246947663
6.715407907
6.421318855
6.91805378
7.966578191
8.814681658
8.566688494
6.983831819
4.580144191
2.632377178
1.525072151
1.321087985
1.361806594
1.520513443
1.714066344
1.79398217
1.660701842
1.340306641
0.9277338367
0.4170255644
-0.1629531868
-0.7263758756
-1.26352293
-1.72723886
-1.688888107
-0.403958517
1.939947778
3.312694808
2.196037203
-0.2587785431
-1.148100027
-0.3192996068
0.3668850646
-0.1288257292
-0.8111292231
0.1334860971
0.2112384972
0.1220210561
-0.1133706402
-0.1058644941
-0.2287005509
-0.21770208
0.02658473773
0.04665363525
0.007415628216
-0.03430119317
-0.08255800404
0.06408912945
0.3389502787
0.4179835345
-0.03940144654
-0.0543645309
-0.0709539167
-0.06368428922
-0.05087324689
)


101
(
0
-20.105187
-11.22579053
-10.32244397
-9.822571928
-11.47768067
-14.29755255
-17.88392444
-21.97406116
-26.06467391
-29.73055218
-32.66477183
-34.66601906
-35.64354699
-35.60462378
-34.520958
-32.49573358
-30.09279931
-27.42974686
-25.02424684
-21.64687159
-16.5193729
-10.65153309
-4.936298361
-0.6192132953
2.249015423
4.467146085
6.243366444
6.998143037
6.244037514
4.729108395
4.485384533
8.255503325
15.58047081
20.92009132
20.7898165
14.71640625
7.055851963
2.506825927
3.489133337
9.360925445
16.07111738
20.03214236
20.06356872
16.85779282
12.63478976
9.074322635
6.932613262
6.141055498
6.194238092
6.590590081
7.26027989
7.591763534
6.717749334
4.886695747
3.120851225
1.923085973
1.432755648
1.351550892
1.373450367
1.488492025
1.565951149
1.424511759
1.183029657
0.9100591708
0.5283839727
-0.07310017882
-0.767348234
-1.393888353
-1.80554813
-1.659896297
-0.3295196026
2.05981781
3.473170132
2.24958306
-0.2939253478
-1.083017759
-0.1477461811
0.5741132708
-0.08006729313
-1.045397437
0.0617653233
0.2490000625
0.2106682844
0.002950694517
0.07487997648
-0.2040013258
-0.1804595951
-0.1787307282
0.1100782267
-0.02659973261
-0.0725832325
-0.07399316692
0.06746738031
0.4674915348
0.5284841103
-0.03751983337
-0.04362920044
-0.0497558533
-0.03740848255
-0.02740978798
)


101
(
0
-22.23677299
-13.1942848
-11.58141725
-10.35890942
-11.49624504
-13.89018055
-17.10473808
-20.90523699
-24.77856326
-28.30256093
-31.17610877
-33.19732558
-34.26709937
-34.38485337
-33.54003456
-31.75299565
-29.51364826
-27.19651291
-24.86993624
-22.13798662
-17.74711938
-11.64374935
-5.500435728
-0.7796742717
2.334578418
4.594568897
6.407809316
7.425190896
7.004548391
5.289508645
4.208263075
6.234219287
12.03994243
19.13988753
21.80105187
18.13188442
10.19586843
3.057178788
1.749023896
5.748947765
12.69759695
18.29892377
20.0304042
17.81605802
13.45206442
9.194506104
6.421434592
5.347353165
5.551175114
5.759777458
5.81271907
5.816318219
5.426519056
4.128544337
2.660467013
1.776182113
1.378039663
1.353425852
1.344154276
1.390720259
1.428933494
1.239011619
0.9557027078
0.7539226942
0.5664024545
0.1026178721
-0.6421239694
-1.422261504
-1.901981616
-1.671099646
-0.2262684408
2.248921064
3.711895018
2.385835671
-0.3467366057
-1.136969746
-0.07735766865
0.7438587253
0.08100176361
-1.061796495
0.1136059607
0.3243438812
0.2259789011
-0.003026120506
0.0457767749
-0.1027639717
-0.09211968012
-0.18581441
0.03702513321
0.06888965727
-0.07531855595
-0.02427857051
0.008499180325
0.6174794973
0.6644164965
-0.08280788246
-0.0588744874
-0.0221143757
0.09800531739
0.2765466564
)


101
(
0
-24.50061469
-15.25537627
-12.90637471
-10.95491483
-11.56567536
-13.53312249
-16.37783352
-19.89356548
-23.55694243
-26.94978354
-29.76831686
-31.81913167
-33.00572126
-33.30557717
-32.68814436
-31.17542037
-29.13603426
-26.9739936
-25.1158701
-22.77551603
-18.70995739
-12.99067892
-6.679013122
-1.304763202
2.239642467
4.525302861
6.353373001
7.588522973
7.575390679
5.955336965
3.853857914
4.060938456
8.410664474
15.47450658
20.50173993
19.44081258
12.64429286
5.023313264
1.145617573
2.489260444
8.835633272
14.91287646
18.15427747
17.48633404
13.84284497
9.374342156
5.934759663
4.236859445
4.175654553
4.846969729
5.181815238
4.632293927
3.891846992
2.893193173
1.554233971
0.9959029122
0.9150841192
1.175464999
1.358378828
1.476465817
1.501914231
1.281444377
0.8715319547
0.611016013
0.5860663304
0.3996892575
-0.1694037051
-1.021126569
-1.677386773
-1.514674777
0.01044713789
2.622346929
4.197961961
2.852707409
-0.07904049439
-0.9755741995
0.2121239141
1.244320554
0.5566765222
-0.8501560438
0.3275859136
0.6351251898
0.4617336269
0.1814841593
0.1733965028
0.2798517205
0.04366802275
0.1179013528
0.04051836462
0.2732110915
0.05933798276
0.02655327242
0.04430796471
0.8492984702
0.8345328793
-0.06713449948
0.02562476953
0.1617800849
0.4817089912
0.976109398
)


101
(
0
-27.02075734
-17.34683418
-14.29538829
-11.60975073
-11.68747468
-13.22679645
-15.70228136
-18.93534677
-22.39638172
-25.6627642
-28.43463735
-30.52169373
-31.80840867
-32.28690492
-31.91469361
-30.6885145
-28.86199448
-26.83015196
-25.18958285
-23.36529222
-20.12403712
-14.73412218
-8.244797103
-2.339328713
1.575842081
2.602927233
5.477694973
6.848757481
7.235750488
6.01311841
3.9010193
2.570662231
4.764593663
10.45168289
16.56220315
18.66550957
14.51790989
6.877122839
1.446733478
0.8814245004
5.026111435
11.23454598
15.77838002
16.31240161
13.44256967
9.013678364
5.32010877
3.38252639
2.938372684
3.562738929
4.20629527
4.311057193
3.280015136
1.91874991
0.8164808857
0.1469489166
0.2311195297
0.76849816
1.385308652
1.700343496
1.843127246
1.673942131
1.13169179
0.6273891892
0.5591974513
0.7089912122
0.5336508725
-0.1048220216
-0.845986291
-0.882153369
0.5617877821
3.274195075
5.043726221
3.795135202
0.7271783944
-0.371717985
0.7697421599
2.044240419
1.609587852
-0.04415538236
0.8811288836
1.229375422
1.136765705
0.821431841
0.6077660969
0.8964726665
0.5068729176
0.5546475143
0.3744531037
0.7744047685
0.4414835631
0.284277691
0.2896205407
1.24789502
1.136258428
0.07177746135
0.3113880372
0.6494024026
1.261544734
1.833556305
)


101
(
0
-29.29038267
-19.51196814
-15.7526552
-12.32626173
-11.8627913
-12.97255469
-15.08016052
-18.03151005
-21.29800664
-24.44134729
-27.17476263
-29.30222587
-30.68868175
-31.34514162
-31.2405801
-30.3107397
-28.65261827
-26.97898186
-25.34741777
-23.93588523
-21.42115294
-16.67943481
-10.47319399
-4.194921842
0.4045423182
2.859369909
4.336469739
5.581309386
6.279328358
5.653414011
3.634341161
1.93649496
2.012397826
5.914335157
11.77018839
15.65529925
14.1879605
8.358913287
2.523560272
-0.07393588536
1.738622725
7.433306289
12.26046399
14.40135098
13.07465444
9.151491795
4.756731234
2.666291496
1.942183975
2.579173082
3.408086281
3.760478862
3.345286365
1.963563913
0.6543298002
-0.2946755865
-0.2502097917
0.4914464048
1.376936275
2.058912638
2.40986382
2.421395738
1.873097534
1.123268127
0.740408271
0.9273948908
1.201110297
1.046308124
0.5241514218
0.3634310852
1.584504626
4.25574479
6.219594641
5.176622428
2.116944844
0.8892720113
1.863530704
3.057254654
2.890819695
1.343529235
1.942725071
2.184982947
2.308558663
2.206528235
1.539413292
1.803224388
1.57765561
1.334139538
1.232066661
1.326102998
1.150455315
0.9300984753
0.8879560383
1.965650955
1.715299813
0.4182310949
0.8761219087
1.529367647
2.596905934
4.194752389
)


101
(
0
-31.66715907
-21.74006996
-17.27460842
-13.10376785
-12.09235177
-12.77098242
-14.51034207
-17.1813957
-20.25754103
-23.28395412
-25.98193328
-28.1536062
-29.65258292
-30.48367403
-30.6346745
-29.98460958
-28.66639909
-27.01698024
-25.72520164
-24.62273306
-22.47684082
-18.59324145
-12.7410211
-6.392521081
-1.267975567
1.544730105
2.884297821
3.886447188
4.700616958
4.765614176
3.261603584
1.009449921
0.1099252205
1.851961605
6.330581194
10.89278727
12.53014462
9.171947466
3.481684895
0.1875880892
0.4596295093
4.306491899
9.165624563
12.06413339
11.68084278
8.961347583
5.382529352
2.164092153
1.059877661
1.472470064
2.574669178
3.445406883
3.377780627
2.543239545
1.218087263
0.0961226015
-0.1450985732
0.5642661314
1.633764734
2.589331957
3.227231297
3.462572877
3.147693021
2.328164823
1.502130282
1.336231178
1.755298719
2.137544961
2.115548779
2.110623225
3.115551961
5.580092077
7.658146502
6.881877769
3.953138793
2.733666784
3.679566523
4.65097079
4.406397
3.143246374
3.605789623
3.512375658
3.701898664
4.11325665
3.194210948
3.075720396
3.075182089
2.899310272
2.482509359
2.633824763
2.383777379
2.123535514
1.906942336
3.149696976
2.760858388
1.140967805
1.92721608
3.016479327
4.363946896
5.77901228
)


101
(
0
-34.2354232
-24.02171875
-18.86294739
-13.94324008
-12.37709243
-12.62295846
-13.99416296
-16.38681018
-19.27415328
-22.19022124
-24.85386722
-27.07314154
-28.68831299
-29.70405689
-30.07483326
-29.74198971
-28.72288406
-27.33612757
-26.02338409
-25.19718803
-23.81879986
-20.55472164
-15.22519518
-9.056615543
-3.708034876
-0.325161785
1.203434884
1.967741449
2.641572371
2.972275973
2.403403561
0.9739547997
-0.8279510675
-0.9339034803
1.688941101
5.80223424
8.798444996
8.006441904
4.459594541
1.18145777
-0.1813288665
1.690408903
5.991620955
9.399830797
10.54919105
8.805648421
5.482916136
2.784496536
1.251503723
1.002861557
1.734401645
2.826361694
3.475881883
3.056131795
2.160763827
1.247433644
0.6326889993
1.071787637
2.262961368
3.428688166
4.286052964
4.825638616
4.891842316
4.22390605
3.186203014
2.46327289
2.562705542
3.177482491
3.70414392
4.120376564
5.1072835
7.288432884
9.313236336
8.777230856
6.07638975
4.957039284
6.015869655
6.900692064
6.391223903
5.329173628
6.027907884
5.559605983
5.4499156
6.122544639
5.574081912
4.902689385
4.786120053
5.118608453
4.230539641
4.156477193
4.128159396
3.860335465
3.515667314
4.870280004
4.395026052
2.396450209
3.342293668
4.740956124
6.178610107
8.235479917
)


101
(
0
-36.63913594
-26.361252
-20.51640474
-14.84529057
-12.71793188
-12.52939074
-13.53192576
-15.64742674
-18.34637282
-21.15939962
-23.79208844
-26.05754282
-27.79225678
-28.97089081
-29.5750129
-29.56106212
-28.83632833
-27.73439812
-26.60595517
-25.87234667
-24.82086453
-22.3008423
-17.68699839
-11.82852596
-6.258398871
-2.380290707
-0.7075651496
-0.1662637367
0.3177865483
0.9353038687
0.9298687016
-0.1994324277
-1.43121995
-2.472813083
-1.867388311
0.6240228994
3.810727063
6.080389723
4.600425894
2.119502818
0.4849473738
0.7663398783
3.810546714
7.099806779
8.596294381
8.230806278
6.367430626
3.348562989
1.731519339
1.441006119
1.823603801
2.533402711
3.250845418
3.481604622
3.128671976
2.56935537
2.087014466
2.250951913
3.247676311
4.534875473
5.629109172
6.367714911
6.829163633
6.704876451
5.755088532
4.663773632
4.163813052
4.533002536
5.346793668
6.248251476
7.461667855
9.448150742
11.24075697
10.75294764
8.289142525
7.397881516
8.627195161
9.547394842
8.796534795
7.7244013
8.916653076
8.39061752
7.743648829
8.213622796
8.363648684
7.384405357
6.952527735
7.423701702
6.591697173
6.341169341
6.392546267
6.023166634
5.627230097
7.088783642
6.475132142
4.015871487
4.854104661
6.312839405
7.475248184
9.618156733
)


101
(
0
-39.12156976
-28.75495444
-22.23358423
-15.80909544
-13.11515188
-12.49084108
-13.12452281
-14.96218598
-17.477674
-20.18757675
-22.78982166
-25.1062047
-26.95850288
-28.29977995
-29.14759963
-29.40264947
-29.05750575
-28.13210613
-27.22789316
-26.58637972
-25.96321988
-24.07949422
-20.1945958
-14.6936619
-9.138524991
-4.92930242
-2.906847655
-2.408214763
-2.214070913
-1.64209671
-0.8322175458
-0.8635485404
-1.96924181
-3.203100058
-4.112415619
-3.245833104
-0.8747567621
2.400233339
3.462048632
3.263737893
1.379676561
0.9332614021
2.118529134
4.858438841
7.192343183
7.559021815
6.305284215
4.74476888
2.981697819
2.006455186
2.60308513
3.050248325
3.508806067
4.133474949
4.133750872
3.887279553
3.741004292
3.872521495
4.706183981
5.990688578
7.253568915
8.130114232
8.824273884
9.268268268
8.925909711
7.796106373
6.807762801
6.596574136
7.296543585
8.525163113
10.09015997
12.13799604
13.73207295
13.01944222
10.52155797
9.834218329
11.38216466
12.4431091
11.48709861
10.12880569
11.66062215
11.54610793
10.50243952
10.41376878
11.09533921
10.25492932
9.54721283
9.839379321
9.375062681
8.853555259
9.028901143
8.421993578
8.046579951
9.60578319
8.847384802
5.782615071
6.28481161
7.523274506
7.932429233
6.706469275
)


101
(
0
-41.70971992
-31.21104234
-24.01297024
-16.83496948
-13.56933089
-12.50816523
-12.77226064
-14.33155543
-16.66624142
-19.27357089
-21.85053984
-24.2155132
-26.18638821
-27.69443518
-28.77146424
-29.30592684
-29.26321881
-28.73369946
-27.92795495
-27.35838488
-26.99318832
-25.61885385
-22.5645938
-17.63784815
-12.10283622
-7.598164763
-5.031767937
-4.415419071
-4.50162546
-4.234462699
-3.342105882
-2.384682568
-2.3527812
-3.33205382
-4.911391044
-5.596547924
-4.213657131
-1.269830842
1.612783185
2.875696759
2.897594719
2.247349331
2.382688931
3.61787269
5.307888403
6.513435262
6.663556076
5.479893485
4.560487513
3.789822053
3.584240318
4.139291408
4.521761751
4.970123281
5.426650901
5.562903616
5.493184729
5.748702618
6.436023382
7.729424026
9.060912308
10.07748618
10.88480204
11.64879668
12.02631353
11.39524623
10.26510077
9.558106308
9.784529299
11.02351926
12.89475824
15.22765197
16.93206626
16.03305985
13.08756431
12.15691587
13.9676464
15.4146074
14.43809315
12.59957036
13.93471645
14.33835364
13.39258523
12.63198739
13.4012133
13.06952681
12.18003318
12.16568793
12.0644285
11.14040309
11.52965644
10.72794606
10.32508305
11.96594291
11.03616084
7.437594041
7.133840719
7.769635077
7.352219871
8.20688671
)


101
(
0
-44.23737766
-33.72113064
-25.85737728
-17.92506347
-14.08166742
-12.5812889
-12.47675577
-13.75830685
-15.91241446
-18.42073632
-20.97198813
-23.38395306
-25.47348702
-27.15110506
-28.41042769
-29.25522173
-29.52865812
-29.28842122
-28.76541495
-28.30465193
-27.88742689
-27.08493732
-24.60239678
-20.42405157
-15.20192217
-10.50009585
-7.484534225
-6.498702223
-6.748570716
-6.929014605
-6.084893301
-4.466679389
-3.285885353
-3.555828452
-4.927366776
-6.245733388
-6.903154329
-5.449530613
-1.238602451
1.942217302
4.169936896
4.386762931
3.55027769
3.185733614
4.244789262
5.597080684
6.365842444
6.539432417
5.998366478
5.403222968
5.508256997
5.831388524
6.156130369
6.465747284
6.93137981
7.636818086
7.914677165
8.111417819
8.591720131
9.674949115
11.03352791
12.21923102
13.07021869
13.94604374
14.72302922
14.84716091
14.01621574
13.0293541
12.80888375
13.77705235
15.76295785
18.35693028
20.45674448
19.80303648
16.33030648
14.6176148
16.09954919
17.96866153
17.38187919
15.23931681
15.88658766
16.34720695
15.91258461
14.65313636
14.92962064
15.19914777
14.39055256
13.82424894
13.81032345
12.78063731
12.99881943
12.43349409
11.8884959
13.52923456
12.41998229
8.282432758
7.106661567
6.918700463
5.57685517
3.808693347
)


101
(
0
-46.80942814
-36.25873799
-27.75922894
-19.07453213
-14.65078788
-12.71202083
-12.23677241
-13.24048304
-15.21550516
-17.62662516
-20.15105804
-22.61198889
-24.81781518
-26.66269364
-28.12185362
-29.20626794
-29.82268325
-29.92583268
-29.60443428
-29.28073403
-29.02891375
-28.35300323
-26.48872118
-23.00570668
-18.33254892
-13.49597513
-9.924897029
-8.398959573
-8.612088919
-9.253645677
-8.677371398
-6.754644027
-4.543211825
-3.476294759
-4.352919114
-6.508041407
-8.004666624
-7.413699965
-4.387146419
0.0576356968
4.133852285
6.179859827
5.955070558
4.714136005
3.98546689
4.86183138
6.195109264
7.087447867
7.661171118
7.574220372
7.476380739
7.829616257
8.252522351
8.649423222
9.235815801
9.895398772
10.5715919
11.05642148
11.45799404
12.14008611
13.33386349
14.62078957
15.51950935
16.28402835
17.16375085
17.74710132
17.522548
16.59932612
16.03838837
16.63635723
18.53367388
21.19740641
23.64110491
23.59958008
20.18188581
17.47467869
17.86191936
19.57230552
19.55221151
17.63469252
17.67448405
17.50412
17.53916873
16.20592454
15.57093657
15.99634091
15.71911028
14.40403716
14.23507283
13.35208101
13.11164042
12.87316881
12.15210993
13.73290003
12.49856282
8.201474971
6.121074331
5.005680402
2.736142703
0.5837170724
)


101
(
0
-49.41692295
-38.84962805
-29.71901515
-20.28462504
-15.27731367
-12.9016309
-12.05327046
-12.77865123
-14.57453961
-16.8904077
-19.39082911
-21.89530772
-24.21678932
-26.2259812
-27.88374694
-29.19377896
-30.10910353
-30.58398749
-30.55289714
-30.35659518
-30.17224757
-29.54627189
-28.15322522
-25.2197057
-21.0848678
-16.48900879
-12.63535337
-10.44159861
-10.1932223
-11.00741307
-10.96849462
-9.03407458
-6.611582223
-4.225083158
-3.996289236
-5.448879227
-7.533888475
-8.968901965
-7.003251685
-2.201531694
2.989905906
7.535302316
8.883260969
7.092850086
5.384884423
4.827985451
5.947131179
7.726024268
8.895397356
9.630300809
10.0450447
10.27790679
10.72441928
11.09723531
11.73833636
12.80297958
13.85358462
14.5243557
14.62065692
15.24541129
16.03837592
17.19843241
18.25322151
18.9558709
19.67936301
20.32673206
20.46927076
19.88039123
19.13941518
19.39397789
21.02597244
23.5043232
25.99057292
26.50111615
23.72920252
20.56434479
19.57932426
20.21827045
20.24425535
18.93495217
18.95942616
17.82787349
17.81573675
16.88131705
15.43921889
15.20409445
15.61293374
13.68095257
13.17979749
12.54769584
11.7634054
11.50894446
10.73840447
12.22355006
10.94677427
6.858817238
4.23805343
2.226146166
-1.090763251
-4.514057982
)


101
(
0
-52.03604497
-41.50214574
-31.73837482
-21.55625848
-15.96201074
-13.14632964
-11.92759121
-12.37507769
-13.99351661
-16.2158406
-18.68851097
-21.23701007
-23.66976572
-25.84162372
-27.68879434
-29.2084143
-30.38735814
-31.12013084
-31.49967297
-31.53290392
-31.22943785
-30.66920253
-29.49135387
-27.19448563
-23.65373302
-19.38927247
-15.44324892
-12.60393952
-11.61249765
-12.3369488
-12.58745341
-11.46395033
-8.652499104
-5.431635071
-3.58054699
-4.712674489
-6.493316121
-8.1790769
-7.651879967
-4.128196676
1.730597389
7.65829014
10.95476195
10.82218234
8.049396597
6.303428428
6.422605391
8.221699361
10.31564543
11.99241472
12.66778805
13.07847081
13.43805585
14.0024038
14.57299061
15.60075864
17.23973582
18.42498676
19.04314192
18.84849618
19.22950963
20.01914244
21.05074368
21.8977638
22.44451706
22.92383652
23.13868084
22.71808364
21.95690958
21.89343547
23.08052038
25.16846043
27.2693602
27.90106781
25.88587858
23.11828012
21.20461868
20.3797933
19.5125513
18.36703391
19.02446959
17.22334843
16.50363655
15.98290104
14.37105132
12.89777558
13.59663811
11.48196343
10.45500746
10.01946248
8.87760702
8.315642734
7.506710373
8.937893381
7.716372664
4.288551567
1.504154047
-1.454276048
-6.175983063
-12.24798231
)


101
(
0
-54.66231738
-44.1774305
-33.80572045
-22.88269491
-16.70082356
-13.44805535
-11.85798942
-12.02601606
-13.46688951
-15.59613012
-18.04383718
-20.63111612
-23.1731356
-25.50316571
-27.53781519
-29.26563793
-30.66537767
-31.7173397
-32.31737666
-32.51175097
-32.39926281
-31.91392926
-30.81489513
-28.84633233
-25.83073414
-21.97419286
-18.03861858
-14.84984317
-13.130771
-13.07032937
-13.94605801
-13.19134157
-10.57237061
-7.399003591
-4.096890262
-3.583262723
-4.581795718
-6.618431888
-7.588657546
-5.049513195
0.3948804582
6.880501457
12.33685598
14.16835051
12.30327486
9.000937779
7.603102958
9.015717379
11.55941202
14.26482054
15.6565725
16.45941487
16.87049065
16.98875023
17.59344253
18.59454462
20.51212983
22.27991933
23.23472513
23.31489467
23.08611169
23.32576024
23.90672159
24.7224019
25.36985034
25.67970952
25.6610056
25.26181073
24.46715372
24.12596726
24.79812264
26.30808175
27.58498879
27.64544364
25.96636874
24.00700226
22.05938231
20.19726235
17.95329933
16.00942292
17.22723331
15.4292745
13.64558534
12.97706511
11.80207227
9.15069848
9.494936981
7.679297855
5.966215694
5.507775978
4.277290844
3.559743983
2.536245281
3.994904149
2.936132372
0.6309502313
-2.193521499
-6.406820696
-13.21336625
-20.24447502
)


101
(
0
-57.06226464
-46.87926993
-35.92738653
-24.26774264
-17.49664683
-13.80609306
-11.84610215
-11.73502671
-12.99864667
-15.03697096
-17.45690286
-20.08166936
-22.72447811
-25.2086512
-27.42551432
-29.34203346
-30.95452653
-32.25011076
-33.15444966
-33.58752136
-33.59298029
-33.09938669
-32.06360751
-30.32935121
-27.67331647
-24.32435253
-20.61936763
-17.2251661
-14.85911737
-13.90650921
-14.12091229
-14.28100358
-12.57377081
-8.938575825
-5.150099478
-2.870244492
-3.487042015
-4.1743662
-5.155155009
-3.935429313
-0.2930644846
5.866012857
12.65470263
16.60762571
16.66227384
13.36221731
11.0830657
10.42793205
13.00628447
16.28359576
18.93944639
20.17636013
20.72749269
21.00313555
20.90046332
21.67300088
23.2058831
25.62263607
27.37685888
27.8073223
27.32221439
27.05700451
27.12773782
27.46443992
28.01729022
28.30990984
28.14438497
27.50036567
26.62408815
25.99650049
26.28530409
27.13124655
27.30321115
26.04999053
23.84371295
22.4987098
21.13217077
19.03779321
15.7122475
12.27258029
13.34273917
12.02370758
9.329925395
7.770396656
6.995217994
3.803640083
3.312986024
2.119800571
-0.2972671256
-0.97999338
-2.286633845
-2.729444664
-4.083887756
-2.488317613
-3.323797396
-4.139222556
-7.248177836
-13.36031441
-23.35788936
-34.16129619
)


101
(
0
-60.15170364
-49.60966996
-38.09205463
-25.70387467
-18.34532423
-14.2199039
-11.89013124
-11.49900204
-12.5849133
-14.53243757
-16.92610927
-19.58313335
-22.32230255
-24.95352805
-27.34684741
-29.4401104
-31.25566651
-32.73884427
-33.92090588
-34.6293919
-34.76359558
-34.27729646
-33.18950773
-31.52631913
-29.18748435
-26.20054091
-22.80149048
-19.41128757
-16.49152555
-14.67896432
-14.42934003
-14.19560554
-13.2022725
-10.2752819
-6.567325734
-3.09262641
-1.782897722
-1.811453132
-2.478363224
-2.00284477
0.6834126392
6.049888986
12.43476236
18.26632127
20.47439068
19.04505362
15.33901819
13.88845645
15.07517089
18.34720354
22.13601059
24.19131093
25.27190449
25.42068077
25.25533967
25.13551111
26.10261328
28.24234903
30.72519872
32.08563611
31.96041425
31.0298297
30.5249602
30.3607459
30.46953964
30.54729118
30.28097604
29.41372592
28.18688588
27.27028682
27.2501535
27.64352709
26.79733023
23.78748126
20.03307141
18.46254182
17.71395525
15.8607384
12.21403466
7.33715012
7.474398736
6.557806909
3.392056954
0.5061589691
-0.50683956
-3.559657469
-5.052506947
-5.568555269
-8.524073284
-9.503815488
-11.10277028
-10.97448791
-12.57611267
-10.6965962
-11.28766843
-10.36703252
-14.44136205
-23.49701274
-38.17986976
-76.4810542
)


101
(
0
-62.49711619
-52.36875645
-40.2987518
-27.19035347
-19.24663326
-14.68823741
-11.9901402
-11.31872875
-12.22629759
-14.08240011
-16.45106546
-19.13478004
-21.96095006
-24.73269618
-27.2958169
-29.5715201
-31.54046754
-33.23018182
-34.59716438
-35.54846943
-35.91094497
-35.50824121
-34.32779523
-32.63300263
-30.4099392
-27.79901781
-24.75464904
-21.50288059
-18.36385665
-15.81132636
-14.20142439
-13.77254175
-13.04232467
-10.92629942
-7.235236171
-3.549904418
-1.07570717
0.2941016311
0.8254926754
1.64134163
3.486601424
7.131477438
12.40640003
18.64536307
23.27214986
24.21170956
21.56801181
18.7219659
18.15945985
21.0461288
25.11254982
28.48939657
30.17749065
30.76056845
30.33255432
29.33227223
29.57768102
30.90759186
33.44130333
35.50304322
36.09022485
35.36984
34.20633228
33.38702016
32.80172197
32.44723173
31.83497107
30.67967862
29.0423555
27.61619461
27.23839691
27.32001669
25.84272586
21.28802095
15.54729884
12.62931507
11.67614858
9.964868267
6.344898145
0.6759199096
-0.4069690747
-1.427709778
-4.762625008
-8.943505529
-11.056391
-13.62690187
-16.03526415
-16.14789919
-19.36545313
-20.620196
-22.68342188
-22.01648421