/*--------------------------------*- C++ -*----------------------------------*\
| =========                 |                                                 |
| \\      /  F ield         | OpenFOAM: The Open Source CFD Toolbox           |
|  \\    /   O peration     | Version:  2.3.1                                 |
|   \\  /    A nd           | Web:      www.OpenFOAM.org                      |
|    \\/     M anipulation  |                                                 |
\*---------------------------------------------------------------------------*/
FoamFile
{
    version     2.0;
    format      ascii;
    class       dictionary;
    location    "constant";
    object      la_i3;
}
// * * * * * * * * * * * * * * * * * * * * * * * * * * * * * * * * * * * * * //

la_i3_table
101
(

101
(
0
0
0
0
0
0
0
0
0
0
0
0
0
0
0
0
0
0
0
0
0
0
0
0
0
0
0
0
0
0
0
0
0
0
0
0
0
0
0
0
0
0
0
0
0
0
0
0
0
0
0
0
0
0
0
0
0
0
0
0
0
0
0
0
0
0
0
0
0
0
0
0
0
0
0
0
0
0
0
0
0
0
0
0
0
0
0
0
0
0
0
0
0
0
0
0
0
0
0
0
-0.02254165877
)


101
(
0
-4.386583798
-0.1888780446
0.3805954914
1.873870841
4.214743745
6.655710209
8.969142875
10.6214751
11.36255489
10.66760139
8.573448724
5.440516414
1.29700563
-3.285574992
-7.739476616
-11.74722037
-15.347472
-17.30806872
-19.59745524
-20.97208246
-21.24157136
-21.38221177
-20.7071424
-19.89875684
-18.35377755
-16.65851375
-14.89864139
-13.24227999
-12.2850872
-12.30391848
-12.73512381
-12.36586528
-11.43114658
-9.594238736
-7.412873556
-6.093507141
-6.151967595
-7.484491212
-9.087454282
-9.654527598
-9.208000967
-8.257524845
-7.064194762
-6.218287146
-5.932370999
-6.095015984
-6.541741959
-7.104581313
-7.330776076
-7.033453557
-6.132041624
-5.089985735
-4.369517776
-4.202744533
-4.453921989
-4.714345181
-4.843730146
-4.861343262
-4.822019591
-4.64662283
-4.309631388
-3.905196574
-3.573887697
-3.366848923
-3.18455568
-2.88137777
-2.450222754
-2.025084056
-1.89565196
-2.416772015
-3.540395764
-4.334970941
-3.688044266
-1.773631254
-0.4305222151
-0.8700671289
-1.859000282
-1.917380674
-1.12634275
-0.64461459
-1.122476692
-0.9555829723
-0.7597822102
-0.4148030775
-0.55995391
-0.5683475641
-0.3840878366
-0.3419190329
-0.279348269
-0.1214275902
-0.19791211
-0.126625082
-0.07990705987
-0.849213585
-0.6379046998
-0.00438665007
-0.005187942535
-0.005799719055
-0.006720331468
-0.0072460535
)


101
(
0
-5.479067162
-1.017061454
-0.1623486091
1.598377069
3.853392274
6.225699131
8.309658881
9.734614772
10.23007471
9.433802227
7.158924976
3.766348251
-0.6234156274
-5.42907026
-10.1793273
-14.44122772
-17.89221591
-20.06410783
-21.90557915
-23.90226865
-25.02478497
-25.77036153
-25.53722245
-24.50794314
-23.16442734
-21.24925686
-18.95173703
-16.4907945
-14.66669621
-14.67226289
-16.5943228
-18.16257363
-17.59135466
-14.61989292
-10.46561239
-6.936676221
-6.659815358
-9.128609474
-12.47813519
-14.86348839
-15.06866982
-13.51013254
-11.02503144
-8.917131486
-7.651870782
-7.295392486
-7.727275426
-8.63996493
-9.508693855
-9.676175873
-8.621685197
-6.631236499
-4.740338194
-3.714844458
-3.737290293
-4.186543315
-4.532521952
-4.725745829
-4.840972138
-4.828332919
-4.534244591
-3.974336096
-3.396318075
-3.006936406
-2.763936625
-2.45937707
-1.953332547
-1.295604847
-0.8084706038
-1.174878561
-2.757615904
-4.754277411
-5.114221654
-2.937702577
-0.2028317692
0.1504004046
-1.251411979
-2.036960846
-1.33756508
-0.4065495729
-1.010956903
-0.988616471
-0.8819257964
-0.5494710201
-0.2967630162
-0.5436910934
-0.5276224714
-0.3893091199
-0.2914101378
-0.2323411759
-0.1198557042
-0.1926679345
-0.1544723382
-1.555260925
-1.220359639
-0.01572324329
-0.01762960619
-0.01911048582
-0.0207681377
-0.02126343747
)


101
(
0
-6.721900797
-1.863455302
-0.7453056434
1.191725583
3.513004129
5.83093584
7.736308931
8.959641214
9.328491527
8.480867674
6.067116857
2.565412604
-1.975657418
-6.963827367
-11.81862325
-16.29787865
-19.77896223
-22.13681667
-23.48574966
-25.58039248
-27.96478007
-29.16182229
-29.84492445
-28.90548394
-27.60809593
-25.70309081
-23.25717224
-20.32086248
-17.37921439
-16.26658853
-18.39562288
-22.45445677
-23.67554068
-21.49830499
-15.78046709
-9.343693646
-6.369466949
-8.251486604
-13.29445971
-17.78147257
-19.46873849
-18.390578
-15.40654723
-11.92455372
-9.352618159
-8.201843921
-8.08012636
-8.78848101
-10.03200646
-10.91574899
-10.58904013
-8.66840915
-5.947809311
-3.820317465
-2.96185285
-3.18414549
-3.613727092
-3.947158827
-4.199768562
-4.355506402
-4.273843088
-3.845010419
-3.212563171
-2.64058223
-2.249848374
-1.891710922
-1.423618393
-0.7735812321
-0.1297946025
-0.2118958257
-1.703296047
-4.075266785
-5.208052131
-3.602613532
-0.6094420482
0.3991769164
-0.7086262913
-1.696085808
-1.324376937
-0.3831137609
-0.9913752191
-1.004602513
-0.8608618697
-0.6730585552
-0.4597072723
-0.2495552375
-0.5406956639
-0.5393207201
-0.3271777712
-0.2770565606
-0.1912920114
-0.2323767065
-0.2293272087
-2.173240322
-1.842856129
-0.04030907322
-0.04433119025
-0.04694115572
-0.04379740703
-0.03820278116
)


101
(
0
-7.802473672
-2.730546482
-1.351534617
0.7712198824
3.175477552
5.469186461
7.235769355
8.296968519
8.592579232
7.740734543
5.368731826
1.594638261
-3.018978061
-8.149197913
-13.20393256
-17.77343761
-21.37112295
-23.83916206
-25.09710198
-26.85348791
-29.60999077
-32.13573342
-33.44304566
-32.97724055
-31.50164664
-29.64267279
-27.12975686
-23.93812586
-20.16299643
-17.71535169
-18.89076557
-23.19480411
-27.62117335
-26.94592121
-20.91429292
-12.7608872
-7.082732941
-7.125851628
-11.55610424
-18.09611602
-22.09154948
-22.12855859
-19.28105401
-15.02048873
-11.09753181
-8.559511858
-7.690996044
-8.087219114
-9.047022097
-10.26423426
-10.77125414
-9.724534125
-7.161276658
-4.410429655
-2.603629852
-2.130088468
-2.368553696
-2.674948128
-3.007187111
-3.27844408
-3.368858833
-3.157201759
-2.692481114
-2.138040166
-1.631664557
-1.163782315
-0.6919448459
-0.1314836511
0.4491199112
0.4298135881
-0.998060791
-3.47854745
-4.865992287
-3.592446798
-0.8057964716
0.287075553
-0.5995116889
-1.404906263
-1.049077284
-0.2975048922
-1.046047352
-1.021549361
-0.836935174
-0.5661067825
-0.558844234
-0.3170091503
-0.2920285249
-0.6072183041
-0.4064551129
-0.3068081381
-0.2538714783
-0.1505838906
-0.338302891
-2.887315167
-2.51044086
-0.06097355796
-0.062775374
-0.0639942639
-0.07757716323
-0.09317407079
)


101
(
0
-8.958591523
-3.643558835
-1.980735821
0.3358592243
2.837839172
5.137498304
6.795318163
7.726332576
7.966965078
7.151027588
4.844929678
1.017131903
-3.660671785
-8.695357228
-13.85378538
-18.61646271
-22.30725786
-24.6914277
-25.75298055
-27.34601901
-30.23182078
-33.41242061
-35.48655191
-35.76624187
-34.43504947
-32.77634104
-30.46351096
-26.9765183
-22.66438307
-18.74866981
-18.31986724
-23.14382011
-28.83194549
-30.76717922
-26.88665726
-17.75088592
-8.729087351
-5.209617109
-8.550899607
-15.47529457
-21.60097769
-23.95061706
-21.83324695
-17.47039833
-12.72899686
-9.042885709
-7.139238051
-6.704159222
-7.199778351
-8.335109459
-9.267806851
-9.015164164
-7.314499903
-4.71540847
-2.616444932
-1.449649868
-1.301541006
-1.443825334
-1.723462403
-2.03563742
-2.213758374
-2.145292295
-1.869045044
-1.495191369
-1.014050698
-0.4549853218
0.09060328548
0.6143213816
1.058647218
0.9592054922
-0.4979296195
-3.098479641
-4.612317487
-3.380453083
-0.6956370671
0.2401184995
-0.6980338336
-1.406509248
-0.7683708436
0.02085415444
-1.037571829
-1.092092822
-0.9150949611
-0.5882860081
-0.5653298657
-0.3885369322
-0.315951023
-0.5251580614
-0.5112466315
-0.4390659424
-0.3103481811
-0.2127996347
-0.4393008053
-3.600229266
-3.145977236
-0.09052999551
-0.09924893037
-0.1043710551
-0.09819121072
-0.08410080653
)


101
(
0
-10.26261723
-4.572462429
-2.633845262
-0.1154274604
2.499202864
4.826376097
6.409482161
7.239267811
7.440094709
6.727366773
4.51215202
0.7524038773
-3.970397548
-8.970860883
-14.07395775
-19.01514831
-22.78076461
-25.54628315
-26.27366279
-27.46853215
-30.52392719
-34.15425805
-37.40057238
-38.49181133
-37.41317804
-35.45793987
-33.20063371
-30.14185376
-25.73528184
-20.8408715
-17.86970072
-20.18497051
-27.21158045
-32.0934704
-30.63299661
-22.17118878
-11.87230221
-5.33987888
-5.517224056
-11.69200081
-19.01835096
-23.2125112
-22.86827919
-18.8102374
-13.63904682
-9.302630491
-6.666462177
-5.645512404
-5.640516723
-6.057284031
-6.798315406
-7.188612248
-6.275526622
-4.336362135
-2.474978298
-1.23672995
-0.794056084
-0.8198601723
-0.9688279311
-1.222588743
-1.432431367
-1.382610678
-1.20796423
-0.9983006373
-0.6690176573
-0.09775579979
0.5767614931
1.184582874
1.559074806
1.327179355
-0.2000798455
-2.878095175
-4.471072079
-3.151775741
-0.3751622197
0.4607721673
-0.6158782758
-1.438953751
-0.682677122
0.4402479261
-0.7889001242
-1.025098884
-0.9603499539
-0.6761284965
-0.7169847626
-0.3919101194
-0.3804597665
-0.3071188625
-0.5991702248
-0.425032181
-0.3507673045
-0.2658853428
-0.4924952794
-4.357740331
-3.804243054
-0.1658851699
-0.1639317318
-0.1516959614
-0.1011021
-0.02943236747
)


101
(
0
-11.41487617
-5.52908545
-3.311299664
-0.5836385092
2.154689165
4.535599818
6.074659779
6.82743684
7.020557905
6.417162199
4.387233879
0.7027437933
-4.030046859
-9.058437226
-14.07332923
-19.03664142
-23.02615447
-25.66513634
-26.87199846
-27.42356521
-29.65185544
-33.94202885
-37.98746058
-39.78247711
-39.12961244
-37.20968036
-34.84905461
-31.9007364
-27.70293183
-22.39424237
-18.26312187
-18.27853642
-23.24460479
-30.12954131
-31.90467604
-26.26979522
-15.61630775
-5.966763852
-3.374541156
-7.259647093
-14.80883312
-20.89991772
-22.53305339
-19.63273137
-14.31737405
-9.206706859
-5.876608663
-4.564970631
-4.771101366
-5.030061012
-5.12619091
-5.182197152
-4.825532936
-3.491532568
-1.980534554
-1.110485917
-0.7735128897
-0.8505654322
-0.941211368
-1.09234969
-1.238199719
-1.115277692
-0.8686647408
-0.6975464214
-0.5365905075
-0.06861076498
0.7008986794
1.511658576
1.991397554
1.693331172
0.06652270717
-2.689241268
-4.332826237
-2.909958849
0.06924639088
0.9192965071
-0.2776451275
-1.235685906
-0.5396784352
0.7439445323
-0.5340684198
-0.8103879571
-0.7457368835
-0.4932496075
-0.5227713879
-0.3534075313
-0.3750223101
-0.2349091984
-0.463791946
-0.4682490866
-0.3351490243
-0.3371714271
-0.4605579316
-5.150061023
-4.457227059
-0.1181330211
-0.1089353975
-0.06500102476
0.133978245
0.4003292289
)


101
(
0
-12.63484681
-6.526878995
-4.013598455
-1.069524519
1.803506496
4.258203383
5.780304558
6.475093727
6.674179847
6.179822914
4.36749276
0.8530269447
-3.681790165
-8.687644676
-13.71065746
-18.60232636
-22.73048097
-25.65559266
-26.55262228
-27.0103463
-29.17788153
-33.13859244
-37.62487863
-40.535398
-40.60967507
-38.75407244
-36.31673789
-33.44508608
-29.53623753
-24.15941938
-18.61045738
-16.2526081
-19.30619316
-25.99143263
-30.50661794
-27.92390704
-18.62368421
-8.452763518
-2.828734269
-3.557382293
-10.41533599
-17.09320361
-20.54540799
-19.50384707
-15.08247749
-9.792047494
-5.756220886
-3.781616521
-3.719151426
-4.520925472
-4.946740832
-4.376363927
-3.586258387
-2.528651634
-1.099852339
-0.5211545737
-0.4555117676
-0.7546436552
-0.9527447785
-1.071751687
-1.094281373
-0.833837595
-0.3534942845
-0.02123620586
0.05834604007
0.3158216225
0.9855175524
1.955684856
2.700384648
2.534987007
0.869408768
-2.000461461
-3.745950831
-2.297491658
0.8890857693
1.845976333
0.5086403438
-0.6901898423
-0.02372976967
1.463842628
0.1418797679
-0.2552449278
-0.1705461405
0.03605173385
-0.01545813519
-0.1735174041
0.01648092879
-0.1261560794
-0.07479442692
-0.3766849063
-0.1867149823
-0.2368938978
-0.3610356387
-5.8388586
-5.054305996
-0.1411588635
0.0146714527
0.2640666727
0.8751718509
1.778679791
)


101
(
0
-13.98284394
-7.541335351
-4.740494225
-1.574321101
1.443355003
3.992201757
5.52426519
6.184633089
6.395601739
6.042690584
4.493672481
1.132674879
-3.276793112
-8.215754549
-13.14382821
-17.91627305
-22.15571476
-25.38303878
-26.44185919
-26.5666013
-27.84947444
-31.67824172
-36.68203929
-40.54812889
-41.28349813
-37.16754663
-36.74540739
-33.90631869
-30.29549332
-25.22571505
-19.54646738
-15.17216858
-15.46429055
-20.34161874
-26.07074604
-27.26465436
-21.1654353
-11.04394285
-3.684457002
-2.227471029
-6.535944143
-13.43129599
-18.47368608
-18.87927754
-15.38366142
-10.1559176
-5.839730251
-3.57135319
-3.009948572
-3.668041802
-4.342547537
-4.393167674
-3.137846104
-1.510064298
-0.1611035269
0.7195728934
0.7874360345
0.3642904102
-0.1322977257
-0.2827805581
-0.253519179
0.1147254578
0.8874403954
1.623056873
1.881752734
1.894349865
2.249555809
3.090168733
4.011516411
4.129742832
2.602458357
-0.3363393063
-2.26641629
-0.9154597948
2.407693106
3.558211707
2.239296324
0.7467611249
1.086012138
2.749839271
1.602436192
1.088103112
1.016993368
1.142928602
1.167926017
0.6816597953
0.9514881506
0.6989236958
0.7238629954
0.09330264768
0.3420670356
0.2452127951
0.04427623145
-6.22776113
-5.43886503
0.06138489745
0.5868411329
1.281503819
2.541073047
3.465531293
)


101
(
0
-15.21047398
-8.589658014
-5.493256823
-2.098021503
1.073560197
3.731770942
5.295993426
5.944597285
6.166693542
5.971260597
4.651267892
1.603606901
-2.773509692
-7.574935587
-12.28625174
-16.93826646
-21.41873388
-24.38437416
-26.07654211
-26.02365649
-26.61801555
-29.84447979
-34.69862224
-39.33472402
-41.23415972
-39.79866065
-36.87289069
-33.76411801
-30.37080079
-25.87109727
-20.16260852
-15.28530297
-12.87642181
-15.50106334
-20.85138134
-24.15909275
-21.30213317
-13.45060611
-5.749998933
-1.977831687
-3.566428547
-9.891493361
-15.26525895
-17.52852903
-15.76004263
-11.00517103
-5.751046093
-3.166887615
-2.111661548
-2.574773916
-3.227643473
-3.319020208
-2.519034991
-0.6095497939
1.226606197
2.668160235
3.018843279
2.604026153
2.035350123
1.696622165
1.711862334
2.07742666
3.032481661
4.192194004
4.936525014
5.038098735
5.019540251
5.440254807
6.218221911
6.549706425
5.320711392
2.466388074
0.3526407273
1.495777682
4.80817569
6.078966268
4.905825512
3.456768541
3.455260292
4.928884821
4.036462865
3.520427901
3.115494979
2.899508212
3.272758205
2.621469056
2.556927697
2.483248228
2.212693954
1.726832423
1.630910161
1.467209033
1.05679291
-6.037082189
-5.272381074
0.8090386552
1.961137026
3.400074984
5.750563648
9.119607801
)


101
(
0
-16.49347668
-9.66810271
-6.270881198
-2.641724057
0.691486232
3.474584201
5.095024408
5.75017154
5.990272901
5.947566694
4.894478453
2.154503395
-2.042176702
-6.732685129
-11.26588202
-15.84741825
-20.08820255
-23.62613149
-25.13706159
-25.13845892
-25.72380738
-27.99101917
-32.63209392
-37.5992497
-40.45009906
-39.65818997
-36.60327949
-33.12540886
-29.74352957
-25.96710716
-20.77037419
-15.1056297
-11.49596094
-11.43073189
-15.05859113
-19.1541457
-20.07419337
-15.22880119
-7.752213669
-3.224329341
-2.969586444
-7.029855784
-12.33354684
-15.34517208
-14.4910167
-10.89984554
-6.321395025
-2.171159766
-0.420827644
-0.3462603645
-1.003707525
-1.365527493
-0.6467379412
0.9449412078
3.082145551
4.994210959
5.920576133
5.78975534
5.252735696
4.832525771
4.745844091
5.070781133
5.956250598
7.356734288
8.733460508
9.355128009
9.298877927
9.244341459
9.581897899
9.839545021
8.92316335
6.350161676
4.151247249
5.033522628
8.221866015
9.493009222
8.344990295
7.10137629
7.147105176
8.266067604
7.459124468
7.213753046
6.618479767
5.735386562
6.284178195
5.874380314
5.358642217
5.04002517
4.941570368
4.157290409
3.916236875
3.67917695
3.066697146
-4.939136192
-4.218079979
2.437230177
4.679580509
7.216101707
10.44561682
13.31879706
)


101
(
0
-17.87384307
-10.77260789
-7.07423041
-3.20554186
0.2958211857
3.217011989
4.91399067
5.58956307
5.860920898
5.955713627
5.193877539
2.734145707
-1.206712281
-5.660234683
-10.18723534
-14.52459873
-18.67137887
-22.16924341
-24.31849393
-24.35062395
-24.16377077
-25.97760955
-30.19004633
-35.13457443
-38.50772973
-38.7103309
-36.03239292
-32.24237306
-28.5804076
-24.99512945
-20.88175934
-16.2244178
-11.44837287
-9.076730948
-10.38913486
-13.87938801
-16.37099931
-14.55247311
-9.617842412
-5.069847517
-2.759783757
-4.28644639
-8.709404755
-12.06965193
-12.73946949
-9.966059358
-5.329653421
-1.433846649
1.131010594
2.271569834
2.356713023
2.076093951
2.312737902
3.751927399
5.702287308
7.655612652
9.25402364
9.6623891
9.217837704
8.780519704
8.65750317
8.847786737
9.505772752
10.91438259
12.68269032
14.06142357
14.48883026
14.30171058
14.15410569
14.06776207
13.27998522
11.10293674
9.028517139
9.702941741
12.68953198
13.88992373
12.65049799
11.50888773
11.82947055
12.7038668
11.61125014
11.73805919
11.36910026
10.09613197
10.18847851
10.28537601
9.711747376
8.600009684
8.89023689
8.201667138
7.470202714
7.018569057
6.133373851
-2.670071972
-2.003815486
5.240429019
8.647837764
12.23259067
16.20961311
21.2805997
)


101
(
0
-19.17575545
-11.90518436
-7.902729148
-3.789887021
-0.1144238722
2.955860773
4.748995448
5.460458816
5.776052212
5.984764208
5.490134796
3.419085333
-0.268314065
-4.598911339
-8.992407438
-13.05797081
-17.11703444
-20.51918122
-22.82559709
-23.25263536
-23.09869525
-24.21400821
-27.71242066
-32.46941627
-36.38302669
-37.47754582
-35.12441876
-31.08479673
-27.13568678
-23.82280465
-20.3059551
-15.92215439
-11.87901809
-8.31471014
-7.047221037
-8.405163104
-10.95727876
-12.71738733
-10.0731206
-6.311032608
-3.489980977
-2.852447923
-5.466988331
-8.349014082
-9.083188675
-7.581891323
-4.273719812
0.387548734
3.401549173
4.903338477
5.688554081
6.153062724
6.63068288
7.643697857
9.277237193
11.10416277
12.8028972
13.74904286
13.73816971
13.37553734
13.18849698
13.35335651
13.76844743
14.76532734
16.61084485
18.55456085
19.79308176
20.0090594
19.67381837
19.18356807
18.28120827
16.43646708
14.71543231
15.42170038
18.21901741
19.22672345
17.86376334
16.7236411
17.32843487
18.21265796
16.56952895
16.76065773
16.93870233
15.77461142
15.04269058
15.46883193
15.10339826
13.64402472
13.73970883
13.12187532
12.13315649
11.53150165
10.40066562
0.7453208314
1.481586889
9.239421998
13.77491438
18.12554465
22.11159203
27.83659455
)


101
(
0
-20.51931287
-13.06464662
-8.756331219
-4.394993161
-0.5410608685
2.688901844
4.594998787
5.360684164
5.716478559
6.042529693
5.832307991
4.087339867
0.725895713
-3.470641202
-7.603523818
-11.59264795
-15.2756819
-18.89787524
-21.19818014
-21.9903149
-21.61851954
-22.24637551
-25.05810494
-29.61495443
-33.72895427
-35.48144945
-33.77006159
-29.76344652
-25.43222887
-21.98105744
-19.41581686
-16.33167604
-12.32631275
-8.44578636
-5.144299544
-4.289316587
-5.576931898
-8.270921767
-8.423115272
-7.138062622
-3.728856261
-1.919823139
-1.94955275
-3.79942206
-5.156509303
-4.160901952
-1.205632794
2.133769688
5.694562978
8.311174923
9.127071641
10.16448157
11.22070454
12.07969719
13.60309607
15.34956892
16.92049635
18.13226868
18.51728078
18.36405548
18.18638011
18.38682731
18.73549308
19.298401
20.6570791
22.819888
24.75694538
25.76434029
25.68524825
24.95743734
23.80099322
22.02065653
20.63488992
21.69193549
24.61318896
25.46346446
23.8024259
22.55498973
23.41853709
24.62628194
22.59382065
22.32781722
22.95187487
22.30330376
20.84686852
21.13868142
20.98832342
19.5782624
19.10442577
18.70082845
17.36154884
16.91418409
15.59078073
5.067044718
5.794726511
14.446865
19.84487835
24.33114859
27.39323751
23.44587032
)


101
(
0
-21.91863632
-14.25447604
-9.634191726
-5.02100777
-0.9846069859
2.413384658
4.448315849
5.285613172
5.684649764
6.126185922
6.160424102
4.781980398
1.750382529
-2.248001582
-6.118416522
-9.973581189
-13.53580863
-16.74057682
-19.39809932
-20.52742538
-20.20111181
-20.5369921
-22.48929759
-26.53925888
-30.89494363
-33.26100373
-32.48017142
-28.7259145
-24.03033959
-20.09782292
-17.49080962
-15.52907684
-12.82645855
-9.091160729
-4.72897875
-1.655050877
-1.391560233
-3.293298114
-5.285610859
-5.377832594
-3.940623883
-1.549432516
0.0400847076
0.3880829641
0.1955461035
0.5512742793
2.17816454
5.42237666
8.365476435
11.09044408
13.11704726
14.27714761
15.66756756
16.99152126
18.27303021
19.85895131
21.60099016
22.91043543
23.67854893
23.71866889
23.66208047
23.89280447
24.30075496
24.6964375
25.44204582
27.23032592
29.48966266
31.1955911
31.76278636
31.12219644
29.72751055
27.73648915
26.32972221
27.67995702
31.16424655
32.32606398
30.39065488
28.726724
29.59791544
31.31537488
29.45613594
28.54500611
29.0352938
29.08607163
27.3088306
26.92260043
26.94996822
25.70751576
24.59059846
24.56603169
22.66578106
22.37191087
21.14142607
9.652635236
10.57302828
20.37368894
25.63064774
29.18015676
31.03865549
37.86210728
)


101
(
0
-23.29057315
-15.47073149
-10.53733272
-5.667732781
-1.444650257
2.131877617
4.301148358
5.223243762
5.675756482
6.213500813
6.47882552
5.479936507
2.794105184
-0.9446064907
-4.808348439
-8.249835536
-11.63233534
-14.74468962
-17.24468959
-18.62739556
-18.94862046
-18.77215305
-20.32341209
-23.58400497
-27.75444802
-30.61470384
-30.62323364
-27.4808875
-22.57191562
-17.95419674
-15.11530911
-13.79548274
-12.33829945
-9.244113411
-4.864820868
-0.6580472173
2.575358499
2.954509296
-0.2636450381
-2.263691872
-3.113670553
-1.407182761
1.717898112
4.372170923
5.32534848
5.874726795
7.088207725
9.033896723
11.86361862
14.73609204
16.71730748
18.39812115
20.08328987
21.80269574
23.32896158
24.53131015
26.13972869
27.76147251
28.99125293
29.47684929
29.58638864
29.81128063
30.34263801
30.7738549
31.24585693
32.35689786
34.43187601
36.57422641
37.72903068
37.44500282
35.95365199
33.70733047
31.89660581
32.99758017
37.07380318
39.06511624
37.44404762
35.23255257
35.55880563
37.49531073
36.26384359
35.11113463
34.86762842
35.38528579
33.92239777
32.53734646
32.39585344
31.60925028
30.05437123
29.99702202
28.01598537
27.23069379
26.29229264
13.88632557
14.98211718
25.63592308
30.02362443
31.98819043
32.5200826
31.14214655
)


101
(
0
-24.68813851
-16.70325624
-11.4635561
-6.335064123
-1.923432798
1.838573006
4.154825185
5.176843149
5.688398357
6.311835532
6.797573629
6.134833915
3.811452672
0.3737052138
-3.340583557
-6.631030721
-9.669679034
-12.51237687
-15.09404418
-16.61685556
-17.05995056
-17.21222207
-18.22837749
-20.79599809
-24.4138244
-27.70307305
-28.66440843
-26.35211119
-21.46895543
-16.11355219
-12.71246878
-11.51016206
-11.07603102
-9.373565404
-5.254974231
0.4333014082
5.153608916
7.059574971
5.779213024
2.679761515
0.007688775747
-0.1156510462
2.624378406
6.692973673
10.18681748
11.68968623
12.56065585
13.93533132
15.74019354
18.3518896
20.91403049
22.85232467
24.6559659
26.49495306
28.11875952
29.62768637
31.03451767
32.56972673
34.11709999
35.26941131
35.75420489
36.03974499
36.66883871
37.35251061
37.82999472
38.54144984
40.04307114
42.19271189
43.76954169
43.88475733
42.42353352
40.01644752
37.73703709
38.06065179
41.96411698
44.91497941
44.31977316
42.08370867
41.54156537
42.95230036
42.0898629
41.33361935
40.20937832
40.54984775
39.84616911
37.8078342
36.76121063
36.64978885
34.84212029
34.30442695
32.64391946
31.14550153
30.37624301
17.12747693
18.28864583
29.50388054
32.3091305
32.52657123
32.37441136
29.79308273
)


101
(
0
-26.10618113
-17.96291052
-12.41263263
-7.022544403
-2.420694134
1.508754536
4.004595579
5.139242852
5.721178468
6.422757581
7.089196525
6.777156046
4.854865549
1.677377733
-1.828602522
-4.995839633
-7.758473805
-10.20460147
-12.64245315
-14.33281204
-15.05660966
-15.62499602
-16.30590671
-18.42344739
-21.50064398
-24.61496249
-26.10887955
-24.80323524
-20.52123828
-14.77760595
-10.40804905
-8.888822412
-8.311191011
-7.935903552
-4.819571963
0.4057297347
6.355712588
11.32137115
11.82284975
8.724119773
5.144304144
2.373920816
3.580602956
8.685764371
13.71888032
17.32916544
18.8254946
19.44316119
20.80321846
22.74361307
25.05339382
27.4691284
29.51937157
31.60475475
33.38543683
34.67074864
35.89231033
37.44594899
39.55787444
40.96657343
42.08213263
42.66047258
43.23115785
44.06716967
44.77021666
45.4417996
46.55189472
48.32315192
50.0594039
50.44530608
49.10017425
46.67428351
44.09994689
43.55071485
46.45948745
49.6043032
50.16877281
48.7613783
47.79092552
48.0765239
46.72890925
46.57082109
44.97403996
44.36150456
44.20950725
42.4081025
40.02002359
40.34329831
38.48030401
37.12173335
35.94965395
34.08103087
33.0424881
18.96452029
20.09489248
31.326524
32.46418679
31.74254836
32.24685226
34.85470555
)


101
(
0
-27.5335577
-19.25382897
-13.38510406
-7.729973053
-2.936783923
1.176547374
3.843718463
5.100762941
5.756463118
6.527540666
7.364209715
7.360555201
5.813438878
2.987468042
-0.3335251141
-3.384615311
-5.940722856
-8.291309128
-10.149348
-11.75709667
-13.16007068
-14.0157337
-14.77369586
-16.2256668
-18.65281644
-21.43620967
-23.14941166
-22.80158158
-19.49596366
-13.67283178
-8.638645976
-5.644708609
-5.133127165
-5.378404219
-3.914785759
1.403813633
7.45255092
13.2434489
16.0436371
14.99585242
11.03998571
7.022476424
6.274474692
9.724336892
16.41480007
21.83457668
24.92322051
25.864996
26.40348726
27.49061838
29.81903391
32.39590544
34.87148542
36.98051191
39.04988987
40.59781569
41.37294786
42.55343713
44.25450766
46.76263239
48.48825159
49.59258281
50.25497879
50.9544538
51.82950227
52.61937692
53.54706522
55.00298584
56.59558529
57.1080265
55.95294642
53.57974769
51.01321595
49.88761408
51.49014428
53.69179763
54.74519475
54.40566113
53.89757705
53.43116259
50.720933
50.67214901
49.21693081
47.47009581
46.98571147
46.10594002
42.70581474
42.83344787
41.22960611
38.98776642
38.05451934
36.20564522
34.7557676
19.73769238
20.77499182
31.42113326
31.43424652
31.3565485
34.2741513
38.26863384
)


101
(
0
-28.97269967
-20.55642187
-14.37731602
-8.456048193
-3.472057204
0.8243584234
3.675052455
5.067741285
5.806924648
6.649416089
7.621591197
7.919438998
6.742170187
4.241920949
1.170764763
-1.705122748
-4.173830629
-6.156836061
-8.002332961
-9.628500071
-10.92083903
-11.98585152
-13.03333535
-14.32767143
-16.18179292
-18.47685457
-20.21842032
-20.33457046
-17.94296854
-13.00632994
-6.766194492
-2.892665485
-1.648416961
-1.266192741
-1.215631586
2.481475321
8.044727722
14.83308407
20.06164829
20.69527919
17.68499077
13.43922374
10.48694152
11.95851363
17.92911902
25.60682864
30.92286108
32.71818897
33.04537463
33.16950423
34.93994535
37.41210933
40.20717007
43.13835729
45.37792473
47.14275399
47.79527172
48.50038559
49.97372516
52.2842379
54.79150351
56.56882786
57.73810807
58.42355709
59.0703827
59.87713101
60.83512716
61.98977171
63.31105751
63.77092837
62.7428902
60.4903839
58.26751015
57.17315557
57.76522229
58.39982915
58.79289863
58.88237039
59.22053652
59.00651528
54.95612879
54.17003186
53.21418418
50.92495712
49.31571315
49.33709433
45.71576548
45.00528879
43.97505605
41.17734429
40.13605528
38.19409713
36.60389809
20.60039013
21.46770693
31.09667307
31.10333888
33.53717487
40.53417572
48.78536795
)


101
(
0
-30.28535228
-21.8770422
-15.39082777
-9.200644145
-4.024797829
0.4553677981
3.489570561
5.025429151
5.854887514
6.760894393
7.859450996
8.412101713
7.611257747
5.454327722
2.643819849
-0.09909921913
-2.407911072
-4.215571151
-5.724584805
-7.198065445
-8.543563901
-9.91620393
-11.18812851
-12.42687167
-13.96664387
-15.5633408
-16.94502916
-17.2723546
-15.64479336
-11.72378914
-6.068318558
-0.4944803688
2.48802384
2.799880088
2.794132169
4.710677055
10.35059549
15.93406942
21.73145558
24.53937688
24.24330073
20.85842095
16.72497738
16.07269414
20.11770706
28.19703028
34.95960881
39.67796266
40.35024983
40.09337582
40.61821455
42.8988992
45.91562532
49.02966295
52.35435329
54.54548964
55.79295885
55.89930366
56.57390312
58.55602605
61.37420195
63.70230028
65.36617671
66.44970938
66.99377843
67.54390079
68.31642249
69.33181212
70.28477676
70.56002634
69.38966366
67.23763429
65.56235964
65.21940009
65.65482761
64.82257613
63.78436984
63.34858976
64.11681753
64.88538305
60.32791494
58.30267451
57.71992309
55.82112013
53.16633786
53.41690926
50.31600189
48.41400923
48.09960808
45.21282488
44.04243582
41.65030913
40.19061309
23.30100779
23.92462347
32.24690329
33.62520262
40.29021399
52.72715333
66.66342808
)


101
(
0
-31.96567051
-23.21435593
-16.42197455
-9.961962975
-4.595765195
0.06538099502
3.290277265
4.978368157
5.906475283
6.87817804
8.080891339
8.862828837
8.398253882
6.603437259
4.069367886
1.442444246
-0.6464894459
-2.399949687
-3.574761885
-4.750213603
-6.111992604
-7.711915444
-9.344791918
-10.73620749
-11.96575355
-13.0658348
-13.90485928
-14.0603762
-13.02057854
-10.02138356
-4.618957579
0.8237404738
5.293324431
7.154574753
7.904756991
8.82283168
12.51589855
17.82780627
23.81890717
28.13012845
29.50991365
27.55520062
24.41770522
21.94864319
23.85623929
30.08456959
39.00486331
45.09599824
47.88232527
48.00690478
47.45049458
49.0274873
51.76046435
55.42692325
59.15291368
62.5743725
64.57857174
65.09406422
65.0003882
65.93036899
68.29098877
71.28497591
73.44250102
74.85207323
75.58851916
76.00526992
76.44976568
77.20162539
77.97341378
77.95415496
76.45909915
74.09743651
72.82261042
73.69205404
75.08756792
73.71595829
71.21170458
69.77080645
70.15540202
71.85118024
67.7665191
64.73749225
64.17073608
63.31373702
60.4981218
60.29431914
58.14731753
55.11003271
55.40436412
52.79564787
51.73916086
48.73883038
47.44929014
29.78266622
30.05207237
36.80602024
40.85876511
53.08835051
72.01496338
128.8918039
)


101
(
0
-33.26820497
-24.56856497
-17.47030199
-10.73909694
-5.184082346
-0.3439026499
3.073052688
4.919483395
5.954093961
6.994469213
8.280318
9.268269097
9.13706539
7.690893209
5.436753716
3.045959124
0.9683880065
-0.5318369513
-1.60733224
-2.504538271
-3.597551053
-5.207170302
-7.218938404
-8.882750666
-10.09018465
-10.6114645
-10.78549653
-10.5141491
-9.509870294
-7.231555279
-3.361189828
2.29865821
7.64582571
11.19547625
12.62028247
13.93977468
16.70947412
20.79007948
25.84439845
30.33511957
33.33633891
34.0346982
32.77293305
30.32198387
29.77921634
33.60781456
41.69424571
49.90530812
55.26566195
56.28173735
55.73182413
55.97250872
58.25622345
61.76754834
66.1937688
70.91358309
73.84841303
75.32840506
75.17770023
75.26658572
76.71138159
79.29104619
81.97523645
83.82532972
84.96065308
85.40465361
85.72951644
86.24191035
86.84802325
86.72745053
84.92610831
82.18736343
80.89574561
82.77826707
85.67477775
85.09826714
82.15162862
79.95305187
79.73351923
81.73535292
78.54837103
75.28735301
74.58547236
74.90767778