/*--------------------------------*- C++ -*----------------------------------*\
| =========                 |                                                 |
| \\      /  F ield         | OpenFOAM: The Open Source CFD Toolbox           |
|  \\    /   O peration     | Version:  2.3.1                                 |
|   \\  /    A nd           | Web:      www.OpenFOAM.org                      |
|    \\/     M anipulation  |                                                 |
\*---------------------------------------------------------------------------*/
FoamFile
{
    version     2.0;
    format      ascii;
    class       dictionary;
    location    "constant";
    object      la_i28;
}
// * * * * * * * * * * * * * * * * * * * * * * * * * * * * * * * * * * * * * //

la_i28_table
101
(

101
(
0
0
0
0
0
0
0
0
0
0
0
0
0
0
0
0
0
0
0
0
0
0
0
0
0
0
0
0
0
0
0
0
0
0
0
0
0
0
0
0
0
0
0
0
0
0
0
0
0
0
0
0
0
0
0
0
0
0
0
0
0
0
0
0
0
0
0
0
0
0
0
0
0
0
0
0
0
0
0
0
0
0
0
0
0
0
0
0
0
0
0
0
0
0
0
0
0
0
0
0
1.98059619e-11
)


101
(
0
-3.425692167e-12
4.621972399e-10
3.654290205e-08
4.373778389e-07
2.536881727e-06
9.84742964e-06
3.195365758e-05
8.859074408e-05
0.0002176731811
0.0004793248525
0.0009564379803
0.001737985603
0.0029127916
0.004517807921
0.00652973004
0.008852907289
0.01129202488
0.0137250489
0.01581394462
0.01750202643
0.01870970698
0.01929279924
0.01931875408
0.01887905498
0.01806415317
0.01697874348
0.01572034688
0.01436527202
0.01298346792
0.011627318
0.0103319119
0.009105201651
0.007971953429
0.006925326895
0.005931486698
0.00549096944
0.005722691983
0.005297831215
0.004588252435
0.00392083853
0.003331282525
0.002824036339
0.002388993556
0.002013237505
0.001692427185
0.001417768775
0.001184032739
0.0009857074446
0.000818142131
0.0006768272919
0.0005579827354
0.0004580924041
0.0003727454694
0.0003018064173
0.0002437330777
0.0001966398331
0.0001579433596
0.0001263282798
0.0001005656113
7.966215776e-05
6.279932928e-05
4.910835775e-05
3.793268796e-05
2.903752926e-05
2.2251722e-05
1.691422772e-05
1.275013751e-05
9.486726757e-06
7.010679867e-06
5.128442311e-06
3.704047796e-06
2.653298083e-06
1.837331311e-06
1.330107021e-06
1.003972883e-06
6.961151488e-07
4.587225404e-07
2.970452223e-07
1.877589238e-07
1.153344213e-07
6.790448778e-08
3.914742916e-08
2.263388088e-08
1.29896604e-08
7.037979333e-09
3.746330766e-09
1.838977612e-09
8.264131597e-10
3.84104889e-10
1.614992047e-10
6.147138981e-11
2.854533962e-11
1.010310482e-11
3.86729131e-12
1.158558404e-12
2.348310596e-13
5.382364261e-13
1.155663601e-12
2.953277997e-12
6.354666827e-12
)


101
(
0
-2.772336083e-11
-2.448585849e-10
2.861510802e-08
3.785702382e-07
2.230780531e-06
8.65618772e-06
2.796991161e-05
7.71750201e-05
0.0001886054427
0.000413136007
0.0008201442866
0.001484172735
0.002476652418
0.003829359948
0.005522604977
0.007476574966
0.009532748862
0.01158841892
0.01337779286
0.01483466549
0.0158937611
0.01645050287
0.0165392748
0.01623107132
0.01559918669
0.01472864696
0.01370236257
0.01258602675
0.01143761516
0.01030382528
0.009217303884
0.008185007651
0.007226102277
0.006319651961
0.005454155313
0.004888892081
0.004635354831
0.00429705583
0.003815067324
0.003309965874
0.002839131706
0.002433669594
0.0020854616
0.001782008969
0.001521184479
0.001297872502
0.001104844908
0.0009399027941
0.0007980893835
0.0006767339509
0.0005726747642
0.0004843329591
0.00040869459
0.0003436103101
0.0002881868194
0.0002406958888
0.0002009738403
0.0001673463333
0.000138876535
0.0001149890491
9.481636971e-05
7.764806638e-05
6.333912174e-05
5.149121017e-05
4.171590586e-05
3.348297391e-05
2.665850087e-05
2.112423561e-05
1.65463495e-05
1.287426019e-05
9.823661802e-06
7.492779537e-06
5.637561023e-06
4.182525792e-06
3.061763913e-06
2.19880058e-06
1.556075641e-06
1.092952794e-06
7.542055449e-07
5.124464812e-07
3.374013615e-07
2.200374115e-07
1.375451648e-07
8.350607266e-08
4.856160034e-08
2.780384294e-08
1.631702932e-08
9.074939852e-09
4.595757933e-09
2.340615351e-09
1.15265174e-09
5.911852839e-10
2.838285047e-10
1.287305514e-10
5.022038289e-11
1.127659815e-11
3.346566096e-11
8.104404755e-11
2.292609787e-10
6.281455136e-10
)


101
(
0
-4.551007557e-11
-8.539450707e-10
2.167009627e-08
3.267865701e-07
1.962114558e-06
7.620326126e-06
2.454445569e-05
6.748019376e-05
0.0001642584485
0.0003585037348
0.0007093754321
0.001281206852
0.002134237306
0.00329883605
0.004762416143
0.00646210791
0.008270646241
0.01010151741
0.01174470775
0.0131265871
0.01418649845
0.01484044574
0.01509660001
0.01500119677
0.01461164626
0.0139925554
0.01321118878
0.01232664714
0.01138783532
0.01043659576
0.009509012925
0.008610129996
0.0077669009
0.006945349892
0.006070059452
0.005534518087
0.005088062276
0.004657930042
0.004225719694
0.003773076227
0.003332886129
0.002938945529
0.002588602302
0.002275775383
0.002000702909
0.001758414186
0.001544589018
0.001354975858
0.001187603227
0.001038395833
0.0009060333894
0.0007897665914
0.0006873868697
0.0005968245241
0.00051817502
0.0004466218933
0.0003844817144
0.0003300688358
0.0002819780238
0.0002404019179
0.000204279281
0.0001726057743
0.0001452658426
0.0001217791643
0.000101470448
8.408078028e-05
6.882647381e-05
5.628313908e-05
4.57326149e-05
3.689627291e-05
2.93379652e-05
2.319556292e-05
1.814542037e-05
1.403417836e-05
1.074561783e-05
8.092539721e-06
5.986802064e-06
4.380938212e-06
3.181728736e-06
2.290329424e-06
1.599778915e-06
1.103643273e-06
7.428673559e-07
4.909013355e-07
3.140470012e-07
1.941008008e-07
1.183830109e-07
7.25223148e-08
4.274622232e-08
2.386233621e-08
1.296268785e-08
6.787404323e-09
3.760148748e-09
1.919202585e-09
8.616318072e-10
2.598288047e-10
8.347441819e-10
2.024653465e-09
5.465868473e-09
1.091574704e-08
)


101
(
0
-5.823849396e-11
-1.375284022e-09
1.559861618e-08
2.811711781e-07
1.725998623e-06
6.717779663e-06
2.159010431e-05
5.92121572e-05
0.0001437547109
0.0003131059934
0.0006186386789
0.001117356118
0.001862559769
0.002885433951
0.004182169802
0.005706554678
0.007358474545
0.009065944322
0.01066094251
0.01206640195
0.01322153363
0.01405059403
0.01454005805
0.01471200793
0.01460526267
0.01426532276
0.01374550322
0.01309733391
0.0123626998
0.01157563566
0.01078275286
0.009985744782
0.009224640248
0.008473398455
0.007699443437
0.007056077826
0.006503910627
0.00598757299
0.005496482615
0.005014651674
0.004545964625
0.004114175945
0.003716273733
0.003348263822
0.003014060316
0.002710095437
0.00243372002
0.002181130627
0.001954208562
0.001746356978
0.001556109971
0.001383753587
0.001229279187
0.001089521074
0.0009628096258
0.0008488811137
0.0007465311307
0.0006550826142
0.0005706401052
0.0004958151107
0.0004301260463
0.0003712270364
0.0003196352582
0.0002744362358
0.0002335631454
0.0001979040739
0.0001666125374
0.0001396001711
0.0001166671016
9.630401941e-05
7.8976858e-05
6.426500711e-05
5.201063311e-05
4.169106203e-05
3.313123028e-05
2.584090099e-05
2.001775508e-05
1.529285664e-05
1.155938004e-05
8.687282323e-06
6.363424479e-06
4.610672882e-06
3.29015257e-06
2.312546491e-06
1.576499088e-06
1.051379642e-06
6.876248855e-07
4.429625718e-07
2.82059703e-07
1.715503263e-07
1.032891966e-07
6.03561864e-08
3.439654699e-08
1.971907719e-08
9.817393887e-09
3.574184513e-09
1.020000244e-08
2.47750654e-08
8.033910556e-08
1.876103396e-07
)


101
(
0
-6.612622083e-11
-1.816949751e-09
1.030277325e-08
2.409906188e-07
1.518270894e-06
5.929883917e-06
1.903434087e-05
5.213076231e-05
0.0001263898389
0.000275117411
0.0005436795663
0.0009838277139
0.001644708357
0.002559634331
0.003734159838
0.00513812391
0.006695197046
0.008346693108
0.009957773879
0.01145023317
0.01276132902
0.01381927364
0.01458868636
0.01506993085
0.01528267692
0.01525339288
0.01502128633
0.0146306472
0.014117115
0.01351225323
0.01285062787
0.01214644481
0.01145917291
0.01075652689
0.01003361898
0.009354850968
0.008727868172
0.008131372198
0.007559381136
0.007006432421
0.006470850604
0.005968398346
0.005496855233
0.005046998922
0.004622895449
0.004225627112
0.003859195441
0.003519657227
0.003206595036
0.002913430535
0.002637697323
0.002381349664
0.002147631673
0.001934785476
0.001736395479
0.001554219098
0.001388820496
0.001241268304
0.001101421791
0.0009714592512
0.0008579229807
0.0007528866553
0.0006596683178
0.0005775434461
0.0005022331914
0.0004347323196
0.0003742753833
0.0003194558449
0.0002738867071
0.0002318244926
0.000195010762
0.0001625803291
0.0001350530798
0.0001113206636
9.106812518e-05
7.380729431e-05
5.933733461e-05
4.682878196e-05
3.666785228e-05
2.846003109e-05
2.19769493e-05
1.661955815e-05
1.244830871e-05
9.177817599e-06
6.656093807e-06
4.691600867e-06
3.281984864e-06
2.241750785e-06
1.506866044e-06
1.001183352e-06
6.350275578e-07
4.044855389e-07
2.524113352e-07
1.531152288e-07
8.091998242e-08
3.406503358e-08
1.147974069e-07
2.793663845e-07
8.045861954e-07
1.604811283e-06
)


101
(
0
-6.959706799e-11
-2.187757703e-09
5.696831844e-09
2.056035937e-07
1.335354234e-06
5.240702254e-06
1.681692783e-05
4.604007874e-05
0.0001116000431
0.0002431042334
0.0004812177418
0.0008738689681
0.001467863424
0.002299342279
0.003383173425
0.004704464813
0.006207942839
0.007847814219
0.009515890875
0.01113582274
0.01264287203
0.01396591023
0.01505127563
0.01587792282
0.01644823609
0.01676948196
0.01686383664
0.01676642667
0.01650908711
0.01612021294
0.01562736761
0.01504619567
0.01444272996
0.01380018569
0.01312488549
0.01244416151
0.0117738836
0.01111578045
0.01047343646
0.009840579243
0.009218922446
0.00862688884
0.008064088499
0.007517675684
0.006985098709
0.006470267582
0.005989979106
0.005541731615
0.005119459504
0.004721679375
0.004336102669
0.003967814862
0.003625172492
0.00331334839
0.00301651789
0.002735405322
0.002478246299
0.002243511403
0.002021509801
0.001814293616
0.001628393682
0.00145434036
0.00129320657
0.001149253412
0.001017462311
0.0008967138813
0.000787224491
0.0006859845128
0.0005967418287
0.0005163152811
0.000444709846
0.000380285957
0.0003236154065
0.0002735020163
0.0002293891731
0.0001915626306
0.0001585417194
0.0001294656216
0.0001048089243
8.396422582e-05
6.717691334e-05
5.294980196e-05
4.125423566e-05
3.182092896e-05
2.417448302e-05
1.803641052e-05
1.322176588e-05
9.588828362e-06
6.829142211e-06
4.792558942e-06
3.278651777e-06
2.198916838e-06
1.461998948e-06
9.406306246e-07
5.606936084e-07
2.700835583e-07
8.711706398e-07
2.069150105e-06
5.680754594e-06
1.131652005e-05
)


101
(
0
-6.941514033e-11
-2.494786287e-09
1.703167382e-09
1.744431513e-07
1.174121241e-06
4.636842764e-06
1.48877421e-05
4.077972322e-05
9.893225138e-05
0.0002159276966
0.000428699519
0.0007822990688
0.001322394944
0.002088221406
0.003103493786
0.004367619229
0.005844524511
0.007500900555
0.009251446312
0.0110237066
0.01275167892
0.01436547367
0.01579559007
0.01699948984
0.01796452284
0.01868029665
0.0191512182
0.01940072231
0.01945372122
0.01933620996
0.01906883648
0.01866118098
0.01819127449
0.01764920681
0.01705052136
0.01640617749
0.01573795252
0.01506275004
0.01437396431
0.01367868417
0.01297064409
0.01228236675
0.01162179678
0.01097374817
0.01033141858
0.009690777363
0.009075506965
0.008495262243
0.00794032499
0.007414863913
0.006894674698
0.006392342923
0.005914982878
0.005471986424
0.005047132557
0.004640430907
0.004257299692
0.003901448868
0.003560024053
0.003236737527
0.002943191634
0.002666755005
0.002408983373
0.002170750695
0.001950509796
0.001744076413
0.001558127452
0.001384092886
0.001226086772
0.001082512618
0.0009497486847
0.0008285440474
0.0007193119439
0.0006221733865
0.0005337667094
0.0004561824612
0.0003873270217
0.0003265930637
0.0002731048516
0.0002255908198
0.0001848602532
0.0001510748206
0.0001216914379
9.742739126e-05
7.719935459e-05
5.999753705e-05
4.606596365e-05
3.499592322e-05
2.620904619e-05
1.918084537e-05
1.387974796e-05
9.97973697e-06
7.025996207e-06
4.875221379e-06
3.175043096e-06
1.706623206e-06
5.083381423e-06
1.152140373e-05
2.938472663e-05
6.168613141e-05
)


101
(
0
-6.594022543e-11
-2.744170036e-09
-1.745532916e-09
1.470164961e-07
1.031887418e-06
4.106831472e-06
1.32049211e-05
3.621794763e-05
8.801972217e-05
0.0001926856355
0.0003841265446
0.0007051742342
0.00120104869
0.001914097844
0.002876212522
0.004100029324
0.005567085763
0.007256697107
0.00910385674
0.01104208869
0.01300554476
0.01492634154
0.0167230742
0.01833176095
0.01972668993
0.02088449903
0.0217907845
0.02245271312
0.02288672378
0.02311549121
0.02315756624
0.02301123817
0.02274399049
0.02237094621
0.02190701434
0.02135645932
0.0207427609
0.02010136779
0.01941883475
0.01870676941
0.01795204661
0.01718932592
0.0164323153
0.01568080134
0.0149315331
0.01417143023
0.01342190826
0.01270834174
0.01201073911
0.01132634621
0.01064666634
0.009989708794
0.00934272939
0.00873867633
0.008163600021
0.007594359329
0.007046788168
0.006533124128
0.006035720958
0.005557751719
0.005116837057
0.004689340061
0.004291938635
0.003919344017
0.003573476745
0.003247349042
0.002943451374
0.002657024656
0.002384492411
0.002137108522
0.001903563556
0.001694620799
0.001502125202
0.001323951161
0.001160557921
0.001012486539
0.0008773804697
0.0007564044252
0.0006474987002
0.0005515745309
0.0004636896691
0.0003897221902
0.0003232416465
0.0002669940873
0.0002176995505
0.0001759200355
0.0001407335906
0.0001111123931
8.676531706e-05
6.650883379e-05
5.093249183e-05
3.825554361e-05
2.826849262e-05
2.065027548e-05
1.421359303e-05
8.78808073e-06
2.354304482e-05
5.022993179e-05
0.0001150422021
0.000244303549
)


101
(
0
-5.957921993e-11
-2.942507865e-09
-4.711024081e-09
1.228822458e-07
9.063116413e-07
3.640890935e-06
1.173338739e-05
3.224656864e-05
7.85662918e-05
0.0001726621509
0.0003459443977
0.0006394293045
0.00109827066
0.001767808757
0.002687268346
0.003881400814
0.005348016448
0.007079363474
0.00902874993
0.01113896089
0.01334563576
0.01558112357
0.01776085458
0.01980053369
0.0216616913
0.02289470358
0.02471522418
0.02586347652
0.02675863455
0.027417569
0.02785966334
0.02807785357
0.02812094146
0.02800680283
0.02776259063
0.02738682915
0.02691112747
0.02639963056
0.02580295015
0.0251328683
0.02438846483
0.02359208734
0.02276869139
0.02193955486
0.02110927927
0.0202565197
0.01939979008
0.01856001234
0.01771492227
0.01687325806
0.01603575862
0.01520686761
0.0143813518
0.01359543245
0.01282311916
0.0120683802
0.01130843578
0.01059589727
0.009904678223
0.0092229212
0.008591287577
0.007968317924
0.007382074606
0.006824932524
0.006295652973
0.005794762214
0.005313592263
0.004857180256
0.004424853392
0.004025012214
0.003645510073
0.003286989512
0.002955085778
0.002648673197
0.002367728786
0.002102635639
0.001855336323
0.001633416141
0.00142634846
0.001238440641
0.001070338714
0.0009180230004
0.0007844896634
0.000662941155
0.0005559590049
0.0004640842699
0.0003835301837
0.0003136942589
0.0002523032413
0.0002009636402
0.0001594428507
0.0001248612659
9.68069733e-05
7.45404596e-05
5.438464587e-05
3.615546412e-05
8.937492488e-05
0.0001798958172
0.0003695416646
0.0005703515334
)


101
(
0
-5.066098133e-11
-3.094506696e-09
-7.245770176e-09
1.016624276e-07
7.953635647e-07
3.230593595e-06
1.0443404e-05
2.877616276e-05
7.033236253e-05
0.0001552847103
0.0003129205153
0.0005827037245
0.001009877728
0.001642471681
0.002526184641
0.003696730053
0.005167098496
0.006942085765
0.008993556359
0.01127488166
0.01372566757
0.01628033506
0.01885514281
0.02134980646
0.02371286289
0.02590128874
0.0278674723
0.02957889609
0.03102226512
0.0322034274
0.0331417354
0.03383066348
0.03430599881
0.03456917626
0.03465896853
0.03458485304
0.03437588108
0.03409219858
0.03368294327
0.03315770964
0.03251442163
0.03177169891
0.03096240216
0.03011381929
0.02925719543
0.02836320435
0.02744666107
0.02650270209
0.02553584167
0.02455579941
0.02357683804
0.02259736538
0.0215985295
0.02059131983
0.01961108505
0.01865606149
0.01767036606
0.01672457844
0.01580518946
0.01487394996
0.01398784014
0.01312368487
0.01229051187
0.01148077102
0.01069041719
0.009957405617
0.009235410951
0.008550363326
0.00788630597
0.007259978219
0.006658105445
0.006089369797
0.005550850722
0.005046209005
0.004570434821
0.004122086306
0.003702263629
0.003311066423
0.002942546167
0.002600135116
0.002295029305
0.002006383467
0.001749792586
0.001514109722
0.00129962254
0.00111139472
0.0009391870827
0.0007893908671
0.000656990022
0.0005378508464
0.0004417049602
0.0003584589481
0.0002876590477
0.0002299458744
0.000178387101
0.0001293677478
0.0002810823943
0.0005335025956
0.001033623269
0.001884850806
)


101
(
0
-3.960942704e-11
-3.205310173e-09
-9.398475833e-09
8.301564729e-08
6.97257904e-07
2.868726303e-06
9.309961328e-06
2.573270232e-05
6.312373354e-05
0.0001400965944
0.0002840943413
0.0005331683575
0.0009326541583
0.001532899734
0.002385217079
0.003535074991
0.005009279942
0.006825853975
0.00897370375
0.01141981444
0.01411175292
0.01698578505
0.01996135292
0.0229321243
0.02583246768
0.02860588273
0.03119328337
0.03354387871
0.03562616651
0.03742997496
0.03896891279
0.04024403983
0.04128654723
0.04207724308
0.04265157862
0.04302382557
0.04321813161
0.04330226259
0.04322390492
0.04297742639
0.04256551657
0.04202436431
0.04136006606
0.0406244902
0.03985699401
0.03900390049
0.03808373399
0.03711700862
0.03609420964
0.03502838021
0.03394107706
0.03284187185
0.03169575446
0.03048317179
0.02934326736
0.02816911056
0.02695581633
0.02573465105
0.02456697911
0.02336420182
0.02218069258
0.02101192506
0.01985798383
0.01874199419
0.01763452024
0.01656548699
0.01553252551
0.01453271595
0.01355231528
0.0126166359
0.01170661853
0.01083479981
0.009992838981
0.009187430015
0.008413843472
0.007689489103
0.007015087965
0.006351113729
0.005727770078
0.005144832554
0.004609156453
0.004104652058
0.003638727395
0.003201188948
0.002800986854
0.002443992027
0.002113200157
0.001812213277
0.001548824019
0.001299682726
0.001096892635
0.0009142394489
0.000760062672
0.0006244023804
0.0005019686834
0.0003838993587
0.0007798530049
0.001411250164
0.002526454351
0.003900593023
)


101
(
0
-2.675240153e-11
-3.279176082e-09
-1.12113471e-08
6.664539856e-08
6.104448088e-07
2.549053393e-06
8.311746219e-06
2.305453943e-05
5.678166831e-05
0.0001267311722
0.0002587070938
0.0004894074144
0.000864168816
0.001435224123
0.00225868331
0.003388468613
0.004864058184
0.006716547041
0.008951892058
0.01155188356
0.01447518228
0.01766313886
0.0210376329
0.0244928647
0.02795270475
0.03135049973
0.03461576683
0.0376830043
0.04050143411
0.04303983298
0.04529890127
0.04728552232
0.04905131491
0.05053838774
0.05177226692
0.05276680913
0.05354901089
0.05416629079
0.05458462488
0.05480621326
0.05482662151
0.05467452959
0.05434395914
0.05388752413
0.05335218397
0.05270310035
0.05194430107
0.05106775998
0.0501157483
0.04907290051
0.04797377524
0.04683863331
0.04561391118
0.04429355882
0.0430091896
0.04166344545
0.04022918238
0.03875275919
0.03731739676
0.03583651769
0.0343331709
0.03282612521
0.03129794797
0.02978042317
0.02831327793
0.02684607225
0.02540447995
0.02400358401
0.0225909934
0.02123834165
0.01991997114
0.01861662907
0.01734553013
0.0161113747
0.01492089938
0.01378082661
0.0127015927
0.0116593717
0.01064717658
0.009675544282
0.008773296735
0.007929796859
0.007116199055
0.0063563074
0.00565686458
0.005008806263
0.004409454343
0.003836272643
0.003337927277
0.00287974905
0.002477551304
0.002104829114
0.001785899161
0.001510988352
0.001252812509
0.001002659204
0.001882216051
0.003248088886
0.005552316419
0.0092195587
)


101
(
0
-1.226277183e-11
-3.320004875e-09
-1.272212331e-08
5.228972489e-08
5.33570908e-07
2.266185473e-06
7.430619365e-06
2.069081001e-05
5.1177241e-05
0.0001148927352
0.0002361583922
0.0004503294955
0.0008025540041
0.001346535132
0.002142349403
0.003251244616
0.00472419878
0.006604862105
0.008916168802
0.01165429892
0.01479233953
0.01828012521
0.02204357935
0.02598222505
0.03001248767
0.03406391974
0.03805825228
0.0419180465
0.04556961739
0.04895652065
0.05207298146
0.05493367789
0.05758349868
0.05994608263
0.06203559292
0.06386162306
0.06542884782
0.06677740814
0.06792870027
0.06886734862
0.06955201012
0.0700314751
0.07028451863
0.07034590428
0.07028224418
0.07005084228
0.06965497211
0.06912310901
0.06846968842
0.06761342452
0.06664762519
0.06564988699
0.06450935967
0.0632003544
0.06184110804
0.06046140974
0.05889439577
0.0572606008
0.05559989466
0.05389781067
0.05207824279
0.05020598029
0.04827889712
0.04635592415
0.04444674037
0.04249943452
0.04058263224
0.03863336561
0.0367018888
0.03480484732
0.03296285977
0.0310850356
0.02922624963
0.02739503424
0.02559452616
0.02385594036
0.02221509549
0.02057953176
0.01900592457
0.01745510151
0.01599570362
0.0146063195
0.01325253457
0.01197778161
0.01079483762
0.009674350814
0.008628859735
0.007619567577
0.00671654092
0.00589841399
0.005154167785
0.004456347543
0.003845855542
0.003312082519
0.002812959577
0.002311685751
0.004114270351
0.006877183539
0.01140604462
0.02003141171
)


101
(
0
3.48824367e-12
-3.331483513e-09
-1.396461366e-08
3.971649649e-08
4.654489788e-07
2.015476055e-06
6.651070749e-06
1.85984938e-05
4.620440518e-05
0.0001043436091
0.0002159775299
0.0004150894416
0.0007464226764
0.00126470845
0.002033163213
0.003119443732
0.004584642279
0.006484713825
0.008858916976
0.01171635015
0.01504730005
0.01881246851
0.02294665778
0.02736015159
0.03196412664
0.03668710026
0.04144516692
0.0461559178
0.05072865282
0.05508327668
0.05919337144
0.06307373962
0.06679160772
0.07022606422
0.07338708103
0.07626821438
0.07887502516
0.0812441814
0.0833919287
0.08532215869
0.08700584545
0.08844291757
0.08961295881
0.09050560515
0.09119495093
0.09169663087
0.09199171743
0.09207929142
0.09203786375
0.09168024556
0.09110571846
0.09052687616
0.08971950512
0.08868115413
0.08751617427
0.08629819327
0.08483542113
0.08316910076
0.08142427383
0.07963375144
0.07762250281
0.07540511269
0.0731195271
0.07082580164
0.06841943135
0.06600203416
0.06347762251
0.06096654914
0.05840052708
0.05580267727
0.05327960256
0.05067566101
0.0480604461
0.04544031743
0.04280058782
0.04026335259
0.03776375605
0.03528352679
0.0329005883
0.03048417356
0.02816526403
0.02595705298
0.02379272569
0.02166642744
0.01968858695
0.01786640067
0.01607109857
0.01438453929
0.01282601514
0.01138510902
0.01006995924
0.008829720202
0.007707832321
0.006739368722
0.005816711181
0.004891781474
0.008392870295
0.01370569678
0.02251963293
0.02747338904
)


101
(
0
2.024868231e-11
-3.317228621e-09
-1.496850251e-08
2.872288219e-08
4.05046197e-07
1.792900045e-06
5.959838056e-06
1.674146517e-05
4.177627469e-05
9.489389955e-05
0.0001977873844
0.0003830389876
0.0006947407354
0.001188219499
0.00192905617
0.002990277405
0.004442014958
0.006350987036
0.008772752307
0.01172794585
0.01522580108
0.01924210491
0.02372193077
0.0285933425
0.03376597231
0.03916645985
0.04470803304
0.05030705566
0.05587001463
0.06130464773
0.06655864938
0.0716218034
0.07657485228
0.08128115648
0.08573872535
0.08993496047
0.09386106528
0.09755637988
0.101057642
0.1043578403
0.1073954587
0.1101761057
0.1126636528
0.1148461582
0.1167563578
0.1183815567
0.1197604268
0.1209226007
0.1218706042
0.1224681449
0.1227749339
0.1229856377
0.1229338623
0.1225885708
0.1220092137
0.1213153136
0.1203416333
0.1189823031
0.117447467
0.1157353781
0.1137959512
0.1114547661
0.1090263948
0.1064789205
0.1036562298
0.1007535965
0.09769006767
0.09461948112
0.09134270316
0.08792851061
0.08458613275
0.08105178104
0.07751538629
0.07391957995
0.07016729895
0.06650930353
0.06279343891
0.05917935008
0.05555640044
0.05191232962
0.04838421079
0.0448690219
0.04149045738
0.03818180451
0.03488800606
0.0318827248
0.02895190458
0.02612807875
0.02350440905
0.02101732407
0.01871704074
0.01661915839
0.01465807742
0.01295407953
0.01132943747
0.009711713596
0.01634926433
0.02650109829
0.0438703903
0.0762569792
)


101
(
0
3.785581625e-11
-3.278031204e-09
-1.575977522e-08
1.913148547e-08
3.514639443e-07
1.594999326e-06
5.34549592e-06
1.508896133e-05
3.782083252e-05
8.639059699e-05
0.0001812895854
0.0003536752165
0.0006467479785
0.001116010672
0.001828702944
0.002862024119
0.004293935934
0.006200720035
0.008651756486
0.01168103389
0.01531770456
0.01955575848
0.02435045089
0.02965333133
0.03538154179
0.04145553363
0.0477847817
0.05429402352
0.06089645139
0.06749869351
0.0740273147
0.08042807782
0.08680164474
0.09298371529
0.09898114142
0.104771746
0.1103535741
0.1157601161
0.1209818249
0.1260444232
0.130864143
0.1354751344
0.1398142569
0.1438128377
0.1474729508
0.1508206123
0.1539181928
0.1566600691
0.1591958735
0.1614068968
0.1632352321
0.1648475983
0.1661938604
0.1671498598
0.1676843701
0.168100407
0.1682213235
0.1677457949
0.1669136511
0.1658134927
0.1644056348
0.1624665476
0.1603476448
0.1577355133
0.1549567324
0.1518094884
0.1483311837
0.1447528883
0.1407885579
0.1366424434
0.1323785364
0.1278306825
0.1231828565
0.118394652
0.1133543662
0.1081093427
0.1029564646
0.09766079788
0.09229963857
0.08700672886
0.08173746484
0.07622992172
0.0709882555
0.06585991745
0.06069370478
0.05572249158
0.05102104978
0.0463635871
0.0419749356
0.03781560694
0.03385800263
0.0303219724
0.02697255077
0.02403809699
0.02125754437
0.01847522545
0.03109823729
0.05059975491
0.08567038322
0.1393489308
)


101
(
0
5.603050365e-11
-3.220141535e-09
-1.63628626e-08
1.078098346e-08
3.039022273e-07
1.41874409e-06
4.798288489e-06
1.361479123e-05
3.42776049e-05
7.871068525e-05
0.0001662481095
0.0003266097219
0.000601882495
0.001047341488
0.001731196605
0.002733744113
0.004139394544
0.006032741936
0.008493539447
0.01157265341
0.01531695752
0.01974433823
0.02481692093
0.03051333774
0.03676826067
0.04349885523
0.05060908956
0.05803884902
0.06571434048
0.07354426044
0.08144087514
0.08933017848
0.09729577054
0.1051553996
0.1129595106
0.1206793001
0.1282533534
0.1357140035
0.1430956341
0.1503901112
0.1575217535
0.1644983379
0.17124164
0.1776907621
0.1838533082
0.1896703276
0.195230735
0.2003822396
0.205289158
0.2099328849
0.2142238365
0.2181509278
0.2218012505
0.2249962339
0.2275397355
0.2299757369
0.2320067698
0.233338534
0.2341017957
0.2344718523
0.2343759932
0.2337518981
0.232724711
0.2308418526
0.2287625026
0.2258468324
0.2224505485
0.2187402455
0.2146491531
0.2100543885
0.204970004
0.1994839336
0.1936337592
0.1873749034
0.1808652474
0.1741497051
0.1670137079
0.1595698959
0.1519476067
0.1444220008
0.1365099302
0.1284049432
0.120298102
0.1123753621
0.1044263121
0.09634294627
0.08875533882
0.08123575613
0.0739796168
0.06719460136
0.06048590104
0.05448030235
0.04889382645
0.04381955895
0.03906030413
0.03435179601
0.05872415233
0.09695814589
0.169186602
0.2492940074
)


101
(
0
7.459992021e-11
-3.14347888e-09
-1.679827801e-08
3.534040057e-09
2.616712501e-07
1.261424808e-06
4.30978918e-06
1.229600515e-05
3.109422685e-05
7.175402604e-05
0.0001524775869
0.0003015499454
0.0005597271914
0.0009816520508
0.00163584485
0.002604618642
0.00397762339
0.005846754281
0.008299831016
0.01140507247
0.01522557428
0.01980371267
0.02511152138
0.03115361588
0.03789314223
0.04525000444
0.05312204127
0.06146726411
0.07022806347
0.07931433018
0.08864229265
0.09813543625
0.1078691588
0.117609545
0.1274612475
0.1373982478
0.1473362535
0.1573008613
0.167301586
0.1773194811
0.1873303233
0.1972582463
0.2071070268
0.2167966749
0.2262580916
0.2354655519
0.2444638046
0.2531138869
0.261541332
0.2697246954
0.2775991281
0.2850972704
0.2922952446
0.2990735677
0.3051498537
0.3109808265
0.3162071319
0.3208079983
0.3247571587
0.3277107814
0.3304164247
0.3324591173
0.333807346
0.3340217432
0.3337705843
0.332340381
0.3300953567
0.3272501128
0.3239426218
0.3194205425
0.3143569639
0.3086247016
0.3019412404
0.2944213388
0.2865193402
0.2779938716
0.2686885186
0.2589883216
0.2486865881
0.2380260573
0.2265802195
0.2149704163
0.2030020066
0.1904345472
0.1786873767
0.1661767141
0.1538316632
0.1417834969
0.1300493977
0.1188098868
0.1078399781
0.09754233575
0.08805600013
0.07950943856
0.07156414243
0.06371734853
0.1117698578
0.1881943243
0.3380182479
0.5748633275
)


101
(
0
9.340192828e-11
-3.052137036e-09
-1.708433249e-08
-2.731271945e-09
2.241516038e-07
1.12095215e-06
3.872750977e-06
1.111322032e-05
2.822611571e-05
6.543838235e-05
0.0001398300592
0.0002782703863
0.0005199911806
0.0009186022495
0.001542327251
0.002474440636
0.003808608513
0.005643274094
0.008073109857
0.01118193827
0.01504938651
0.01973430933
0.02523142184
0.03156259088
0.03872880835
0.04666461932
0.05526249606
0.06449754905
0.07433207343
0.08467697757
0.09545915195
0.1066374093
0.1182650221
0.1300860726
0.1422184538
0.1547007337
0.1673783867
0.1802329923
0.1933157966
0.2066366929
0.2201210636
0.233757949
0.2475165505
0.2612622446
0.2750715172
0.2887365402
0.3023851161
0.3159343242
0.3292848652
0.342439701
0.3555015718
0.3682456187
0.3806446009
0.3926799532
0.4042652075
0.4155969886
0.4261643149
0.4360720298
0.445187814
0.4530553934
0.4607340338
0.4675285034
0.4733553293
0.478050804
0.4816885984
0.4839393224
0.4849142546
0.4847350988
0.4836642635
0.480990373
0.477576928
0.4727608649
0.4663688566
0.4587313328
0.4501440933
0.4403946912
0.4294194165
0.4173674163
0.4041784884
0.3901110742
0.3745109505
0.3583612645
0.3410261453
0.3225474557
0.3046637741
0.2862111284
0.2667597404
0.2476101927
0.229145799
0.2106974913
0.1924663545
0.1756969239
0.1596482386
0.1454840213
0.1321842849
0.1193685354
0.2159849075
0.3710205124
0.6775350732
1.165765918
)


101
(
0
1.127748851e-10
-2.943109709e-09
-1.723843237e-08
-8.125545619e-09
1.90848424e-07
9.952882442e-07
3.48096282e-06
1.004976012e-05
2.56353616e-05
5.969098097e-05
0.0001281897868
0.0002565866868
0.0004824443634
0.0008579641705
0.001450514588
0.002343357119
0.00363283068
0.005422799875
0.00781500257
0.01090594219
0.01479030949
0.01954023005
0.02517700149
0.03173597045
0.03925625796
0.04770562745
0.0569827619
0.06706700639
0.07793640799
0.08951625768
0.1017581518
0.1146312008
0.1282429439
0.1423228239
0.1569573881
0.1722282673
0.1879827053
0.2041835848
0.2208686106
0.2380587025
0.2556898847
0.2738549562
0.2923929754
0.3112886226
0.3305243033
0.3500321721
0.3698481256
0.3897823188
0.4098151105
0.4298466434
0.4500649681
0.4703747999
0.4902575991
0.5099140691
0.5293596036
0.5488437224
0.5675853833
0.5857308124
0.6031049799
0.6192128202
0.6349573455
0.6497459655
0.6632508083
0.6762243304
0.6871554122
0.696587486
0.7042228593
0.7098920691
0.7145887509