/*--------------------------------*- C++ -*----------------------------------*\
| =========                 |                                                 |
| \\      /  F ield         | OpenFOAM: The Open Source CFD Toolbox           |
|  \\    /   O peration     | Version:  2.3.1                                 |
|   \\  /    A nd           | Web:      www.OpenFOAM.org                      |
|    \\/     M anipulation  |                                                 |
\*---------------------------------------------------------------------------*/
FoamFile
{
    version     2.0;
    format      ascii;
    class       dictionary;
    location    "constant";
    object      la_i10;
}
// * * * * * * * * * * * * * * * * * * * * * * * * * * * * * * * * * * * * * //

la_i10_table
101
(

101
(
0
0
0
0
0
0
0
0
0
0
0
0
0
0
0
0
0
0
0
0
0
0
0
0
0
0
0
0
0
0
0
0
0
0
0
0
0
0
0
0
0
0
0
0
0
0
0
0
0
0
0
0
0
0
0
0
0
0
0
0
0
0
0
0
0
0
0
0
0
0
0
0
0
0
0
0
0
0
0
0
0
0
0
0
0
0
0
0
0
0
0
0
0
0
0
0
0
0
0
0
-0.03458796855
)


101
(
0
-0.1971700157
-1.041726303
-2.606211444
-4.798868906
-7.434204396
-10.31561098
-13.25127454
-16.09803099
-18.74489263
-21.09419539
-23.09100826
-24.71767942
-25.95624866
-26.85310304
-27.46332346
-27.84471297
-28.05251127
-28.15774579
-28.13989686
-28.02249989
-27.78175097
-27.36317443
-26.76389218
-25.99266452
-25.07028734
-24.03138788
-22.91901884
-21.77312573
-20.63063777
-19.51852334
-18.45694381
-17.45807353
-16.53376513
-15.69800528
-14.94130558
-14.27504287
-13.68280269
-13.07257792
-12.48211926
-11.94565318
-11.45414795
-10.98482253
-10.53241683
-10.10068844
-9.694523234
-9.316610956
-8.960307317
-8.62051141
-8.294294557
-7.982040247
-7.682640679
-7.393626126
-7.112112114
-6.836717511
-6.567408277
-6.303977944
-6.047654556
-5.795777215
-5.548349032
-5.304571737
-5.0647442
-4.827934625
-4.592872741
-4.359273659
-4.128255409
-3.901090414
-3.67841156
-3.459199137
-3.241243724
-3.021612624
-2.804047852
-2.605978943
-2.448915126
-2.324551524
-2.148150824
-1.888696083
-1.676228648
-1.543475497
-1.395857196
-1.217686449
-1.044816586
-0.9407751253
-0.8857376299
-0.6452667161
-0.5470679444
-0.5046027156
-0.3926623063
-0.306941574
-0.3063803284
-0.1652009696
-0.131901813
-0.1109699934
-0.05538270321
-0.0348411884
-0.010978423
-0.005501690639
-0.006710048742
-0.007903589431
-0.009514668235
-0.01109740961
)


101
(
0
-0.1805918311
-1.003900492
-2.52454161
-4.640967337
-7.173485628
-9.929317797
-12.72172709
-15.41622679
-17.90708597
-20.10392277
-21.95278598
-23.43897321
-24.54779816
-25.32404264
-25.82144632
-26.0956434
-26.20182097
-26.21136365
-26.10900587
-25.92309216
-25.63290958
-25.19154556
-24.59430418
-23.84593057
-22.9622094
-21.97345677
-20.91713611
-19.82751213
-18.73906208
-17.67668566
-16.65887363
-15.69991648
-14.80622018
-14.00270042
-13.28017384
-12.62782014
-12.02686126
-11.43514061
-10.86510149
-10.35384711
-9.904807247
-9.484445357
-9.069331208
-8.65979795
-8.269479876
-7.911341104
-7.581615171
-7.27229202
-6.975911114
-6.693008859
-6.424545665
-6.169675537
-5.92413101
-5.684401664
-5.449551428
-5.220373891
-4.999653325
-4.785141695
-4.576259479
-4.372085133
-4.173033285
-3.978710807
-3.787543167
-3.598141817
-3.410531738
-3.226112816
-3.046786406
-2.873152223
-2.702703941
-2.528148238
-2.344532163
-2.163332209
-2.022803366
-1.952974268
-1.883378508
-1.688966786
-1.445526604
-1.311400969
-1.234023113
-1.114288888
-0.9607576686
-0.8459394256
-0.8135464685
-0.7307710587
-0.5369531707
-0.460884109
-0.4246986161
-0.3309806383
-0.2678302611
-0.2472729788
-0.1459510951
-0.1318452507
-0.1036301139
-0.04762314683
-0.02967235151
-0.02086745485
-0.02429585219
-0.02768570692
-0.03089490096
-0.03431581299
)


101
(
0
-0.1631376915
-0.9663864625
-2.444505338
-4.487623374
-6.921939163
-9.558282697
-12.21594271
-14.76837149
-17.11595096
-19.17445789
-20.89099028
-22.25402525
-23.25029767
-23.92348372
-24.32576625
-24.51137394
-24.53446385
-24.46563992
-24.29735472
-24.05894576
-23.73324051
-23.28067558
-22.69404633
-21.97476333
-21.13534922
-20.20079438
-19.20347858
-18.17470911
-17.1454846
-16.13839487
-15.17010667
-14.25453598
-13.39523716
-12.62364205
-11.9376708
-11.32434691
-10.74572601
-10.16864609
-9.607761123
-9.106819797
-8.68686107
-8.316413702
-7.95309942
-7.580219383
-7.209659586
-6.865644862
-6.556205617
-6.274016454
-6.006999732
-5.751539601
-5.509040254
-5.281538887
-5.066581892
-4.858937217
-4.655813659
-4.456718705
-4.265320075
-4.080896649
-3.902713143
-3.729734299
-3.561977083
-3.399460784
-3.241284048
-3.085989943
-2.932608221
-2.781653313
-2.634247725
-2.49227634
-2.356155259
-2.220318022
-2.074948326
-1.918050513
-1.77307033
-1.687972469
-1.662028136
-1.57861188
-1.383597822
-1.205198275
-1.125968709
-1.06468237
-0.9502779811
-0.8292105716
-0.7494577833
-0.7202511209
-0.6372095252
-0.4734533864
-0.4322121805
-0.3862588874
-0.3218144301
-0.280800349
-0.2328720083
-0.1613452721
-0.1391990026
-0.08079936518
-0.06098516267
-0.0563929063
-0.06046945372
-0.06395722764
-0.06472968797
-0.06340719854
)


101
(
0
-0.1467580389
-0.9291121138
-2.366142913
-4.338614964
-6.678917535
-9.201804727
-11.73256855
-14.15242429
-16.36807046
-18.30087919
-19.89982029
-21.15288009
-22.05178056
-22.63718648
-22.95965285
-23.07186153
-23.02699362
-22.89493321
-22.6737615
-22.39536288
-22.04605682
-21.58910852
-21.01920299
-20.33333212
-19.54045469
-18.66114275
-17.72406342
-16.75700791
-15.78813875
-14.83839898
-13.92295026
-13.05289949
-12.23048715
-11.48967287
-10.83921893
-10.26749868
-9.730247975
-9.18337675
-8.632527628
-8.127797837
-7.714160112
-7.379160447
-7.071590768
-6.749275674
-6.409406846
-6.080069607
-5.78276009
-5.519960842
-5.279342939
-5.050300587
-4.831162388
-4.625265248
-4.433468439
-4.25183979
-4.075891853
-3.903697877
-3.73745665
-3.577815085
-3.424221852
-3.275829488
-3.132652912
-2.994505096
-2.860708918
-2.730388736
-2.602869283
-2.478115009
-2.355866946
-2.236738375
-2.122392124
-2.011287024
-1.896490873
-1.77140201
-1.642168953
-1.538023964
-1.490467589
-1.456995479
-1.353240505
-1.188329399
-1.065235127
-1.014531474
-0.9487173216
-0.8489330396
-0.7533410912
-0.6950195237
-0.6575810499
-0.5694357589
-0.4559655852
-0.421903353
-0.3659776056
-0.3100644126
-0.2787678103
-0.2210280191
-0.1867264453
-0.1297275258
-0.1027707532
-0.09020448315
-0.0880214105
-0.0878562998
-0.1173150506
-0.1545179539
)


101
(
0
-0.1299509685
-0.8920060289
-2.289391475
-4.19379204
-6.44405508
-8.859237382
-11.27028337
-13.56624741
-15.65994455
-17.47828175
-18.97197873
-20.12889726
-20.94372974
-21.45498221
-21.71060433
-21.76228288
-21.66213221
-21.47854275
-21.21583842
-20.90651234
-20.54080841
-20.08694481
-19.53685905
-18.88599646
-18.13956991
-17.31472507
-16.43666927
-15.53016845
-14.62089332
-13.72850907
-12.86610507
-12.04294701
-11.25976679
-10.54515851
-9.921470594
-9.388274331
-8.903597561
-8.406199698
-7.878383165
-7.368295274
-6.941054802
-6.615912056
-6.352053232
-6.087449141
-5.792174824
-5.484222657
-5.196058955
-4.944925928
-4.723791999
-4.518734286
-4.322202127
-4.135438343
-3.961127163
-3.798643604
-3.643612518
-3.493671487
-3.348869007
-3.209896165
-3.076327044
-2.947461567
-2.823598794
-2.704544864
-2.589455495
-2.477438036
-2.368547721
-2.263255132
-2.160843567
-2.060172698
-1.961422885
-1.864881741
-1.767910221
-1.666609837
-1.562300743
-1.464162486
-1.392905554
-1.35109524
-1.300805199
-1.196665924
-1.06252567
-0.9774386659
-0.9352780919
-0.8710616135
-0.7845590522
-0.7118720683
-0.6617189254
-0.61203855
-0.5307279433
-0.4642117921
-0.4205339878
-0.3712511526
-0.3200627079
-0.2810143341
-0.2437026252
-0.1803919508
-0.1427324451
-0.130430754
-0.1616909222
-0.1916488586
-0.1914314264
-0.1808471716
)


101
(
0
-0.1122735285
-0.8551483843
-2.214206758
-4.05301918
-6.217074664
-8.529825219
-10.82800786
-13.0080487
-14.98883923
-16.70314002
-18.10238703
-19.17522344
-19.91718354
-20.36543538
-20.56568045
-20.56794837
-20.42276496
-20.19732085
-19.90103408
-19.5680374
-19.1917172
-18.74328836
-18.21460788
-17.59952528
-16.89982966
-16.12884508
-15.30779475
-14.45913995
-13.60727299
-12.77067478
-11.96169702
-11.187643
-10.44370684
-9.755562893
-9.15145609
-8.645161445
-8.207779234
-7.771147269
-7.290376173
-6.787955777
-6.339347387
-5.998250678
-5.75297516
-5.539736628
-5.299952502
-5.026648364
-4.750945387
-4.504649102
-4.294569337
-4.109167317
-3.934250226
-3.765717685
-3.606648649
-3.458370463
-3.318728983
-3.18517271
-3.057483893
-2.935177511
-2.818069123
-2.705056066
-2.596371832
-2.492431695
-2.39215572
-2.294420512
-2.199205121
-2.107831766
-2.020381349
-1.935060329
-1.849870281
-1.764258526
-1.677771011
-1.590202773
-1.505190913
-1.424969971
-1.351812662
-1.291351919
-1.246792474
-1.192459358
-1.095669466
-0.9869822665
-0.9261140627
-0.8894431046
-0.8235612645
-0.7519774646
-0.6930649318
-0.6492759909
-0.5965633646
-0.5162481882
-0.4780176294
-0.4340182649
-0.3882031149
-0.3391805449
-0.2974235869
-0.2271814936
-0.2104347979
-0.2013374214
-0.2195571202
-0.2400003909
-0.271774195
-0.3115352675
)


101
(
0
-0.09562309017
-0.8184925356
-2.140527103
-3.916139588
-5.997571422
-8.213043868
-10.40468999
-12.47614926
-14.35241411
-15.9715638
-17.28654935
-18.28505272
-18.96428925
-19.35932004
-19.51406353
-19.47630763
-19.29523604
-19.03611897
-18.71287018
-18.36154728
-17.97869773
-17.5381595
-17.03230804
-16.45284732
-15.79843293
-15.07864368
-14.31205584
-13.51902368
-12.72153382
-11.93777329
-11.18003212
-10.45358905
-9.752503755
-9.093360841
-8.503189081
-8.010474214
-7.60782105
-7.233276499
-6.815674154
-6.34655193
-5.885902355
-5.512609651
-5.256328548
-5.07283066
-4.888589206
-4.664257978
-4.412460423
-4.171022346
-3.963441857
-3.788809474
-3.632224642
-3.482743362
-3.338616788
-3.202794283
-3.075112682
-2.95361401
-2.838459922
-2.729116003
-2.625172549
-2.525125336
-2.428811304
-2.336922364
-2.24881263
-2.16287845
-2.078557182
-1.997454886
-1.920865162
-1.84765678
-1.77474941
-1.699645597
-1.621551475
-1.542195971
-1.46858812
-1.404174735
-1.342081714
-1.276168594
-1.219702955
-1.17967679
-1.127393136
-1.036253127
-0.946800343
-0.9084952326
-0.8661284738
-0.8033991531
-0.7435223573
-0.6945528174
-0.6519881539
-0.5864067039
-0.5354569449
-0.4869963217
-0.4405755072
-0.4068845888
-0.3597378836
-0.2977991367
-0.2670146895
-0.2336700449
-0.2665714016
-0.3029463128
-0.3545342857
-0.4187918859
)


101
(
0
-0.07860211507
-0.7819759867
-2.068311857
-3.783048971
-5.785264498
-7.908253995
-9.99929896
-11.9688719
-13.74807135
-15.27996055
-16.51931142
-17.45312715
-18.07936547
-18.4295296
-18.54689703
-18.47723768
-18.26782459
-17.98164362
-17.63746067
-17.27096357
-16.88311237
-16.45243634
-15.96901756
-15.42326473
-14.81212281
-14.14183063
-13.42738253
-12.68690119
-11.94097763
-11.20703358
-10.49795863
-9.819109329
-9.161098398
-8.53421829
-7.959175782
-7.471484575
-7.084669534
-6.757059577
-6.4108343
-6.000338892
-5.551829522
-5.149382704
-4.858755778
-4.674999689
-4.53083617
-4.360845533
-4.147689195
-3.920153266
-3.713490758
-3.541026017
-3.395012168
-3.262200762
-3.134362957
-3.011277997
-2.894811582
-2.783325066
-2.677901545
-2.578462843
-2.484839877
-2.3954455
-2.309588074
-2.227695648
-2.149824552
-2.074146971
-1.999276975
-1.926438665
-1.857703862
-1.793359182
-1.730592633
-1.665639312
-1.596044858
-1.523399198
-1.456441601
-1.401944117
-1.352360358
-1.292558045
-1.229079195
-1.181730533
-1.149212673
-1.094189064
-1.002504565
-0.9430709828
-0.9118241946
-0.8614142294
-0.8045833845
-0.7506592336
-0.7127048677
-0.6607229951
-0.601238109
-0.56085729
-0.5225642116
-0.4812789121
-0.4311984195
-0.3665370351
-0.3368468838
-0.3380652456
-0.3708058724
-0.4073259841
-0.4543611436
-0.5101644815
)


101
(
0
-0.060825969
-0.7456521967
-1.997488663
-3.653569399
-5.579883123
-7.614954431
-9.610983033
-11.48491482
-13.17373979
-14.62578181
-15.79738031
-16.67388519
-17.25418947
-17.56759012
-17.65537932
-17.56090176
-17.32959965
-17.0226723
-16.66078507
-16.2829648
-15.89294402
-15.4709778
-15.00839096
-14.49500946
-13.92545498
-13.07555517
-12.63769482
-11.94701845
-11.24954834
-10.56185609
-9.897635225
-9.26306733
-8.649617734
-8.058787071
-7.503340914
-7.016826351
-6.629911986
-6.329290772
-6.044993811
-5.706773985
-5.302141486
-4.890269104
-4.558816574
-4.346995344
-4.216870332
-4.094364939
-3.930223465
-3.729834908
-3.52889202
-3.355630905
-3.213662852
-3.091124769
-2.977940612
-2.869002011
-2.763465081
-2.662401076
-2.56604819
-2.475065839
-2.389596517
-2.309093624
-2.232134516
-2.15882811
-2.089799252
-2.023494192
-1.957568013
-1.892009656
-1.829378986
-1.771138858
-1.715883263
-1.659703066
-1.598721032
-1.532890894
-1.470732424
-1.42159683
-1.381062587
-1.331223641
-1.270513178
-1.215439993
-1.180293281
-1.148780562
-1.078669865
-1.005709853
-0.9686919596
-0.9291595993
-0.8779421758
-0.8226108167
-0.7861043604
-0.7429929752
-0.6826579758
-0.6403998707
-0.6009030264
-0.5577859332
-0.5136396381
-0.4493786096
-0.4189103569
-0.3971738926
-0.4596194318
-0.5227009989
-0.5707659925
-0.5635891367
)


101
(
0
-0.04390193374
-0.7095002378
-1.928041358
-3.527633903
-5.381185422
-7.3325704
-9.238776993
-11.02287424
-12.627426
-14.0060414
-15.11627585
-15.94319835
-16.48393474
-16.7676336
-16.83232476
-16.71899507
-16.47187311
-16.14880118
-15.77395116
-15.38662569
-14.99401357
-14.58111285
-14.13862503
-13.6551917
-13.1239048
-12.54543336
-11.92775167
-11.28442201
-10.63259098
-9.988091628
-9.364975444
-8.771588611
-8.200192051
-7.648183199
-7.118500312
-6.63766582
-6.243062361
-5.945929614
-5.703182272
-5.437250533
-5.09977494
-4.70970566
-4.350911291
-4.095273694
-3.948988857
-3.853401429
-3.739682957
-3.579493713
-3.395671239
-3.22318688
-3.080497981
-2.963966699
-2.861133793
-2.764738392
-2.671324859
-2.581126276
-2.494045142
-2.411053233
-2.333267536
-2.260174145
-2.190972029
-2.125137011
-2.063635757
-2.005566776
-1.948398912
-1.890592929
-1.833570668
-1.779960467
-1.729806488
-1.68030284
-1.627091764
-1.568486346
-1.511218586
-1.465214947
-1.429498398
-1.387971034
-1.334898452
-1.280207309
-1.238242926
-1.211457512
-1.164310935
-1.095560357
-1.044888858
-1.010965704
-0.9699791886
-0.9164985822
-0.8734942267
-0.8362595175
-0.7791945635
-0.7317521878
-0.6947595638
-0.6502706853
-0.6073308013
-0.5382470848
-0.5232114413
-0.5095939749
-0.555578757
-0.6132156967
-0.7161511384
-0.8989939148
)


101
(
0
-0.0266875707
-0.6734603857
-1.859902783
-3.405089778
-5.188871741
-7.060638434
-8.881952095
-10.58155286
-12.10732818
-13.41824439
-14.4732019
-15.25658912
-15.76418096
-16.02379801
-16.07078038
-15.94417958
-15.68619162
-15.35159654
-14.9670509
-14.57180337
-14.177491
-13.77208968
-13.34706517
-12.8911722
-12.3957911
-11.85889704
-11.28585635
-10.68727334
-10.07844897
-9.474483207
-8.889349689
-8.333003115
-7.800280342
-7.287666174
-6.790049748
-6.322152975
-5.919583127
-5.611640844
-5.385318967
-5.174727052
-4.911758697
-4.575037361
-4.216628036
-3.921729782
-3.737910562
-3.641213916
-3.563441369
-3.451429832
-3.298390254
-3.134838438
-2.990630392
-2.874572288
-2.778807883
-2.692398353
-2.61026402
-2.530717781
-2.453357377
-2.378785654
-2.308420832
-2.242413047
-2.180164891
-2.121119748
-2.065843951
-2.014684388
-1.965819448
-1.916311528
-1.865793012
-1.816611873
-1.770267285
-1.72550302
-1.678742856
-1.62720445
-1.575406447
-1.532310707
-1.498824664
-1.462344094
-1.416591991
-1.367072234
-1.323611399
-1.293245089
-1.258344058
-1.204690739
-1.145192765
-1.105619587
-1.075087192
-1.027415352
-0.9796376195
-0.9393256861
-0.8940005534
-0.8366837124
-0.8041154307
-0.7614231054
-0.7214385624
-0.6469837064
-0.6261892747
-0.6054389659
-0.6970717573
-0.7934810862
-0.8922872604
-0.9513283249
)


101
(
0
-0.008926397708
-0.6375814447
-1.793037219
-3.285833284
-5.002698043
-6.798677625
-8.539694616
-10.15969259
-11.61190104
-12.86008641
-13.86515072
-14.60985228
-15.0901088
-15.33107021
-15.3646802
-15.22975609
-14.96510846
-14.62365557
-14.2316763
-13.8307584
-13.43504395
-13.03560863
-12.62592466
-12.19449183
-11.73164991
-11.23298308
-10.70139371
-10.1451229
-9.577358202
-9.011757539
-8.461377236
-7.937632519
-7.44004825
-6.964623748
-6.502151752
-6.05638348
-5.654639076
-5.331019961
-5.098132299
-4.918154118
-4.721964245
-4.455866701
-4.130512855
-3.817249139
-3.589368436
-3.466452219
-3.402764356
-3.331614674
-3.219357435
-3.077183811
-2.936818989
-2.819398781
-2.72587728
-2.647119715
-2.574449321
-2.504433651
-2.436915564
-2.371211611
-2.308231629
-2.249165444
-2.193661086
-2.14087537
-2.091127012
-2.045679518
-2.003692376
-1.962468562
-1.919629739
-1.875951356
-1.833393506
-1.792303177
-1.750622362
-1.705509622
-1.659666757
-1.620359788
-1.588571608
-1.554603471
-1.514061647
-1.470428698
-1.430066156
-1.39636101
-1.363253252
-1.324687146
-1.267338431
-1.218185921
-1.191323315
-1.151710161
-1.10532087
-1.055257588
-1.018340009
-0.9668096866
-0.9302276969
-0.8825976161
-0.8423576433
-0.7704939339
-0.7497222977
-0.7321540224
-0.834417012
-0.9460319942
-1.066552514
-1.23996478
)


101
(
0
0.008240519002
-0.6018448863
-1.727401299
-3.1697591
-4.822435687
-6.546232193
-8.211289545
-9.75634856
-11.13969606
-12.32944896
-13.28897629
-14.00033872
-14.45733483
-14.68341662
-14.70875397
-14.56951638
-14.30254867
-13.95732357
-13.56178362
-13.15621053
-12.7582201
-12.36380537
-11.96687841
-11.55627965
-11.12195243
-10.65838788
-10.16586366
-9.64955031
-9.120409993
-8.590841948
-8.073769234
-7.580514184
-7.112549109
-6.670221573
-6.243223879
-5.827259159
-5.43602313
-5.101680278
-4.851353813
-4.677040078
-4.524560559
-4.329070847
-4.061928604
-3.761380153
-3.502571808
-3.338952175
-3.262413937
-3.217216697
-3.146550951
-3.035954209
-2.90831596
-2.791698037
-2.698443682
-2.623887753
-2.558842969
-2.497584418
-2.438659317
-2.381599899
-2.3266352
-2.274586248
-2.225580088
-2.179193766
-2.134873717
-2.093869365
-2.057381479
-2.023229983
-1.988495122
-1.951718682
-1.914016667
-1.876619579
-1.839121096
-1.799601148
-1.759900252
-1.725702943
-1.69660028
-1.663964337
-1.626702441
-1.58798996
-1.552562703
-1.519034494
-1.482898888
-1.452929685
-1.405370542
-1.350069674
-1.319774281
-1.288166153
-1.244622899
-1.192521562
-1.153887628
-1.109355167
-1.07080734
-1.019304549
-0.9775930372
-0.9046942075
-0.8860392684
-0.8540589582
-0.9663245289
-1.09207773
-1.235078977
-1.496470568
)


101
(
0
0.02559402429
-0.5662191165
-1.662946967
-3.056746818
-4.647830789
-6.302895801
-7.896062008
-9.370503912
-10.68918653
-11.82459938
-12.7427314
-13.42419754
-13.86222196
-14.0772245
-14.09827205
-13.95805665
-13.69229515
-13.34707363
-12.9499634
-12.5415996
-12.14213968
-11.75088251
-11.36384876
-10.97061733
-10.56133707
-10.12919188
-9.672028504
-9.192875384
-8.70028726
-8.205253474
-7.719277267
-7.253414141
-6.812496396
-6.398787669
-6.004528367
-5.62066125
-5.250637818
-4.916914546
-4.648942748
-4.461598532
-4.327798844
-4.187092586
-3.987686441
-3.728188375
-3.462848497
-3.261624047
-3.153971506
-3.109780795
-3.07168069
-2.9995843
-2.894107339
-2.784001017
-2.690497786
-2.61753311
-2.558471196
-2.505264681
-2.454232568
-2.405174135
-2.357923166
-2.313054047
-2.27065195
-2.230729177
-2.192302358
-2.155780389
-2.123177249
-2.094737667
-2.067301773
-2.038265062
-2.006672133
-1.973727908
-1.940250239
-1.9053622
-1.87120668
-1.843186685
-1.819023087
-1.788567354
-1.752978536
-1.717736031
-1.687394478
-1.657627812
-1.619515836
-1.591287199
-1.555168736
-1.500772067
-1.462422339
-1.436517632
-1.394825443
-1.34664148
-1.303453804
-1.263368286
-1.218744305
-1.174816362
-1.125856355
-1.056234589
-1.032297605
-0.997371975
-1.136850731
-1.284792638
-1.431683216
-1.252831419
)


101
(
0
0.04321519447
-0.5308040091
-1.599637115
-2.946700349
-4.478676793
-6.068258635
-7.59334263
-9.001265255
-10.25918864
-11.34389045
-12.22380159
-12.87896826
-13.30122931
-13.50871277
-13.52866846
-13.39048532
-13.12891683
-12.78697223
-12.39103247
-11.98148199
-11.5801569
-11.1907702
-10.81128457
-10.43233827
-10.04379108
-9.638591397
-9.213172885
-8.768246525
-8.310174773
-7.848021583
-7.392175497
-6.953010445
-6.535458303
-6.146122309
-5.77987686
-5.427574655
-5.084865553
-4.762430087
-4.487068549
-4.280995205
-4.143093549
-4.032759639
-3.892935703
-3.691912084
-3.449868211
-3.228154298
-3.082274536
-3.019237911
-2.994626953
-2.956959109
-2.883699792
-2.787933238
-2.696812858
-2.624144044
-2.568360829
-2.521895447
-2.478963062
-2.437483296
-2.397760353
-2.359851672
-2.324266955
-2.290810398
-2.258657822
-2.227440917
-2.19855147
-2.174170974
-2.15277999
-2.130953225
-2.106477014
-2.079059606
-2.050054327
-2.019261748
-1.989308813
-1.966874931
-1.949823143
-1.924576617
-1.891078622
-1.857587471
-1.830942189
-1.806820477
-1.770942803
-1.741521114
-1.71311384
-1.667045024
-1.620972685
-1.595083396
-1.557260218
-1.511612835
-1.465654928
-1.429484975
-1.373779187
-1.338947303
-1.288407087
-1.217767959
-1.199050255
-1.174965244
-1.320336467
-1.480919262
-1.656422756
-2.155266306
)


101
(
0
0.0605539126
-0.4952224511
-1.537452146
-2.839556443
-4.314818202
-5.842060048
-7.302456874
-8.647632975
-9.848528217
-10.88561412
-11.73020743
-12.36212203
-12.77142338
-12.97421024
-12.99483552
-12.86257055
-12.6077159
-12.27137573
-11.87944624
-11.47000698
-11.06759829
-10.67899388
-10.30448473
-9.936514397
-9.565167069
-9.182852693
-8.785317727
-8.371339548
-7.945268383
-7.514165876
-7.087189545
-6.673169675
-6.278167658
-5.909679766
-5.566413826
-5.241620495
-4.928455455
-4.627699679
-4.354815731
-4.134437558
-3.980637909
-3.876920222
-3.778113515
-3.636343583
-3.438471461
-3.222185601
-3.047707171
-2.951943824
-2.921202595
-2.906402059
-2.865894022
-2.794026737
-2.711100293
-2.639227352
-2.584969956
-2.542917618
-2.507050395
-2.473466845
-2.441337097
-2.410688517
-2.38193441
-2.354934142
-2.329310237
-2.304128656
-2.280062931
-2.259159542
-2.24246887
-2.227139902
-2.209604816
-2.188502638
-2.164714963
-2.138499252
-2.111896281
-2.092997116
-2.08315267
-2.066085182
-2.037930673
-2.00627055
-1.981075335
-1.961675799
-1.931617784
-1.902827827
-1.876757887
-1.841979694
-1.794792371
-1.763002265
-1.730141044
-1.687901508
-1.641327489
-1.606159875
-1.546367787
-1.510172366
-1.46403847
-1.392485514
-1.378071483
-1.349007751
-1.514029271
-1.693682572
-1.894859096
-2.07351585
)


101
(
0
0.07795018511
-0.4601212734
-1.476327577
-2.735164239
-4.155980737
-5.623860565
-7.022919328
-8.308981894
-9.456173348
-10.44848398
-11.26030214
-11.87106543
-12.26974478
-12.47037744
-12.49443157
-12.36936758
-12.12408385
-11.79605455
-11.40974824
-11.00263348
-10.59993973
-10.21098363
-9.839821973
-9.479709091
-9.121714521
-8.757994611
-8.383895377
-7.997259688
-7.600360712
-7.198511927
-6.798585163
-6.409506534
-6.035680389
-5.685846427
-5.362115754
-5.06070772
-4.774117178
-4.498017373
-4.239241938
-4.015257643
-3.845143611
-3.731819014
-3.649837428
-3.55429799
-3.410373193
-3.223057608
-3.03953104
-2.912244456
-2.858180167
-2.848693819
-2.83615892
-2.793097695
-2.726330471
-2.658052481
-2.603992993
-2.565239148
-2.535175311
-2.508535319
-2.483745364
-2.460709442
-2.438956494
-2.418600725
-2.399627278
-2.381231784
-2.362994928
-2.346650288
-2.333896685
-2.324128833
-2.313265985
-2.29877195
-2.280798154
-2.260113158
-2.23755035
-2.220864826
-2.215475318
-2.207474034
-2.188489219
-2.16202016
-2.137950217
-2.120532219
-2.096340614
-2.072245677
-2.045952612
-2.019486216
-1.979178184
-1.941913005
-1.909991686
-1.874262014
-1.828171214
-1.791037202
-1.734911622
-1.692991529
-1.65099922
-1.582789035
-1.57008964
-1.543780786
-1.724163331
-1.923787046
-2.152077955
-2.240301359
)


101
(
0
0.09536985324
-0.424998997
-1.416242245
-2.6334631
-4.002001199
-5.412663119
-6.754159081
-7.984371876
-9.081120237
-10.03134175
-10.81236383
-11.40411002
-11.79421424
-11.99411021
-12.02368538
-11.90772101
-11.67367611
-11.35628142
-10.97798935
-10.5748607
-10.17249545
-9.783294472
-9.41328001
-9.058141457
-8.709920331
-8.36119606
-8.006767403
-7.643382676
-7.272110813
-6.897026612
-6.522954598
-6.157092852
-5.805063725
-5.472886367
-5.165474052
-4.881819114
-4.617829656
-4.367383064
-4.128841678
-3.911258881
-3.732362146
-3.603140401
-3.519745399
-3.450937749
-3.35452013
-3.211277383
-3.041761157
-2.895094148
-2.811865308
-2.79029707
-2.792129035
-2.777756613
-2.73396401
-2.675799046
-2.623130094
-2.584943676
-2.558804801
-2.538844946
-2.521807012
-2.505530934
-2.491115865
-2.47776622
-2.465331244
-2.453730537
-2.442248069
-2.431754695
-2.423816868
-2.418943805
-2.41450861
-2.406753972
-2.395154317
-2.380937998
-2.364040292
-2.350283158
-2.346911301
-2.34570549
-2.337160003
-2.320445123
-2.301100119
-2.284318627
-2.263199673
-2.246448127
-2.221759207
-2.198219069
-2.167676833
-2.132062786
-2.097220286
-2.068528422
-2.025292391
-1.983637727
-1.935693256
-1.891022592
-1.848276592
-1.786139004
-1.772538479
-1.744976363
-1.952301636
-2.180467144
-2.43895072
-2.894958431
)


101
(
0
0.1127250836
-0.3901485562
-1.357174882
-2.534390219
-3.852659842
-5.209105518
-6.495580102
-7.673040042
-8.722223153
-9.632780437
-10.38485623
-10.95906188
-11.34194486
-11.54306081
-11.57930874
-11.47389617
-11.25248064
-10.9471465
-10.57939504
-10.18227191
-9.781210631
-9.391525854
-9.021488914
-8.669299244
-8.327888061
-7.99024502
-7.651225743
-7.307095757
-6.958028132
-6.606841902
-6.256202233
-5.91365516
-5.581450443
-5.266620901
-4.973535832
-4.70546005
-4.459154161
-4.229719483
-4.012859771
-3.81070033
-3.632372737
-3.49170766
-3.396772575
-3.333856691
-3.271248994
-3.173235048
-3.03550058
-2.889596818
-2.781772512
-2.736694306
-2.737729279
-2.744081544
-2.726680367
-2.685034412
-2.637883495
-2.600579106
-2.575981326
-2.560674069
-2.549581452
-2.541554425
-2.534332662
-2.528198874
-2.522670251
-2.517606636
-2.51312638
-2.509293942
-2.50717475
-2.507847274
-2.509647283
-2.508930662
-2.504525154
-2.497561658
-2.488282443
-2.479739831
-2.478400466
-2.4804987
-2.480619897
-2.475561307
-2.466362857
-2.453519792
-2.432794024
-2.422834865
-2.404319624
-2.381627273
-2.35783343
-2.331130048
-2.294756228
-2.270696216
-2.234126827
-2.188346377
-2.147164503
-2.104399036
-2.060762975
-2.00303061
-1.98906544
-1.957780934
-2.197816893
-2.461517847
-2.757274351
-3.040392642
)


101
(
0
0.1298428235
-0.3549174617
-1.299071332
-2.437807589
-3.707867855
-5.012440194
-6.246809017
-7.374445267
-8.378809487
-9.252036338
-9.976639061
-10.53461054
-10.91133966
-11.11440366
-11.15873546
-11.06509877
-10.85740466
-10.56579367
-10.20967155
-9.820330921
-9.422553818
-9.032758371
-8.661731626
-8.31028506
-7.972672639
-7.642687604
-7.315267391
-6.986799418
-6.656241287
-6.325055249
-5.997025846
-5.67472555
-5.36162001
-5.064493861
-4.785079184
-4.529159834
-4.29610534
-4.084648649
-3.888108499
-3.704106736
-3.534622926
-3.390915613
-3.282782161
-3.21394526
-3.165417616
-3.104681055
-3.006975177
-2.879791991
-2.761931748
-2.691528264
-2.677566794
-2.691934659
-2.697962498
-2.678930556
-2.642908226
-2.60818501
-2.584362728
-2.57186716
-2.566375971
-2.564333543
-2.564447416
-2.565612941
-2.567630713
-2.569525833
-2.571627439
-2.574712331
-2.579427914
-2.586229687
-2.594445873
-2.600980124
-2.604382992
-2.605699516
-2.60587418
-2.605858736
-2.608945056
-2.613215587
-2.61875314
-2.623710113
-2.627371143
-2.624465377
-2.605708308
-2.599957957
-2.591391912
-2.573442885
-2.552181589
-2.536994165
-2.504287105
-2.482476664
-2.455371489
-2.409824617
-2.372705411
-2.33179808
-2.291077741
-2.236681709
-2.224994322
-2.193383823
-2.467560622
-2.770672512
-3.110276286
-3.473232091
)


101
(
0
0.1464035401
-0.3204516865
-1.241931545
-2.343701149
-3.56743274
-4.822488104
-6.007238568
-7.087734094
-8.049837768
-8.887774575
-9.586480655
-10.12910072
-10.50044219
-10.70618878
-10.75928654
-10.67816567
-10.48505054
-10.20836743
-9.865469517
-9.485694715
-9.092630014
-8.703310623
-8.330832094
-7.978564056
-7.642364942
-7.317205605
-6.998163607
-6.681407625
-6.365524047
-6.051232521
-5.741104081
-5.438703404
-5.143987564
-4.862141418
-4.596722757
-4.351382317
-4.130394278
-3.930941316
-3.75047132
-3.584285241
-3.429953646
-3.290897782
-3.175698884
-3.095633447
-3.046515628
-3.007522082
-2.945968723
-2.851347166
-2.740296342
-2.652715499
-2.616238406
-2.625031275
-2.645843597
-2.649584923
-2.631383288
-2.603619161
-2.581861932
-2.5705092
-2.568344883
-2.571891951
-2.578475957
-2.58648539
-2.595744258
-2.605270688
-2.614563317
-2.624453721
-2.636007857
-2.649821127
-2.664765265
-2.678850616
-2.690220888
-2.700328897
-2.711300922
-2.723208392
-2.735027421
-2.743189805
-2.752541121
-2.764651552
-2.780390534
-2.791883244
-2.780325376
-2.777431394
-2.779683102
-2.773066483
-2.755256111
-2.749158392
-2.725430745
-2.705677129
-2.688621858
-2.648486597
-2.616840561
-2.575784747
-2.540772525
-2.490957716
-2.485965697
-2.455875139
-2.768206805
-3.114482723
-3.502089976
-3.870627513
)


101
(
0
0.1649303264
-0.2859037279
-1.185705548
-2.25194449
-3.431156809
-4.638849125
-5.776538281
-6.812431761
-7.734642802
-8.539262273
-9.213364646
-9.741212503
-10.10752643
-10.3164362
-10.37874572
-10.31057048
-10.13290484
-9.871433495
-9.543184927
-9.174491386
-8.787496272
-8.399733113
-8.025852791
-7.671204119
-7.334804128
-7.011686355
-6.697760828
-6.389269374
-6.084511025
-5.783706392
-5.48942861
-5.202419643
-4.924287231
-4.657846918
-4.405963482
-4.171175657
-3.958486237
-3.768956231
-3.601183941
-3.450129326
-3.311180801
-3.181848672
-3.067806797
-2.978561111
-2.92131825
-2.887576261
-2.853540392
-2.792235284
-2.703261446
-2.612553195
-2.5553504
-2.547686329
-2.571170708
-2.593657434
-2.595596171
-2.580838599
-2.563496937
-2.554012175
-2.55384976
-2.560985051
-2.572769236
-2.587580524
-2.603719967
-2.620517785
-2.637513323
-2.654786225
-2.673350077
-2.694301307
-2.716894606
-2.738806209
-2.758219089
-2.776879691
-2.798700709
-2.824616116
-2.849927503
-2.866568683
-2.880639935
-2.899069835
-2.924119962
-2.950983685
-2.952177173
-2.954159153
-2.966132576
-2.975752049
-2.967541865
-2.967638732
-2.956562008
-2.94096913
-2.93366377
-2.90240987
-2.880865078
-2.840515021
-2.812379974
-2.769010332
-2.775078859
-2.747583709
-3.100911503
-3.493228702
-3.932961421
-5.895114514
)


101
(
0
0.1808330976
-0.2515268818