/*--------------------------------*- C++ -*----------------------------------*\
| =========                 |                                                 |
| \\      /  F ield         | OpenFOAM: The Open Source CFD Toolbox           |
|  \\    /   O peration     | Version:  2.3.1                                 |
|   \\  /    A nd           | Web:      www.OpenFOAM.org                      |
|    \\/     M anipulation  |                                                 |
\*---------------------------------------------------------------------------*/
FoamFile
{
    version     2.0;
    format      ascii;
    class       dictionary;
    location    "constant";
    object      la_r1;
}
// * * * * * * * * * * * * * * * * * * * * * * * * * * * * * * * * * * * * * //

la_r1_table
101
(

101
(
410.9068898
-2395.403904
17987.17123
84210.1379
139056.2032
68629.07352
278631.8251
209780.8325
243441.5111
196002.4584
165809.8545
4057.791521
-1569.47038
-178497.4543
-304590.8366
-410568.2148
-528832.1038
-468069.9136
-676916.8394
-544181.5427
-477724.322
-579191.7721
-499358.4151
-411963.7611
-355878.1571
-303572.5964
-248807.444
-213806.204
-170774.1337
-135998.3236
-100953.4807
-60332.66096
-62354.70187
-31616.61725
-11053.86275
21624.02916
76294.04448
71758.80961
139542.2741
181160.0995
144576.3508
162727.4778
167243.7891
141033.7306
151229.902
141583.8714
148354.7955
140325.4296
142014.8653
130980.3611
124763.3005
120014.383
112945.1089
104613.0695
97962.59355
107248.9476
90772.49389
91803.34978
86108.29416
83797.2264
79513.70039
73751.74109
70837.10948
67089.45391
63911.33664
59571.26384
55275.20622
53564.48659
49432.18873
46065.49565
43333.1232
41706.60711
37482.40222
37956.54821
29539.47001
19196.76625
18849.27145
18776.47466
16265.04659
13839.99152
12855.48208
11328.30837
11479.22736
6600.890344
3891.046064
3843.824655
3333.170305
2797.756855
2980.109079
1100.366759
622.0242647
786.1305681
369.9868507
274.4238933
69.46086902
-9.238450684
-4.571137074e-10
1.265190505e-31
-3.747524962e-34
5.769733491e-36
2.281575611e-32
)


101
(
406.3461607
-1531.871889
21288.00965
74220.34851
83059.63083
-57103.25605
36045.66223
-114023.262
-147209.959
-211696.6887
-216468.0965
-284969.8855
-202343.6649
-223055.2056
-200134.8847
-173720.5713
-176087.4171
-40080.79144
-183026.4218
-42748.62648
185.2586745
-96339.88529
-56937.43356
-25211.6065
-15285.4911
-8552.527454
-64.73596297
-4448.890825
-318.8842594
-460.1267261
3401.941526
17391.64129
-12170.91611
1020.851642
3035.95834
11475.08176
13940.75691
-7666.665382
-6519.438333
-4351.276773
-407.002962
417.7266255
1320.729927
1619.42295
2673.00272
2816.203743
4351.642275
4613.404576
6163.816193
6055.911019
6693.980962
7028.155095
7178.908019
7082.296679
7193.558108
10285.82683
8517.606922
11024.80522
10571.31293
12017.45336
12281.71543
12542.44699
13110.03688
13407.92305
14063.82153
14302.43329
14484.34997
15092.48375
15076.31671
15345.9265
15357.7815
15425.82872
14541.41959
14967.51065
12077.07096
10029.20587
9502.239488
8764.014603
8039.786706
7468.320474
7231.374114
6731.786101
6734.571212
5258.201028
4450.656168
3575.888758
2969.737987
2586.501155
2407.120327
1757.839766
1447.711408
1062.280328
771.8298412
577.8779192
225.6794739
-110.7827256
-229.4214389
-333.244009
-347.941754
-367.6963969
-379.9592558
)


101
(
401.7297942
-965.3825638
22273.224
75096.53826
88265.9133
-32804.71332
57058.86341
-49791.71236
-61062.94211
-87883.69123
-63953.59623
-88001.33356
-1224.149886
10609.26412
43200.92259
70309.44795
61828.98304
163085.7574
46899.56636
111873.8038
148040.3301
57694.14014
47600.34262
59241.80528
58631.49937
53895.9505
51644.57212
42620.20528
38565.07647
34583.85017
33670.87968
41372.34753
23303.77236
23420.32936
25693.14469
30113.61889
34552.23849
25254.30995
19861.16753
19033.88309
20965.93271
21545.66079
21681.77548
21730.69719
21531.40036
21367.35326
21373.34933
21392.93738
21619.36527
21702.2932
21750.45678
21844.69731
21928.82073
21979.61819
22073.2832
23096.84451
23436.78871
24128.12577
24648.11058
25255.11731
25800.7955
26124.5072
26451.46818
26762.21573
27112.22004
27290.17575
27287.86199
27323.71019
27257.00137
27104.58759
26818.0011
26374.1398
25479.85863
24641.73722
23173.70424
21430.73735
20002.47544
18470.23238
16787.76526
15326.31357
14245.68294
13194.11689
12208.41279
11000.4659
9716.275883
8371.405677
7034.995856
5950.478391
5170.231534
4364.045962
3576.035317
2856.04668
2205.353452
1708.075642
860.5983439
-327.6719808
-1493.748183
-2481.427613
-2652.254022
-2879.497981
-3033.62228
)


101
(
397.0586303
-441.8177499
23167.9981
75821.09685
92922.00481
-10758.48562
76456.96293
6840.588415
15997.00524
21432.4136
70795.24552
83909.85469
177748.5455
214849.218
257056.0826
286808.9148
276071.3472
346221.8647
253149.7032
262683.8258
282258.904
199098.4146
153504.2557
141508.3833
128941.3148
113813.3908
101498.7671
86779.33268
75650.36435
67001.07894
61590.1876
63719.94633
51733.78211
45458.20351
44987.84752
47683.93522
51144.83056
47336.09127
41975.17828
38700.45726
38269.69887
38310.98712
37862.45439
37385.60357
36658.96054
35854.62825
34978.28434
34137.09897
33347.24633
32653.16923
31987.87752
31391.80405
30862.25698
30399.76581
30022.8596
29904.455
29904.28896
29953.15632
30079.41631
30222.77817
30426.28713
30592.22323
30740.39245
30893.84614
31048.23364
31140.17485
31132.1164
31094.10767
31032.89659
30901.19601
30639.5798
30220.90753
29470.69744
28518.05829
27416.03215
26229.46924
25017.63861
23548.1391
21741.4758
19944.6501
18461.40598
17151.60775
15873.06651
14578.57103
13246.62506
11837.91345
10283.90086
8784.786174
7567.812853
6552.17723
5624.488871
4687.839547
3827.26607
3077.269091
1497.169497
-951.1862217
-4496.525414
-7747.899531
-8430.178731
-9340.601397
-9992.491794
)


101
(
392.3335992
40.67303707
23974.54409
76400.44197
97062.64158
9214.845794
94317.5591
56761.50354
84869.99955
118097.3744
190098.994
234672.5364
337451.4628
395127.7468
446832.1767
480790.7602
470975.0735
515279.3415
440241.1498
411081.9724
409490.2051
331281.092
261279.2161
225591.7684
199297.4432
173955.4729
152098.3356
130995.726
113324.3191
99613.99798
89814.19585
86828.20554
77561.6384
68316.88747
65114.95154
66012.18442
67502.84401
66446.16108
62742.70793
58732.30023
56633.63526
55881.48731
55048.08648
54190.86292
53179.18781
51912.50887
50454.41244
48848.83093
47205.54218
45579.98173
43996.31358
42466.99341
41014.04948
39655.28545
38385.8761
37197.43569
36178.56501
35272.48197
34496.6906
33797.48211
33223.88296
32754.29276
32351.89469
32033.77386
31769.76815
31533.7008
31320.31034
31130.99159
30955.61301
30781.41583
30549.08367
30228.47365
29686.36229
28932.1878
28093.42016
27292.57059
26520.07195
25519.52086
24080.65157
22417.84537
20864.57118
19500.49525
18208.3393
16931.81329
15643.65491
14324.63465
12847.97711
11277.61343
9808.532221
8595.365064
7536.874739
6523.320699
5482.707913
4563.745382
2067.272332
-2160.303148
-9850.256941
-17284.20698
-19022.44482
-21259.12367
-22349.85464
)


101
(
387.5556354
483.9325836
24694.88969
76840.13577
100720.5923
27278.69389
110713.8786
100737.8539
146352.3552
203654.7168
295887.6164
367450.3132
480294.4825
555583.9962
616772.9842
656167.1499
649915.351
674180.1451
612314.2965
557557.3359
534151.7273
457559.0362
371148.9974
313819.4486
272509.5958
236564.6396
205446.0128
177478.3526
153419.0631
134431.7895
120170.9823
112401.2695
103725.1537
93011.36053
87329.27384
85790.04402
86352.14133
86393.13097
84416.06857
81163.37645
78586.62057
77385.86262
76461.95214
75620.34827
74692.52541
73394.85504
71839.46313
69992.355
67981.90748
65791.28503
63536.92758
61223.12168
58917.48772
56659.1885
54445.21469
52196.3764
49983.52895
47918.32726
45963.54461
44059.27215
42298.86334
40739.13532
39260.58229
37944.76059
36763.70953
35659.15551
34655.65373
33746.3196
32928.00221
32245.02613
31555.94064
30887.80208
30142.05407
29301.39788
28424.28472
27642.41165
26971.01967
26192.03697
25091.83601
23722.31857
22282.81035
20929.1995
19656.28483
18461.6088
17269.03833
16066.57512
14754.56411
13275.50075
11757.42716
10400.14899
9250.070908
8191.926295
7079.787567
6029.614713
2391.184761
-4266.593609
-18156.29391
-32088.72679
-34948.2022
-38451.08668
-38849.99883
)


101
(
382.7256927
889.5601365
25331.13216
77145.45443
103928.6972
43596.44163
125754.957
139488.3309
201159.354
279376.6613
389737.6122
484660.7377
608182.2473
699115.2709
769890.1947
815697.1078
815061.7599
824990.292
772549.1392
701948.1653
658646.9911
580655.0704
483185.2333
407313.8812
350562.716
303434.544
263087.7145
227918.5828
197452.1115
172997.3211
154106.3402
141817.3955
132330.6124
120714.3099
113303.167
109805.655
109270.4446
109791.7157
109417.2497
107732.7866
105939.41
105184.5431
104863.9311
104792.0614
104735.3149
104275.024
103537.9456
102443.0867
101107.7426
99434.79359
97567.13202
95397.24926
93096.91543
90741.44109
88319.07587
85621.84877
82750.58675
79911.98375
77002.18781
73988.23726
71015.85553
68168.98181
65261.73965
62403.94487
59677.5871
56969.82329
54283.26378
51693.08715
49169.61715
46827.52549
44584.56527
42413.16229
40264.22183
38153.9367
36113.85135
34249.26748
32623.56773
31044.27056
29379.09149
27598.73928
25749.52088
23949.63658
22263.41148
20777.77533
19403.98983
18061.14831
16708.11521
15257.21205
13690.33443
12182.22741
10879.34239
9730.804697
8564.31097
7370.77918
2245.248709
-7553.506061
-29879.87209
-52640.41708
-53800.68315
-43160.66596
-28169.39823
)


101
(
377.8449362
1259.264756
25885.51002
77321.39349
106717.8708
58324.22319
139573.9662
173706.5264
249972.0759
346410.9993
473070.6312
588439.7094
722930.2557
828206.6322
908790.2363
961835.5142
968374.7126
969218.9642
923709.2124
844372.6691
784490.9284
702957.878
597811.4421
506771.6214
435006.2928
376218.8144
326508.3757
283889.1532
246933.6597
216842.0108
193146.849
176398.0209
165160.9631
152684.762
144189.4637
139315.456
137879.3421
138719.5578
139926.0279
140402.7511
140627.7014
141707.7815
143294.9168
145328.904
147572.5872
149519.734
151250.0296
152667.4448
153926.9119
154798.9461
155307.1796
155240.4492
154896.3317
154243.1364
153306.4559
151823.1587
149787.5967
147310.5401
144387.8596
140849.7514
136962.4238
132920.0131
128385.0126
123623.7771
118646.1638
113421.0865
107898.3002
102293.3913
96491.96237
90720.54896
85020.56511
79264.27134
73642.85191
68148.90838
62840.63771
57797.14111
53166.89578
48800.19342
44673.21596
40709.20772
36901.83845
33290.81985
30006.02017
27106.53617
24634.78615
22371.79986
20288.44791
18321.69616
16364.69109
14486.73593
12814.35449
11352.70734
10003.24785
8579.753416
1876.81138
-11428.78692
-44859.95626
-64864.38536
-42042.79591
49612.41483
133303.7429
)


101
(
372.9144568
1594.74991
26360.17273
77373.40482
109115.469
71590.93078
152255.2864
203939.1021
293369.1666
405715.3252
547050.8969
680518.6783
826034.6507
944798.6432
1035485.008
1096524.978
1111475.784
1107902.436
1068014.894
985092.2511
912578.7211
826501.2704
715791.5789
612809.7789
527231.33
456681.0821
397428.9215
347104.2176
303486.7968
267551.303
238824.0044
217565.63
203912.455
190352.5264
181196.2433
175570.4981
173742.6904
175213.0661
178364.6665
181770.4546
185407.0501
190095.5041
195452.171
201563.6416
208230.2913
214911.9149
221606.0633
228235.7131
234910.7703
241127.5634
246760.6938
251705.981
256037.9127
259550.158
262611.7265
264572.6781
265246.9518
264711.2976
263134.0264
260158.9809
256049.7251
251073.9532
244726.2823
237717.8006
229943.5412
221439.0602
212091.9649
201892.4414
190955.6541
179601.691
168232.5156
156716.1672
145446.6887
134199.7732
123070.9195
112274.8004
101859.0869
91933.21892
82624.89636
73776.23511
65436.71958
57709.10102
50714.45629
44396.61984
38890.82491
33963.95888
29673.30464
25791.45625
22384.78804
19299.73256
16568.64588
14246.88881
12313.10111
10401.34623
4023.312963
-9256.7983
-48854.30897
-1847.439872
113699.1394
445709.1348
735862.6161
)


101
(
367.9354056
1897.505744
26757.42334
77307.53725
111150.274
83513.42004
163845.241
230581.3464
331872.081
458167.6244
612701.5065
762267.4779
918661.7627
1050290.489
1151424.072
1221182.582
1245559.401
1241641.149
1207103.9
1124387.908
1043358.773
952855.2248
838158.1278
726180.0285
628572.3858
546609.3278
477680.3521
419366.3864
368847.5716
326823.1123
292785.5555
266863.1529
250282.4544
235345.2166
225781.3255
220108.9676
218745.4882
221670.4671
227573.3257
234939.5026
243486.6715
253688.6261
265094.0851
277769.451
291512.6024
305763.3481
320385.7444
335292.3618
350273.1964
364774.0785
378643.9435
391629.3556
403392.8145
413789.3373
422763.2259
429855.8628
435115.4056
437890.0558
439005.2986
437690.5588
434148.6795
428877.2106
421379.8813
412375.0183
401746.9071
389633.8741
376259.107
361181.2795
344908.6846
327732.6899
309937.7018
291631.7003
273352.5372
255314.8796
237267.8496
218935.4602
200520.8643
182897.9559
166096.5728
149591.9974
133612.7728
118853.1286
105255.2786
92735.47263
81020.83848
70404.16208
61025.67718
52303.5003
44750.3494
38122.37531
32225.11503
27272.37913
23250.04201
19850.8643
21478.89392
24725.86559
15521.38211
294268.5609
639490.1671
1454680.183
2173261.616
)


101
(
362.9091143
2169.100538
27079.58472
77128.73859
112847.615
94198.98753
174390.9998
253980.7513
365959.4065
504570.9049
670935.3502
834861.5471
1001836.243
1145832.241
1257780.921
1336965.765
1371611.208
1370837.145
1342138.015
1262654.378
1177081.28
1083194.723
966035.4056
847638.5295
740139.1734
647585.2893
569005.6598
502467.1785
444835.6093
396528.1818
356953.2835
326198.7344
306329.2379
289769.841
280011.2191
274988.5092
275058.5804
280447.6754
290092.698
302611.7005
317637.0444
335306.8773
355043.035
376775.439
400243.1164
424748.6296
449806.6403
475195.6699
500563.0289
525436.2717
549478.8035
572248.6934
593164.2668
611696.8446
627567.4155
641657.7916
652770.4197
660602.1487
665723.3652
667730.0627
666593.2123
662934.6747
656574.105
647602.53
636306.137
623186.5418
608436.5395
591499.0535
572813.9402
552306.0997
530522.4087
507836.0273
485199.3987
462575.6177
439295.704
414428.8335
388754.1472
363670.804
338932.7233
314018.7699
288817.0668
264548.1816
241787.5114
220220.1039
198653.8186
178047.0622
159386.5354
141367.8109
124952.5666
109909.7842
95791.79024
83963.8097
74116.2934
66286.1291
93362.64039
153505.6042
278548.2688
1090701.632
1868414.66
3380132.05
4344536.567
)


101
(
357.8370343
2411.098321
27328.9473
76840.93309
114225.8698
103736.1699
183930.5883
274451.5575
396040.348
545551.1617
722479.2613
899293.9192
1076488.41
1232442.18
1355580.198
1444893.315
1490585.085
1495893.381
1474135.994
1400429.033
1313962.733
1218404.79
1100194.626
977646.4769
862457.359
760516.142
672690.425
597981.3909
533235.5365
478623.7199
433446.2526
397816.4973
374496.817
356160.4043
346333.2707
342485.2976
344792.2229
353569.1929
367926.1198
386677.9647
409445.5243
436084.5187
465789.0831
498322.0091
533194.5362
569367.7131
605971.6453
642686.5761
679168.2067
714942.162
749481.6057
782330.4059
812895.28
840284.7932
864945.7406
887496.6477
906016.5145
921153.9632
933144.8538
942206.5241
947725.3146
950402.8689
950174.7503
947134.106
941501.0339
933795.8489
924044.3806
912373.7361
898384.2362
881984.5677
863716.0861
843988.6098
823826.15
803516.4491
781738.3048
756838.6364
729526.6752
701379.3271
672903.5948
643313.1603
611123.0066
578262.8512
546736.6228
515166.7775
481825.2123
448152.8089
416483.0697
385052.2079
354123.5498
323374.9066
293662.9177
268231.4288
246190.5364
228264.5929
309712.3071
498309.452
971527.4556
2675791.018
4074040.366
6469942.262
7739168.747
)


101
(
352.7201726
2624.892037
27507.85966
76447.9299
115302.2844
112205.4702
192489.4761
292253.4954
422527.8158
581704.2186
767941.6291
956402.075
1143422.566
1310929.323
1445585.026
1545743.958
1603339.857
1617335.462
1604036.1
1538330.597
1454143.821
1358846.431
1240959.578
1116403.566
995791.0948
886080.1775
789949.9877
707543.7439
635978.0344
575261.1512
524594.5088
484194.4068
457438.4821
437212.187
427274.4933
424832.7749
429838.3101
442549.0293
462160.6557
487770.1736
518816.8964
554878.5642
594834.8683
638265.9001
684399.6614
731953.3804
779861.0969
827521.6655
874660.3426
920996.1288
965741.6159
1008762.827
1049740.323
1087703.663
1123314.637
1156476.048
1186531.418
1213382.849
1238058.622
1260222.222
1279651.333
1296640.664
1311250.505
1323444.658
1333882.03
1342558.353
1348767.535
1353617.803
1355900.034
1355918.726
1354053.777
1350082.086
1344828.869
1339623.296
1332411.071
1320109.901
1302611.942
1283052.887
1262085.795
1237432.262
1206957.634
1173658.705
1139270.208
1102541.768
1061858.856
1016674.483
971518.1003
926355.5845
878719.9998
827569.3648
775753.6096
730907.2627
690338.7388
656101.5158
830326.6566
1242843.484
2373748.894
5328213.555
7399411.325
10456198.54
11311383.27
)


101
(
347.5596752
2811.914955
27618.65913
75953.22233
116092.3215
119682.0615
200101.6167
307624.1128
445773.4957
613554.7127
807869.1359
1006911.778
1203353.671
1381996.861
1528446.86
1640181.19
1710610.722
1735667.074
1732528.379
1676948.312
1597813.559
1504854.158
1388844.803
1264447.405
1140913.024
1025482.401
922399.3135
833046.3766
755117.9736
688646.568
632775.1333
587816.5619
557650.0473
535376.0151
525080.6303
523886.3894
531548.1521
548188.3965
573036.7221
605250.8322
643990.0361
688614.5233
737713.4577
790665.0184
846485.0737
903867.4808
961779.9767
1019403.105
1076728.952
1133319.898
1188384.434
1242685.356
1296180.886
1347512.039
1397536.879
1446628.277
1494286.614
1540120.866
1585144.697
1629230.998
1672357.498
1714155.748
1754977.849
1795395.217
1835642.784
1874052.466
1911434.441
1947484.526
1982006.039
2015632.721
2047186.22
2076693.843
2104288.726
2132266.165
2157774.072
2176455.596
2188468.283
2195386.525
2198990.27
2197495.967
2185258.28
2166909.873
2143467.185
2115092.17
2078417.756
2031027.085
1980381.791
1928149.845
1870183.295
1802497.293
1727370.203
1663532.84
1602074.457
1552425.563
1859389.059
2593793.244
4704330.249
8980255.595
11424295.06
14487629.72
14166494.14
)


101
(
342.3572439
2973.587445
27663.69366
75360.26657
116609.4891
126232.4113
206813.191
320789.2849
466048.0226
641509.8828
842858.5628
1051437.38
1256934.897
1446385.223
1604898.204
1728913.721
1812983.713
1851041.172
1859814.839
1816143.303
1744753.303
1656619.043
1544535.717
1422552.585
1298739.427
1180022.205
1071697.706
976385.3592
892695.464
820969.9027
760351.2064
711120.8708
677506.6503
652928.3174
641808.1405
641314.3854
651058.7933
670983.3552
700238.841
737777.5668
782698.9046
834067.844
890221.4087
950452.1701
1013881.538
1079318.518
1145835.953
1212717.918
1280123.989
1347442.926
1414584.205
1482824.571
1552029.729
1621112.427
1691238.59
1762919.802
1835462.575
1908841.476
1983254.022
2059976.373
2137868.954
2216687.096
2296951.193
2380439.458
2465330.257
2549895.21
2635199.48
2720268.966
2806638.472
2891741.552
2976187.146
3059825.858
3141558.306
3224325.027
3303975.566
3375741.379
3439069.988
3493222.258
3545096.707
3587112.144
3613341.621
3631066.316
3638369.381
3635300.477
3619096.656
3586920.523
3545070.274
3497199.537
3443586.767
3370325.269
3279595.156
3204138.41
3124025.835
3069780.863
3539159.217
4642852.885
7870130.065
12980258.68
15005067.96
17052439.39
14926144.26
)


101
(
337.1144417
3111.220054
27645.33988
74672.36169
116867.1877
131919.0983
212669.4728
331950.268
483598.8799
665933.0126
873480.6607
1090490.855
1304728.252
1504789.775
1675634.102
1812603.313
1910930.186
1963418.104
1985644.594
1955283.465
1894465.008
1814085.659
1708620.081
1591470.109
1470126.005
1350890.367
1239411.731
1139485.635
1050900.32
974591.2522
909775.499
856599.4917
819520.5494
792290.7235
779676.6239
778994.253
789734.7692
811646.9261
843739.4804
884803.169
933762.0571
989454.5403
1050361.936
1115801.566
1185053.632
1257106.319
1331523.559
1407895.133
1486101.062
1565981.212
1648192.172
1733876.128
1822956.43
1915282.492
2011578.274
2112463.32
2218022.444
2327884.839
2441732.359
2561243.103
2685498.871
2814279.528
2948217.648
3089232.491
3232975.73
3380335.966
3530518.299
3683201.911
3838288.709
3992720.406
4149370.363
4305905.089
4461699.198
4619619.75
4772148.263
4915193.613
5046461.991
5169032.439
5286402.225
5387586.412
5471553.341
5540206.679
5590741.745
5629388.429
5645741.648
5638227.782
5615291.333
5581036.367
5538364.05
5467713.904
5371122.817
5289520.121
5199146.688
5146893.089
5766676.063
7171062.044
11307759.05
16172715.21
16633490.78
16215333.28
10704279.62
)


101
(
331.8328313
3226.12763
27565.95159
73892.66575
116878.6142
136804.5922
217716.4413
341288.7684
498604.8424
687101.6397
900190.1516
1124578.458
1347245.07
1557780.133
1741169.788
1891720.29
2004846.507
2072918.001
2110042.333
2094322.366
2046942.514
1977493.233
1881532.376
1771806.684
1655704.619
1538890.343
1426759.045
1324076.823
1231913.296
1151939.272
1083479.624
1026642.248
986177.3348
955981.5764
941137.6161
939255.3865
949680.6012
971920.6854
1004883.144
1047326.215
1098012.982
1156047.177
1219859.073
1288818.556
1362635.458
1440828.771
1523476.614
1610070.885
1700689.983
1795921.62
1896533.917
2003551.917
2117374.443
2238332.943
2366573.66
2503323.206
2649655.555
2804024.957
2966246.791
3138394.299
3319970.955
3509965.177
3710060.741
3919652.53
4135567.484
4360181.585
4587614.259
4820550.4
5057356.513
5296455.034
5538570.372
5779293.929
6021036.306
6263634.801
6497900.606
6718407.354
6925288.552
7120756.948
7302527.623
7467269.786
7608997.526
7720577.989
7810071.781
7883040.75
7922825.933
7931652.157
7914640.507
7880677.668
7833327.832
7755995.266
7648110.102
7544891.019
7436726.17
7371872.43
8052939.279
9551717.978
13959790.13
17028892.65
14846438.72
11335228.75
3115514.159
)


101
(
326.5140035
3319.611114
27428.17846
73024.48543
116655.9986
140945.6309
221997.3943
348968.3414
511157.4571
705117.7016
923371.7724
1154232.56
1385010.592
1605792.656
1801726.768
1966260.263
2094711.246
2179469.955
2233017.56
2233976.631
2202842.342
2147430.574
2063633.813
1964053.452
1855977.841
1744636.587
1634824.598
1531815.885
1437885.493
1355432.436
1283997.398
1223895.249
1180260.811
1146924.115
1129220.158
1125164.236
1133925.795
1154778.409
1186692.675
1228622.232
1279429.281
1338316.129
1403755.98
1475507.583
1553675.366
1638243.001
1729730.57
1827844.383
1933252.411
2046626.163
2168875.155
2301069.173
2444064.397
2598463.689
2764096.777
2942852.513
3135948.466
3341287.041
3559462.697
3792120.764
4037932.042
4297709.527
4571891.862
4857390.527
5153833.447
5460779.266
5771863.219
6090910.29
6415293.468
6743224.98
7068855.191
7392847.709
7716407.002
8034967.69
8340803.586
8629056.663
8893449.61
9134033.635
9358825.852
9559762.522
9723122.265
9842565.327
9935194.799
9997711.496
10015315.72
9994226.158
9937772.891
9856004.973
9754096.555
9628980.856
9468497.974
9297351.977
9130587.792
9004881.143
9558864.163
10783055.85
14441957.37
14264235.08
8956799.871
2371573.845
-7875231.758
)


101
(
321.1596353
3392.902571
27234.45129
72071.27703
116211.7718
144395.0195
225552.0128
355139.0201
521387.2305
720109.6885
943367.5803
1179912.84
1418493.92
1649217.639
1857501.258
2036203.392
2180473.367
2282948.938
2354517.579
2374902.378
2362690.836
2324380.87
2255231.219
2168698.478
2071573.119
1968856.933
1864625.524
1764185.656
1670718.772
1587288.595
1513876.627
1451211.337
1404814.928
1368421.17
1347574.387
1340661.205
1346778.119
1365037.129
1394595.205
1434750.173
1484617.809
1543586.541
1610463.778
1685206.818
1768182.095
1859838.019
1961217.025
2072645.508
2195122.192
2329072.863
2475626.262
2636096.167
2811722.088
3003159.05
3210379.909
3435663.818
3679213.344
3940107.193
4218889.816
4515094.736
4828280.074
5161469.595
5510563.282
5872796.661
6249080.127
6635527.996
7027088.02
7425110.758
7827046.806
8227049.7
8619928.024
9009018.407
9386850.326
9749120.951
10091270.05
10402862.12
10673827.99
10910700.37
11118964.85
11287615.92
11402926.98
11462877.38
11481179.91
11450652.45
11367027.82
11240483.67
11064918.04
10854889.05
10620144.46
10372662.57
10089532.24
9784535.418
9488877.034
9227552.627
9407882.655
9888200.826
11688081.69
7433692.968
-637447.3824
-9601575.094
-20693848.89
)


101
(
315.7713763
3447.212814
26987.19709
71036.54523
115557.7577
147201.3913
228420.4006
359918.2461
529456.2157
732298.0405
960238.3356
1202048.183
1447968.036
1688309.582
1908736.134
2101781.146
2262369.175
2383441.237
2474484.327
2516681.889
2526084.166
2507951.39
2456476.91
2386124.985
2302988.989
2212084.104
2116927.145
2022498.072
1932286.853
1849903.624
1776006.669
1711903.78
1663391.752
1624510.031
1600849.974
1591012.093
1594138.885
1609268.677
1635809.648
1673669.95
1722421.974
1781681.007
1850598.574
1929268.961
2018136.867
2118083.04
2230768.017
2357252.821
2498374.793
2654615.626
2827596.807
3018620.101
3229067.355
3459221.387
3710013.634
3983289.006
4278717.7
4595680.197
4934086.721
5292304.739
5671669.43
6072775.092
6490018.796
6921122.655
7366414.837
7817652.39
8271629.701
8725057.829
9174392.527
9614205.056
10039410.63
10445855.83
10824293.62
11174024.28
11488337.32
11752235.3
11956185.33
12103947.88
12201814.98
12245319.27
12223172.19
12126080.79
11965303.1
11744635.76
11467783.33
11136665.01
10760294.15
10339675.62
9892108.869
9446426.645
8972255.066
8478117.554
8001129.492
7533534.852
7079822.575
6348480.585
5417120.401
-2857221.634
-12704082.81
-23101946.96
-34402728.02
)


101
(
310.3510597
3483.725912
26686.92143
69923.77435
114704.91
149408.9375
230641.5941
363412.1053
535512.9383
741874.963
973999.9145
1221048.81
1473623.57
1723157.252
1955540.537
2163134.056
2340556.239
2480969.785
2592746.641
2658658.386
2692352.246
2697441.332
2667413.986
2616589.361
2550734.871
2475013.809
2392698.869
2308139.603
2224439.004
2145769.037
2073691.03
2010019.693
1960750.337
1920448.083
1894652.239
1882345.037
1882929.581
1895340.122
1919153.929
1955185.405
2003504.846
2063958.079
2136174.094
2220238.477
2316536.948
2426419.161
2551918.209
2694425.717
2855018.698
3034872.759
3235513.399
3458324.688
3704261.349
3972732.094
4266169.175
4585772.777
4930612.158
5299276.96
5691657.052
6105569.641
6541224.253
6996206.151
7466002.043
7947303.189
8437810.991
8925023.898
9407182.305
9875952.641
10328121.6
10758040.57
11153787.21
11508713.22
11817000.81
12075726.66
12275413.38
12401877.62
12442727.94
12399685.1
12286760.6
12106405.17
11849348.42
11495067.39
11061446.55
10564529.59
10016425.64
9417060.208
8780320.514
8102308.532
7399210.965
6718950.108
6032264.406
5340293.846
4662532.224
3963359.896
2668961.445
375278.6769
-3739119.017
-15331536.62
-25969513.86
-37408051.34
-49349777.01
)


101
(
304.900882
3501.517112
26338.50918
68736.67282
113664.0242
151059.8454
232241.2584
365730.296
539745.268
749052.9524
984849.6274
1237040.244
1495692.062
1753965.596
1998122.94
2220428.224
2415181.372
2575643.289
2709286.19
2800575.544
2861076.126
2892334.069
2887524.254
2859987.147
2815334.951
2758759.719
2693239.562
2622376.953
2548809.662
2477355.431
2410437.761
2350206.29
2302611.638
2262349.25
2235498.809
2221847.845
2221251.235
2232296.463
2254676.203
2290261.453
2339606.591
2402732.211
2479898.789
2571165.418
2676890.096
2798493.477
2937762.149
3096779.402
3277511.97
3481444.794
3709846.09
3964255.868
4243988.506
4548452.12
4880925.395
5242081.918
5629441.47
6041230.803
6477092.755
6933826.319
7407412.013
7895430.092
8391821.727
8892194.595
9390524.188
9872907.914
10334836.48
10765338.12
11160209.52
11510199.45
11801466
12027276.79
12180880.52
12257652.64
12249634.42
12143745.3
11927417.78
11607625.86
11196034.32
10704652.3
10135468.24
9463406.147
8702378.311
7885029.884
7038728.204
6159173.217
5259862.582
4338590.193
3399931.649
2510711.2
1644456.968
801567.7248
-39277.82134
-941953.7143
-3194178.668
-7260725.086
-14616251.99
-28836903.73
-39900823.1
-52933137.39
-67078698.22
)


101
(
299.422699
3503.943098
25946.31878
67478.79483
112445.0964
152192.1067
233241.6307
366966.4276
542327.6206
754028.6058
992976.173
1249945.587
1514343.592
1780982.701
2036697.186
2273775.171
2486312.983
2667714.862
2824381.133
2942414.257
3031692.507
3091815.799
3115756.19
3115841.764
3097237.686
3064529.566
3019957.134
2966587.715
2907253.235
2847330.111
2789704.861
2736568.722
2693687.21
2655906.917
2630243.794
2617401.27
2617832.004
2629763.605
2653052.055
2690481.491
2743013.721
2810752.371
2894882.209
2995519.856
3112697.649
3247582.409
3401732.011
3578081.493
3779029.716
4006436.882
4261590.243
4545504.868
4855759.454
5191972.397
5557060.828
5951058.781
6369906.433
6811889.935
7275285.313
7754931.02
8241561.346
8733195.826
9220370.909
9697795.672
10156414.21
10583066.94
10966473.38
11295922.85
11563034.85
11756669.08
11864326.05
11879341.91
11795720.66
11606096.51
11306121.9
10889686.56
10350762.48
9692642.043
8924957.242
8078893.175
7168268.493
6169620.925
5080941.007
3947959.317
2831630.223
1719095.717
614838.7565
-484181.125
-1590214.795
-2614907.331
-3593554.521
-4515286.564
-5455050.166
-6500320.693
-9800787.198
-15783790.95
-26266682.47
-43036917.78
-55204324
-71543120.16
-90734707.45
)


101
(
293.9177734
3493.989532
25510.84873
66153.90527
111057.8795
152841.3644
233675.1338
367231.1966
543417.0052
756963.0671
998559.0308
1259833.836
1529753.088
1804437.808
2071470.952
2323294.836
2553985.043
2757378.22
2938244.598
3084155.985
3203763.794
3295221.106
3351360.533
3383582.206
3396042.043
3391802.352
3372697.531
3341465.271
3301388.227
3258319.965
3214734.553
3172574.782
3137952.905
3106657.765
3086009.979
3077378.994
3081849.863
3097727.974
3125376.875
3167798.394
3226282.689
3301146.879
3394516.572
3506623.051
3637235.766
3787473.881
3958424.3
4153070.108
4373658.561
4622924.504
4902645.506
5212670.92
5549160.578
5910988.432
6299641.487
6713775.755
7148955.882
7603294.692
8073498.589
8549544.503
9018160.402
9476524.584
9912616.889
10318415.11
10684552.3
10997902.12
11240083.07
11400825.79
11469569.79
11434262.5
11285154.49
11019534.91
10628340.72
10103148.12
9450361.054
8678045.937
7782328.384
6759673.592
5625500.899
4421871.922
3185908.82
1893119.3
518710.5574
-882667.0853
-2220536.192
-3494365.216
-4724579.391
-5937430.506
-7147410.832
-8236880.698
-9280275.162
-10228621.74
-11218469.9
-12372963.23
-16850584.6
-24946625.05
-38545075.47
-58808352.85