/*--------------------------------*- C++ -*----------------------------------*\
| =========                 |                                                 |
| \\      /  F ield         | OpenFOAM: The Open Source CFD Toolbox           |
|  \\    /   O peration     | Version:  2.3.1                                 |
|   \\  /    A nd           | Web:      www.OpenFOAM.org                      |
|    \\/     M anipulation  |                                                 |
\*---------------------------------------------------------------------------*/
FoamFile
{
    version     2.0;
    format      ascii;
    class       dictionary;
    location    "constant";
    object      la_r28;
}
// * * * * * * * * * * * * * * * * * * * * * * * * * * * * * * * * * * * * * //

la_r28_table
101
(

101
(
1.187325755e-19
-1.79067841e-12
-1.253573731e-09
-4.550234279e-08
-5.040199947e-07
-2.885822833e-06
-1.12212334e-05
-3.66031821e-05
-0.0001020946009
-0.0002525799387
-0.0005600810564
-0.001125510851
-0.002058340811
-0.003473909452
-0.005420624448
-0.007878339276
-0.0107381057
-0.01376229858
-0.01680664531
-0.01943523734
-0.02160725503
-0.02320906523
-0.02402713464
-0.02417414322
-0.02375201397
-0.02286568612
-0.02164084278
-0.02018960926
-0.01860110216
-0.01696271462
-0.01533595635
-0.01376285913
-0.01225508163
-0.01087450672
-0.009601809955
-0.008444544429
-0.00872851848
-0.01010987502
-0.00883011286
-0.007707884197
-0.006720192251
-0.005827282243
-0.005047849255
-0.004361997453
-0.003751161743
-0.003221166837
-0.002753418247
-0.002350284305
-0.001997940859
-0.001695260016
-0.001432268267
-0.001206022706
-0.001010296445
-0.0008419653472
-0.0006999689453
-0.0005782764262
-0.0004780396484
-0.0003910504775
-0.00031944851
-0.0002588556299
-0.0002091677389
-0.0001675726828
-0.0001325693381
-0.0001035901756
-8.119448516e-05
-6.3011797e-05
-4.840800494e-05
-3.685347491e-05
-2.78132307e-05
-2.070822014e-05
-1.525148715e-05
-1.108530514e-05
-8.01061793e-06
-5.689851352e-06
-6.13509396e-06
-5.790309648e-06
-3.871733877e-06
-2.557614729e-06
-1.651301657e-06
-1.027294446e-06
-6.168811493e-07
-3.713080943e-07
-2.127711667e-07
-2.073155787e-07
-1.694607242e-07
-8.771049476e-08
-4.360363136e-08
-2.068920016e-08
-9.366719104e-09
-9.626832489e-09
-4.307655327e-09
-1.45485987e-09
-4.60720822e-10
-2.64610825e-10
-1.050447098e-10
-2.418034675e-11
4.772537145e-17
-1.949430866e-35
-2.86720886e-27
2.197783926e-27
-9.664961305e-37
)


101
(
-5.943492681e-19
1.428221355e-11
-6.358454265e-10
-3.755463957e-08
-4.413959311e-07
-2.550971218e-06
-9.889464103e-06
-3.20529005e-05
-8.878326722e-05
-0.0002179957881
-0.0004798099516
-0.0009570993778
-0.001738822083
-0.002913792244
-0.004519022464
-0.006531282143
-0.008854828327
-0.01129442521
-0.0137282249
-0.0158172868
-0.0175061696
-0.01871476382
-0.01929834023
-0.01932488687
-0.0188856576
-0.01807092793
-0.01698553946
-0.01572713555
-0.01437172903
-0.01298985786
-0.01163385826
-0.01033840585
-0.009111619988
-0.007977865042
-0.006930674747
-0.005936001616
-0.005494744466
-0.005726115241
-0.005301183044
-0.004591640699
-0.003923846903
-0.003333702913
-0.002826081534
-0.002390722
-0.002014802451
-0.001693905416
-0.001419108087
-0.001185179389
-0.000986706272
-0.0008189944576
-0.0006775701893
-0.0005586222095
-0.0004586437699
-0.0003732097827
-0.0003021938909
-0.000244066778
-0.0001969319909
-0.000158202988
-0.0001265551157
-0.000100759556
-7.982099198e-05
-6.29279336e-05
-4.921362516e-05
-3.802043689e-05
-2.911263176e-05
-2.231732794e-05
-1.696988904e-05
-1.279433106e-05
-9.520634746e-06
-7.037914392e-06
-5.152748559e-06
-3.727620923e-06
-2.674042215e-06
-1.852201924e-06
-1.337373336e-06
-1.007844986e-06
-7.007933254e-07
-4.644568272e-07
-3.013166055e-07
-1.90313882e-07
-1.172055798e-07
-6.950683855e-08
-4.020905415e-08
-2.317508132e-08
-1.340298758e-08
-7.380269019e-09
-3.925471326e-09
-1.914074957e-09
-8.792849636e-10
-4.051790915e-10
-1.712854354e-10
-6.937580922e-11
-2.991722651e-11
-1.058697976e-11
-4.28292298e-12
-1.727154124e-12
-2.415102505e-13
-5.359137778e-13
-1.115271941e-12
-3.132303535e-12
-1.405877438e-10
)


101
(
-1.147639045e-18
2.671510848e-11
-1.102155323e-10
-3.062411907e-08
-3.86331581e-07
-2.257658175e-06
-8.735597539e-06
-2.815931956e-05
-7.754666591e-05
-0.0001892313627
-0.0004140769955
-0.00082143217
-0.001485787741
-0.002478587724
-0.003831639136
-0.005525343939
-0.007480021905
-0.009537025552
-0.01159366209
-0.01338403609
-0.0148418461
-0.01590228516
-0.0164602149
-0.01655008008
-0.01624266507
-0.01561165866
-0.01474150462
-0.01371492969
-0.01259834286
-0.01144986409
-0.01031633643
-0.009230345948
-0.008198215787
-0.007238643614
-0.006330964854
-0.005463655655
-0.004897251664
-0.004642983352
-0.00430461054
-0.003822687177
-0.003317387183
-0.002845677455
-0.002439015461
-0.002089876615
-0.001786007181
-0.001524971335
-0.001301388151
-0.001108009788
-0.0009426772992
-0.0008005407896
-0.0006789076054
-0.0005745905151
-0.0004859813601
-0.000410102259
-0.0003448037541
-0.0002892159625
-0.0002416004686
-0.0002017735461
-0.0001680584273
-0.0001395039959
-0.0001155276822
-9.526625127e-05
-7.801614045e-05
-6.364386547e-05
-5.175077963e-05
-4.194162867e-05
-3.367944436e-05
-2.682288471e-05
-2.125467966e-05
-1.664699222e-05
-1.295706298e-05
-9.897207909e-06
-7.564376569e-06
-5.69771954e-06
-4.221830849e-06
-3.082681649e-06
-2.213863956e-06
-1.572169697e-06
-1.108358848e-06
-7.650501821e-07
-5.201170487e-07
-3.43381432e-07
-2.239420083e-07
-1.402670938e-07
-8.512291888e-08
-4.951801034e-08
-2.890745125e-08
-1.688926764e-08
-9.318167207e-09
-4.850748823e-09
-2.467800808e-09
-1.184913964e-09
-6.081619785e-10
-2.85730054e-10
-1.333223955e-10
-5.87576256e-11
-1.224811743e-11
-3.338599464e-11
-7.88746167e-11
-2.312750623e-10
-1.075702755e-09
)


101
(
-1.560344308e-18
3.595188971e-11
3.337351512e-10
-2.459021445e-08
-3.378754481e-07
-2.000238213e-06
-7.733069992e-06
-2.48154022e-05
-6.801673493e-05
-0.0001651686756
-0.000359877971
-0.0007112712957
-0.001283587045
-0.002137098551
-0.0033021826
-0.004766389009
-0.00646700451
-0.008276736766
-0.01010910566
-0.0117537838
-0.01313711545
-0.01419904334
-0.01485495136
-0.01511296456
-0.01501931684
-0.01463111745
-0.01401302496
-0.01323207232
-0.01234743098
-0.01140827357
-0.01045703252
-0.009530324698
-0.008633027085
-0.007789970993
-0.006967722626
-0.006090042168
-0.005550763812
-0.00510158357
-0.004670887088
-0.004239556059
-0.003787181793
-0.003345881089
-0.002950068002
-0.002597902693
-0.002283771594
-0.002008148447
-0.001765602508
-0.001551212165
-0.001360882368
-0.00119286746
-0.001043084196
-0.0009102370565
-0.0007934888524
-0.0006906056224
-0.0005996066338
-0.0005205625787
-0.0004487159765
-0.0003863253036
-0.0003317117816
-0.0002834487315
-0.0002416884408
-0.0002053823701
-0.0001735320494
-0.0001460395765
-0.0001224324828
-0.0001020339142
-8.456927168e-05
-6.924881714e-05
-5.664130289e-05
-4.601920327e-05
-3.712188192e-05
-2.952299851e-05
-2.336748236e-05
-1.829752396e-05
-1.414670945e-05
-1.08154193e-05
-8.140328613e-06
-6.02539325e-06
-4.41658664e-06
-3.208044198e-06
-2.308862221e-06
-1.615567589e-06
-1.115230581e-06
-7.512170325e-07
-4.956599362e-07
-3.169453875e-07
-1.95985992e-07
-1.209695275e-07
-7.365036096e-08
-4.292133781e-08
-2.399663389e-08
-1.308250916e-08
-7.037626468e-09
-3.790831603e-09
-1.963804888e-09
-9.373505571e-10
-2.516024268e-10
-8.075035563e-10
-2.010273796e-09
-5.846915822e-09
-1.306346077e-07
)


101
(
-1.850039671e-18
4.238929469e-11
7.050811236e-10
-1.934979988e-08
-2.952233702e-07
-1.773998067e-06
-6.860017189e-06
-2.193434062e-05
-5.9899594e-05
-0.0001449292478
-0.0003148908171
-0.0006211111765
-0.001120521801
-0.001866386751
-0.002889913016
-0.004187461806
-0.005713045015
-0.007366562669
-0.00907593777
-0.01067318334
-0.01208071724
-0.01323822978
-0.01407052567
-0.01456278612
-0.0147374614
-0.01463288602
-0.01429485248
-0.01377607196
-0.01312814908
-0.01239333103
-0.01160627171
-0.01081419779
-0.01001881932
-0.009260566191
-0.008508414706
-0.007731227655
-0.007083271271
-0.006527149076
-0.006009218202
-0.0055182429
-0.005038086086
-0.004569201049
-0.004134860115
-0.003733684705
-0.003362998145
-0.00302722552
-0.002722342606
-0.002445410918
-0.002192103988
-0.001964025564
-0.001755119102
-0.001563991271
-0.001390840571
-0.001235578243
-0.001095077723
-0.0009676669664
-0.0008531184088
-0.0007502548997
-0.0006583606086
-0.0005735766085
-0.0004984438609
-0.0004324241051
-0.0003731915147
-0.0003213057433
-0.0002758663196
-0.0002347874882
-0.0001989506697
-0.0001675238157
-0.0001404091033
-0.0001173617589
-9.687350921e-05
-7.943058945e-05
-6.466561862e-05
-5.236644451e-05
-4.196691857e-05
-3.331684925e-05
-2.597257737e-05
-2.011856069e-05
-1.538585816e-05
-1.162957542e-05
-8.73455348e-06
-6.403719054e-06
-4.644298149e-06
-3.313835185e-06
-2.323083779e-06
-1.585341066e-06
-1.056259473e-06
-6.907598979e-07
-4.48560278e-07
-2.842601856e-07
-1.728880563e-07
-1.0300163e-07
-5.979564317e-08
-3.43980898e-08
-1.977456799e-08
-1.024452976e-08
-3.500032983e-09
-1.109628691e-08
-2.745146969e-08
-8.201736003e-08
-1.821328695e-07
)


101
(
-2.032797194e-18
4.638836777e-11
1.011982576e-09
-1.481154778e-08
-2.576729035e-07
-1.574881388e-06
-6.097955915e-06
-1.944409813e-05
-5.295594991e-05
-0.0001278112945
-0.0002772951838
-0.0005467202274
-0.0009877611572
-0.001649475476
-0.002565200301
-0.003740687068
-0.005146035621
-0.006705017744
-0.008358863526
-0.00997269681
-0.01146794512
-0.01278219525
-0.01384373002
-0.01461707848
-0.01510221051
-0.01531855376
-0.01529251584
-0.01506263598
-0.01467267569
-0.01415913049
-0.0135540245
-0.01289382642
-0.01219439342
-0.01151015721
-0.01080912326
-0.01008480019
-0.009399711365
-0.008764560618
-0.008162758342
-0.007591262698
-0.007040593761
-0.006506681236
-0.00600285682
-0.005526672612
-0.00507224803
-0.004644936908
-0.004245903071
-0.003878451492
-0.003537610123
-0.003223107032
-0.002928529673
-0.002651370357
-0.002393557623
-0.00215862926
-0.001944644774
-0.001745373942
-0.001562134615
-0.001395791992
-0.001247366165
-0.001106863112
-0.0009763789782
-0.0008623049237
-0.00075669182
-0.0006629484534
-0.0005804166396
-0.0005047295681
-0.0004368390867
-0.00037608335
-0.0003210649698
-0.0002753442793
-0.0002331090908
-0.0001960766045
-0.0001635060506
-0.0001358745905
-0.0001119866507
-9.155529534e-05
-7.416193129e-05
-5.959377364e-05
-4.70674357e-05
-3.687537583e-05
-2.86214378e-05
-2.210206921e-05
-1.671467482e-05
-1.252461187e-05
-9.217985057e-06
-6.687349436e-06
-4.712898813e-06
-3.286783083e-06
-2.244190659e-06
-1.51571736e-06
-1.000377039e-06
-6.375066971e-07
-4.02918187e-07
-2.487407332e-07
-1.525853355e-07
-8.467554987e-08
-3.469794491e-08
-1.101305615e-07
-2.668910825e-07
-8.033342492e-07
-2.761699543e-06
)


101
(
-2.123298821e-18
4.827751674e-11
1.261780757e-09
-1.089452884e-08
-2.246098502e-07
-1.399391827e-06
-5.431230143e-06
-1.728469265e-05
-4.699010177e-05
-0.0001132507452
-0.0002456524901
-0.0004848091475
-0.00087855035
-0.001473580153
-0.002306034116
-0.003390977569
-0.004713796592
-0.006219521866
-0.007862149271
-0.009533675526
-0.01115713083
-0.01266795446
-0.01399586321
-0.01508664793
-0.01591873182
-0.01649408124
-0.01681965612
-0.01691773018
-0.01682303857
-0.01656672778
-0.01617793345
-0.01568516593
-0.0151062339
-0.01451079688
-0.01387416515
-0.01319832288
-0.01251071254
-0.0118309966
-0.01116504258
-0.01051890143
-0.009889276078
-0.00927123872
-0.008679016508
-0.008111905911
-0.007558284406
-0.007019966601
-0.00650207117
-0.00602021626
-0.005570561957
-0.005146342657
-0.004745776095
-0.004357881948
-0.003987840406
-0.00364316995
-0.003329670554
-0.003031553777
-0.00274921561
-0.002490552613
-0.002254418121
-0.002031158038
-0.001822990496
-0.001636275777
-0.001461268235
-0.001299285325
-0.001154671972
-0.00102233824
-0.0009009223813
-0.0007907814939
-0.00068904993
-0.0005995255414
-0.0005188863975
-0.0004469797904
-0.0003823032921
-0.0003253997569
-0.0002749614208
-0.0002305588287
-0.0001925091852
-0.0001592238674
-0.0001300289169
-0.000105296318
-8.440337433e-05
-6.75512534e-05
-5.320560372e-05
-4.146195561e-05
-3.197003255e-05
-2.428111235e-05
-1.809593319e-05
-1.324547608e-05
-9.576721848e-06
-6.849159952e-06
-4.787447741e-06
-3.267151901e-06
-2.196864324e-06
-1.452272244e-06
-9.495454024e-07
-5.696740182e-07
-2.676904162e-07
-8.715152739e-07
-2.066605671e-06
-5.653666839e-06
-5.607533401e-06
)


101
(
-2.134941192e-18
4.835530001e-11
1.461084016e-09
-7.526976333e-09
-1.954968141e-07
-1.244515859e-06
-4.846595619e-06
-1.540628329e-05
-4.18419393e-05
-0.0001007937705
-0.0002188255517
-0.0004328187757
-0.0007877229439
-0.001329064418
-0.002096058071
-0.003112595548
-0.004378399609
-0.005857779373
-0.007517352411
-0.009271873972
-0.01104836888
-0.01278096988
-0.01440055149
-0.01583708881
-0.01704774988
-0.01801936374
-0.0187413991
-0.0192178612
-0.0194714311
-0.01952685564
-0.01941031494
-0.01914436277
-0.01874076375
-0.01827724951
-0.01774515632
-0.01715145334
-0.01650422448
-0.01582375663
-0.01513314813
-0.01443875979
-0.01374392293
-0.0130417447
-0.01235800424
-0.01169486287
-0.0110383636
-0.01038612003
-0.009738212257
-0.009119509684
-0.008538108416
-0.007982360466
-0.00745385719
-0.006929462771
-0.006423384958
-0.005943478854
-0.005497863574
-0.00507086476
-0.004662841757
-0.004278041127
-0.003920211762
-0.003576686413
-0.003251724086
-0.002956816846
-0.002678913362
-0.002419715243
-0.002180418428
-0.001959490736
-0.001752208773
-0.001565179258
-0.001390043533
-0.001231320483
-0.001087339253
-0.0009541756007
-0.0008326875627
-0.0007230422886
-0.0006251685421
-0.0005362015321
-0.0004583717928
-0.0003891202202
-0.0003280801652
-0.0002742750587
-0.0002265587433
-0.0001858186087
-0.0001517866457
-0.000122214746
-9.787104239e-05
-7.751380634e-05
-6.026048084e-05
-4.619730473e-05
-3.504248538e-05
-2.625153674e-05
-1.934329597e-05
-1.394212955e-05
-9.980563227e-06
-7.016250584e-06
-4.88293573e-06
-3.191674162e-06
-1.700563575e-06
-5.144208144e-06
-1.162872102e-05
-2.949863788e-05
-3.007327039e-05
)


101
(
-2.079929978e-18
4.689297974e-11
1.615842838e-09
-4.645219681e-09
-1.698629825e-07
-1.107648905e-06
-4.332811961e-06
-1.376736155e-05
-3.738017456e-05
-9.007448575e-05
-0.0001959128207
-0.0003887563754
-0.000711321013
-0.001208664999
-0.001923092077
-0.00288661805
-0.004112240618
-0.005581958472
-0.007275117442
-0.009126693004
-0.01107003623
-0.01303917268
-0.01496639726
-0.01677077522
-0.01838813208
-0.01979187395
-0.02095806872
-0.02187219957
-0.02254080467
-0.02297915802
-0.02320994534
-0.0232528191
-0.02310951202
-0.02285223368
-0.02249245769
-0.02204003974
-0.02148963409
-0.02086405472
-0.02020659842
-0.01951211698
-0.01879342797
-0.01804709587
-0.0172903521
-0.01653495257
-0.0157769222
-0.01501606469
-0.01424457835
-0.01348756512
-0.01277042366
-0.01207104268
-0.01138576843
-0.01070282371
-0.01003938832
-0.009386803363
-0.008778947245
-0.008199850673
-0.007629274914
-0.0070801052
-0.006564088157
-0.006063714716
-0.00558308413
-0.005139819231
-0.004710016663
-0.004310168571
-0.003935707278
-0.003588934021
-0.003262026877
-0.002956892205
-0.002668641399
-0.002394509961
-0.002146092231
-0.001911816403
-0.001702665667
-0.001509744987
-0.001330179803
-0.001165374731
-0.001016786533
-0.0008813606853
-0.0007602019447
-0.0006506674621
-0.0005538944853
-0.0004657510119
-0.0003915804825
-0.0003245853765
-0.0002684421509
-0.0002187749897
-0.0001770630474
-0.00014118818
-0.0001114850534
-8.704137051e-05
-6.700146392e-05
-5.088893771e-05
-3.825887293e-05
-2.834595131e-05
-2.080044005e-05
-1.45531108e-05
-8.719853248e-06
-2.384043795e-05
-5.085165081e-05
-0.000117936161
-0.0002425089152
)


101
(
-1.969366247e-18
4.413678487e-11
1.731418026e-09
-2.192732246e-09
-1.472955309e-07
-9.865332307e-07
-3.880279388e-06
-1.233309282e-05
-3.349664128e-05
-8.07963471e-05
-0.000176195323
-0.0003510579046
-0.0006462866093
-0.001106855608
-0.001777988368
-0.002699009705
-0.003895063696
-0.005364491229
-0.007099567287
-0.009054033628
-0.01116998011
-0.01338290535
-0.01562597699
-0.01781489497
-0.01986486293
-0.02173674111
-0.02339608146
-0.02481087605
-0.02596845978
-0.02687044425
-0.02753342452
-0.02797799919
-0.02819991574
-0.02825157127
-0.02815268163
-0.02792591681
-0.02756162976
-0.027081675
-0.02654872333
-0.02593518416
-0.02525563287
-0.02451172022
-0.02372643452
-0.02291170277
-0.0220781762
-0.02123373541
-0.02036408454
-0.01949632971
-0.01865076797
-0.01780339461
-0.01695964573
-0.01611876809
-0.01528625967
-0.01445223706
-0.01365766616
-0.0128811041
-0.01212341725
-0.01136079673
-0.01064519958
-0.00995087729
-0.009264919591
-0.008629692274
-0.008003151887
-0.007412649786
-0.006851680174
-0.006320430324
-0.005819216613
-0.005337188462
-0.004878819795
-0.004443837279
-0.004041709103
-0.003660487211
-0.003301780365
-0.002970014353
-0.002661812171
-0.002377789314
-0.002110788158
-0.001862928931
-0.00164143426
-0.001433998703
-0.00124423065
-0.001074624568
-0.0009221944954
-0.0007877767764
-0.0006665913382
-0.0005588430327
-0.000467269965
-0.0003850096246
-0.0003146514861
-0.0002536368527
-0.000202542972
-0.0001602518117
-0.000125481922
-9.739726976e-05
-7.493950557e-05
-5.534771109e-05
-3.655920266e-05
-9.046603231e-05
-0.000181245946
-0.0003817834133
-0.001106125225
)


101
(
-1.813325602e-18
4.030996913e-11
1.812641061e-09
-1.193031055e-10
-1.274325832e-07
-8.792128662e-07
-3.48078799e-06
-1.107411731e-05
-3.010226438e-05
-7.271995611e-05
-0.0001591009422
-0.0003184950697
-0.0005902511201
-0.001019416918
-0.001653845009
-0.002539300616
-0.003711878652
-0.005185049746
-0.006964144886
-0.009020848243
-0.01130852965
-0.01376674289
-0.01632972689
-0.01891469525
-0.02142117853
-0.02379726743
-0.02599885998
-0.02797798729
-0.02970151936
-0.0311549725
-0.03234330018
-0.03328565504
-0.03397989455
-0.03446396824
-0.03474536377
-0.03485937736
-0.03480409847
-0.03459691261
-0.03429927636
-0.03386969931
-0.03332763485
-0.03267314307
-0.03194530183
-0.03114713643
-0.03030518195
-0.02944103546
-0.0285266927
-0.02758697603
-0.02663606621
-0.02566466108
-0.02468311023
-0.02370158448
-0.02271572255
-0.0217102288
-0.02069159774
-0.01970293977
-0.01874220019
-0.01775264772
-0.0168033729
-0.0158790837
-0.01494294745
-0.01405153029
-0.01318227445
-0.01234229881
-0.01152574854
-0.01073059008
-0.009995978116
-0.009274143953
-0.008587975726
-0.00792083858
-0.00729044071
-0.006684798217
-0.006115231017
-0.005578015789
-0.005072411202
-0.004592007519
-0.00413871959
-0.003716403001
-0.003325959998
-0.002957923853
-0.002612937154
-0.002303914027
-0.002014617417
-0.001757610275
-0.001522085356
-0.001305124246
-0.001117099937
-0.0009435749813
-0.0007918234473
-0.0006607750856
-0.0005422195461
-0.000443992695
-0.000360336635
-0.000289911292
-0.000231844519
-0.000179946843
-0.0001279745965
-0.0002875207442
-0.0005439615723
-0.001053935273
-0.001545226336
)


101
(
-1.620928636e-18
3.561464375e-11
1.863867155e-09
1.619705764e-09
-1.099562625e-07
-7.839888239e-07
-3.127303749e-06
-9.965661425e-06
-2.712323334e-05
-6.565066669e-05
-0.000144171915
-0.00029010174
-0.000541380646
-0.000943135613
-0.001545482321
-0.002399746436
-0.003551706117
-0.005028791628
-0.00684946459
-0.009002906567
-0.01145605468
-0.01415589098
-0.01703938336
-0.02002643765
-0.02301047054
-0.02592535644
-0.02871466114
-0.03131791229
-0.03368387337
-0.03578047919
-0.03759562958
-0.03914103052
-0.04041993081
-0.04147394529
-0.04228316915
-0.04288468304
-0.04328652383
-0.04350250652
-0.04358350413
-0.04347715962
-0.04321366321
-0.04278752649
-0.04224982336
-0.04160362693
-0.04088058377
-0.04010894722
-0.03924015547
-0.0382985731
-0.0373099914
-0.03627877505
-0.03521016957
-0.03412285723
-0.03302123113
-0.03186605285
-0.03064161528
-0.02948866105
-0.02830420853
-0.02708531977
-0.02585980096
-0.0246857459
-0.02347635572
-0.02228616524
-0.02110996777
-0.01994705924
-0.01882070777
-0.01770284992
-0.0166278081
-0.01559413635
-0.01459482563
-0.01361226187
-0.01267099714
-0.01175372292
-0.01087856204
-0.01003878638
-0.009234738012
-0.008457172036
-0.007724607958
-0.007042633106
-0.00637850485
-0.005756145946
-0.005170830782
-0.004628188258
-0.004120332941
-0.003655507399
-0.003219354879
-0.002812603955
-0.00245394863
-0.002122838736
-0.001821298433
-0.001555811
-0.001309307784
-0.001102294577
-0.0009185242581
-0.000763416589
-0.0006292036959
-0.000506765981
-0.0003827581306
-0.0007864354906
-0.001410233854
-0.00255965245
-0.003814613139
)


101
(
-1.400404412e-18
3.023346667e-11
1.889023861e-09
3.063993581e-09
-9.458727619e-08
-6.993841563e-07
-2.813785748e-06
-8.986758993e-06
-2.449832985e-05
-5.942966414e-05
-0.00013104058
-0.000265116764
-0.0004982565992
-0.000875570718
-0.001449027582
-0.002274647129
-0.003406629951
-0.004885105588
-0.006741697516
-0.008982753664
-0.01159014658
-0.01452206436
-0.01772034682
-0.02110710708
-0.02457683019
-0.02805296351
-0.03146902844
-0.03475365264
-0.03783993923
-0.04067634344
-0.04322987313
-0.04550131717
-0.04749858909
-0.04927339419
-0.05077866078
-0.05204353815
-0.05307847545
-0.0538908846
-0.05452039406
-0.05492727661
-0.05513311239
-0.05512834707
-0.05496483218
-0.05465251256
-0.05421912398
-0.05370069599
-0.05304081643
-0.05225128355
-0.05135586001
-0.05038818156
-0.04933636173
-0.04823386645
-0.04709875018
-0.04587206052
-0.04453793044
-0.04323754566
-0.0418784015
-0.04043134683
-0.03894742074
-0.03750640844
-0.03601718807
-0.03450542329
-0.03299079061
-0.03145212541
-0.02991866311
-0.02843501831
-0.02695296039
-0.02550482268
-0.02410447558
-0.0226919024
-0.02133338904
-0.02000357905
-0.01869215748
-0.01742155636
-0.01618975123
-0.01499780715
-0.01385009799
-0.01275723883
-0.01171073007
-0.01069764652
-0.009724331949
-0.008813822161
-0.007961388278
-0.007149222409
-0.006394422523
-0.005683480102
-0.005027643815
-0.004426422054
-0.003860448831
-0.003355432167
-0.002893359474
-0.002487602592
-0.002118004329
-0.001796034298
-0.001521760923
-0.001263135654
-0.001000994344
-0.001908506927
-0.003261400869
-0.005626979863
-0.006605179105
)


101
(
-1.159153719e-18
2.433115115e-11
1.891652901e-09
4.248885932e-09
-8.108010792e-08
-6.241146218e-07
-2.535035155e-06
-8.119581568e-06
-2.217677526e-05
-5.392786463e-05
-0.0001194104639
-0.0002429386521
-0.0004597789162
-0.0008148547392
-0.001361557683
-0.002159775159
-0.003270990946
-0.004746751527
-0.006631531787
-0.008948518489
-0.01169425536
-0.01484160059
-0.01834028814
-0.02211674944
-0.02607129801
-0.03012007709
-0.034191781
-0.03820792035
-0.04208994032
-0.04576399283
-0.04917239218
-0.05230512326
-0.05517607004
-0.05784141388
-0.06022497285
-0.06234595504
-0.06421214336
-0.06582595394
-0.067218564
-0.06837744059
-0.06930071683
-0.06996694942
-0.07042340584
-0.0706886089
-0.07077802692
-0.07073521104
-0.07051322467
-0.0701067739
-0.06953487891
-0.06886215759
-0.06800002537
-0.06702621771
-0.06603003731
-0.06488637281
-0.06357014388
-0.06219708234
-0.06080062594
-0.05921376606
-0.05756619928
-0.05589568684
-0.05418380859
-0.05235678216
-0.05047578646
-0.04853855014
-0.04659865298
-0.04466320317
-0.04269087077
-0.04075495601
-0.03880058854
-0.03687041316
-0.03496868182
-0.03311187227
-0.03122009131
-0.02935615875
-0.02752165579
-0.02571779769
-0.02397662942
-0.02232048644
-0.02067579263
-0.01909479345
-0.01753904554
-0.01607293378
-0.01466820669
-0.01331114724
-0.01204825044
-0.01085304399
-0.009711189558
-0.008661200882
-0.007661909528
-0.006754824961
-0.005922769821
-0.005172871166
-0.004482225226
-0.003870182847
-0.003336583377
-0.002836002833
-0.002326262605
-0.00419960887
-0.006940558585
-0.01159525951
-0.01504678409
)


101
(
-9.038044073e-19
1.805581081e-11
1.874947558e-09
5.205834367e-09
-6.921877001e-08
-5.570633038e-07
-2.286585515e-06
-7.348964505e-06
-2.011601709e-05
-4.903952582e-05
-0.0001090426892
-0.0002230925653
-0.0004251001394
-0.0007595848587
-0.001280927737
-0.002052084288
-0.003140800123
-0.00460879564
-0.00651268702
-0.008892604707
-0.01175766963
-0.01509824766
-0.01887484719
-0.02302277185
-0.02745310062
-0.03207691147
-0.03682177499
-0.04160453634
-0.04634079682
-0.05094008298
-0.05532104128
-0.05945549189
-0.06335727148
-0.06708985273
-0.07054633934
-0.07373711273
-0.07666524526
-0.07933018224
-0.08175878109
-0.08395187877
-0.08589526514
-0.08755791188
-0.0889684797
-0.09013272568
-0.09105481996
-0.0917948204
-0.09232180897
-0.0926087584
-0.09268202711
-0.09260585438
-0.09222525901
-0.09165833493
-0.09107903686
-0.09027631837
-0.08924012135
-0.08806421021
-0.08682640169
-0.08534071464
-0.08365002878
-0.08188864478
-0.08008422662
-0.07806755699
-0.07584181006
-0.07354719686
-0.07123844835
-0.06880055781
-0.06634136232
-0.06378181756
-0.06124988403
-0.05868320194
-0.05608303834
-0.05354339798
-0.05092280278
-0.04829704318
-0.04565759787
-0.04299760843
-0.04045397988
-0.03794478071
-0.03545784893
-0.03305920451
-0.03062426184
-0.02829519597
-0.02606942084
-0.02388932775
-0.0217759872
-0.01979773654
-0.01793704188
-0.01613017776
-0.01444982639
-0.01289708996
-0.01142971364
-0.01011706881
-0.008866705282
-0.007755189244
-0.006782567697
-0.00586692557
-0.004924916138
-0.008547192134
-0.01379767378
-0.02288024749
-0.03854729165
)


101
(
-6.402601452e-19
1.154022499e-11
1.841786522e-09
5.962854972e-09
-5.88131557e-08
-4.972576242e-07
-2.06459713e-06
-6.661981597e-06
-1.828027502e-05
-4.467770111e-05
-9.974650309e-05
-0.000205200343
-0.0003935654944
-0.000708719751
-0.001205610623
-0.001949486171
-0.003013311204
-0.004467751083
-0.006380411521
-0.008807540549
-0.01177015519
-0.01527798658
-0.01930603285
-0.02380026273
-0.02868887927
-0.03388228329
-0.03930697934
-0.04487558582
-0.05050408061
-0.0560972841
-0.06156301901
-0.06684720928
-0.07193851953
-0.0769189814
-0.08164955527
-0.0861384298
-0.09038373993
-0.09438402433
-0.09816819908
-0.1017323259
-0.1050743971
-0.1081185016
-0.1108818191
-0.1133666078
-0.1155639766
-0.1175158056
-0.1191966541
-0.120614339
-0.1217584066
-0.1226877086
-0.1232594922
-0.1235544325
-0.1237804978
-0.1237423551
-0.1234143317
-0.1228422299
-0.1221344646
-0.1211310056
-0.119737811
-0.1181728583
-0.1164422807
-0.1144937386
-0.1121483786
-0.1097168391
-0.1071580627
-0.1043060445
-0.1013447122
-0.09822008316
-0.09510885202
-0.09181675996
-0.08840018709
-0.08504199963
-0.0814989538
-0.07795857564
-0.07432748303
-0.07051373352
-0.06681113238
-0.06307883599
-0.05947267132
-0.05583853822
-0.05215710091
-0.04859478493
-0.04505831541
-0.0416552179
-0.03833927795
-0.03506183875
-0.03201604372
-0.02905079723
-0.02622603609
-0.02362559937
-0.0210941933
-0.01882491933
-0.01668575749
-0.01473512098
-0.01303125097
-0.01140418718
-0.009730124988
-0.01663204389
-0.02667896816
-0.04451836836
-0.05531181552
)


101
(
-3.737480963e-19
4.90295881e-12
1.794764335e-09
6.544916704e-09
-4.969584788e-08
-4.438511096e-07
-1.865768833e-06
-6.047595457e-06
-1.663931809e-05
-4.077054095e-05
-9.136867222e-05
-0.0001889609848
-0.000364667401
-0.0006614898913
-0.001134534069
-0.001850610198
-0.002886783926
-0.004321347949
-0.006231513075
-0.008687604817
-0.01172413022
-0.01537030808
-0.01962059291
-0.0244298663
-0.02975045421
-0.03549963475
-0.04159907568
-0.04795744376
-0.05449906223
-0.06113515824
-0.06777260826
-0.07433636208
-0.08077676917
-0.08718650356
-0.09340012606
-0.09943529205
-0.1052839956
-0.1109373585
-0.1164344905
-0.1217706571
-0.126919318
-0.1317936406
-0.1364164605
-0.1407411139
-0.1447389448
-0.1484544368
-0.1518785861
-0.1550438618
-0.1578210894
-0.1603416624
-0.1625198727
-0.1643495041
-0.1659761613
-0.1673554212
-0.168340936
-0.1689043341
-0.1693492129
-0.1694557369
-0.1689343671
-0.1680495206
-0.1669142354
-0.1654867342
-0.1635507462
-0.1614393855
-0.1588312037
-0.1560274892
-0.1528179509
-0.1492430013
-0.1455850087
-0.1415816136
-0.1374203688
-0.1331405144
-0.1286005035
-0.1239831417
-0.11917339
-0.1140084216
-0.1086386821
-0.1034040554
-0.09812048756
-0.0927757411
-0.08744675414
-0.08210136754
-0.07654310429
-0.07128588154
-0.06611639755
-0.06095051691
-0.05595875605
-0.05119782413
-0.04649873045
-0.04215890869
-0.03795209839
-0.03403718402
-0.03045215664
-0.02708701574
-0.02415480728
-0.02136322133
-0.01850218798
-0.0316203623
-0.05090556793
-0.08699640825
-0.1223834788
)


101
(
-1.088557556e-19
-1.750803471e-12
1.736253322e-09
6.974286332e-09
-4.171921691e-08
-3.961062296e-07
-1.687261501e-06
-5.496374552e-06
-1.51672901e-05
-3.725780037e-05
-8.378552155e-05
-0.0001741364609
-0.0003380136483
-0.0006173235527
-0.001066939238
-0.001754569615
-0.002760235378
-0.004168571652
-0.00606502499
-0.008530356322
-0.01161629948
-0.01536990465
-0.01980936565
-0.02489638006
-0.03061048774
-0.03688677919
-0.04364333645
-0.05078445003
-0.05824914348
-0.06596238639
-0.07383069431
-0.0817700801
-0.08970595572
-0.09772335532
-0.1056320803
-0.1134776184
-0.1212450103
-0.1288997177
-0.1364792054
-0.1439932051
-0.1514142707
-0.1586544719
-0.1656971256
-0.1724697712
-0.1789275208
-0.18511494
-0.1910276052
-0.1967012461
-0.2019347036
-0.20688235
-0.21150683
-0.2157791267
-0.219733128
-0.2234309107
-0.2266947401
-0.2293037062
-0.2317955272
-0.2338559451
-0.2351834071
-0.2358939772
-0.2361902409
-0.2360614748
-0.2354410232
-0.234431567
-0.2325642652
-0.2304839677
-0.2275099579
-0.2239993307
-0.2201490549
-0.2159718582
-0.2113231388
-0.2062078973
-0.2007378683
-0.1949761716
-0.1887697287
-0.1821179188
-0.1751544121
-0.1677838269
-0.160284815
-0.1526989539
-0.1451763611
-0.1371868307
-0.1289500714
-0.1208366526
-0.112865034
-0.1048536776
-0.09672929565
-0.089105294
-0.08143558003
-0.07424879663
-0.0674608268
-0.06075872206
-0.05471198079
-0.04906979809
-0.04397220315
-0.03920487171
-0.03435034428
-0.05972316188
-0.0975232316
-0.1721416092
-0.2623279716
)


101
(
1.504202905e-19
-8.328121724e-12
1.668319915e-09
7.270831158e-09
-3.475303248e-08
-3.533800948e-07
-1.526634194e-06
-5.00027932e-06
-1.384193658e-05
-3.408754404e-05
-7.68967265e-05
-0.0001605402417
-0.000313307121
-0.0005757966767
-0.001002251114
-0.001660639433
-0.002632851044
-0.004008623923
-0.005880646439
-0.0083377368
-0.01144918234
-0.01527862264
-0.01986805774
-0.02519030775
-0.03124967006
-0.03801036602