/*--------------------------------*- C++ -*----------------------------------*\
| =========                 |                                                 |
| \\      /  F ield         | OpenFOAM: The Open Source CFD Toolbox           |
|  \\    /   O peration     | Version:  2.3.1                                 |
|   \\  /    A nd           | Web:      www.OpenFOAM.org                      |
|    \\/     M anipulation  |                                                 |
\*---------------------------------------------------------------------------*/
FoamFile
{
    version     2.0;
    format      ascii;
    class       dictionary;
    location    "constant";
    object      la_r6;
}
// * * * * * * * * * * * * * * * * * * * * * * * * * * * * * * * * * * * * * //

la_r6_table
101
(

101
(
0.009391374643
0.821507169
3.229887029
6.862024014
11.90558784
18.77324603
27.62600684
38.44967368
50.68025833
63.61398516
76.42845648
88.28844693
98.37732483
106.1491227
111.0880125
113.140189
112.3965216
109.1005635
103.8019507
96.98130827
89.21918723
81.10588592
73.07426458
65.51791703
58.71507971
52.80556166
47.81989342
43.72235205
40.44346297
37.85904946
35.84974724
34.29407243
33.08337527
32.20646654
31.54182036
31.06512272
50.55556749
83.8481296
81.40955673
78.67525055
75.72812169
72.67676632
69.54459495
66.38732628
63.27513714
60.23584615
57.30327256
54.50760174
51.85833125
49.37568661
47.06238515
44.91862635
42.9366568
41.10691217
39.41352555
37.83786899
36.36284151
34.96778255
33.63501023
32.34699434
31.08735144
29.84653426
28.61319752
27.37946887
26.13663119
24.88663963
23.62698923
22.35830146
21.08379651
19.81060126
18.54240093
17.28760466
16.05309749
14.85422206
15.66235668
15.57613124
13.85160493
12.25372657
10.77671635
9.416337266
8.171601077
7.043186548
6.029990153
6.040266151
5.585031699
4.383767517
3.395499398
2.586654994
1.935772052
1.848061846
1.253769286
0.768040136
0.450938724
0.2778966053
0.1333287817
0.0282180909
4.72110261e-13
-9.1057907e-29
-8.161199059e-23
5.873360251e-23
-9.475651645e-22
)


101
(
0.009361181646
0.8056513655
3.169397285
6.75648882
11.74312323
18.51976096
27.23035736
37.8428301
49.78924733
62.38093788
74.799391
86.23262014
95.87845479
103.197131
107.6668924
109.2158447
107.9216653
104.0068015
97.95984651
90.30778811
81.55913861
72.3180881
63.05301287
54.15381917
45.92638795
38.55793877
32.12860252
26.6437444
22.07441936
18.34030512
15.34613085
12.98993018
11.16354805
9.865115605
9.020270214
8.554202735
7.737359887
6.322193639
5.912016646
6.182437185
6.70414701
7.354041356
8.07239415
8.844344573
9.658382492
10.48836186
11.32788307
12.15513802
12.96072876
13.72617074
14.44319699
15.10060798
15.69118672
16.21430372
16.65960174
17.01950106
17.28039029
17.45325161
17.53212523
17.52220775
17.42219008
17.23903609
16.97879784
16.64508954
16.24065688
15.77181532
15.2475937
14.67376541
14.05718957
13.40614293
12.72709836
12.02756128
11.31452193
10.59860119
9.908607864
9.22504639
8.515855215
7.791540001
7.071717034
6.371438982
5.700359822
5.062196439
4.461719723
3.914227844
3.399065753
2.898168271
2.423667243
1.99129021
1.605595962
1.273334226
0.9846308275
0.7248666512
0.5069629728
0.3351953519
0.1997610254
0.09896896592
0.03068112599
0.03155599368
0.03260535429
0.03412598248
0.03526474931
)


101
(
0.009331041638
0.7899507259
3.109443333
6.64888225
11.57366005
18.25681793
26.83540176
37.2629296
48.9934154
61.35447351
73.55046655
84.79886548
94.33186842
101.6073723
106.1382526
107.8246839
106.7373864
103.0847147
97.32057868
89.94776537
81.46682233
72.44233419
63.33625052
54.53135633
46.32504717
38.90963163
32.37699169
26.74218233
21.97906827
18.0212165
14.78007245
12.16111815
10.07317075
8.473207238
7.338752913
6.594601682
5.804070267
4.771713045
4.075429738
3.885953879
4.032935308
4.374963524
4.807248941
5.304366862
5.860615458
6.450984721
7.067163903
7.696407947
8.326994342
8.946135457
9.544477862
10.11165277
10.63799093
11.12160563
11.56009532
11.94646383
12.27078882
12.53167253
12.72426749
12.85161323
12.91033721
12.90425346
12.83698695
12.70865306
12.52161432
12.2791349
11.98696527
11.64813042
11.26575031
10.84734986
10.39646342
9.918353993
9.416152141
8.898193833
8.37813681
7.860940023
7.336776298
6.798112849
6.247157739
5.695203505
5.15560294
4.635671135
4.138675013
3.671072393
3.235509589
2.823578318
2.425898975
2.049112461
1.705011394
1.397456612
1.125483099
0.8861784397
0.6710404589
0.4897918214
0.3428594216
0.2166528192
0.112846878
0.1200542209
0.1274712177
0.1374803464
0.1447841329
)


101
(
0.009300954443
0.774359114
3.049481102
6.538665503
11.39496594
17.9717949
26.39684632
36.60884671
48.08118257
60.15851261
72.0688165
83.06068951
92.40204161
99.55589133
104.0687921
105.8221376
104.8799227
101.4396393
95.92523678
88.80973857
80.58751662
71.78504676
62.85157308
54.16389184
46.01110707
38.58580419
31.98963438
26.24793599
21.33832849
17.20451922
13.7657587
10.9309241
8.619789705
6.766464853
5.367007753
4.408146545
3.472191624
2.543941214
1.769488018
1.286108125
1.111001481
1.162597181
1.33954943
1.60328781
1.939927079
2.326010261
2.755246241
3.215984779
3.702733628
4.202206808
4.709565314
5.212681332
5.701128448
6.170993045
6.620834023
7.043981303
7.438333144
7.796827114
8.111575262
8.38474652
8.608598987
8.783843901
8.912169841
8.992017806
9.024748109
9.012337132
8.954955809
8.854823258
8.708641351
8.523073612
8.302044435
8.047926523
7.760425086
7.444917222
7.109115018
6.759916572
6.398917466
6.0219339
5.625260937
5.210942465
4.789364575
4.371669714
3.963621349
3.569303131
3.193317782
2.837276853
2.496410992
2.164535511
1.850444694
1.562627462
1.301997759
1.06909781
0.859523161
0.6717937549
0.5135510849
0.367997402
0.2337145071
0.2535482376
0.2738424788
0.3009911573
0.3214487719
)


101
(
0.009270919885
0.7588789546
2.989515075
6.4258808
11.20737898
17.66614633
25.91880096
35.88948114
47.06915307
58.82065097
70.39631411
81.07764813
90.16901585
97.1447134
101.5837181
103.3553351
102.5172507
99.25738339
93.97282189
87.10505448
79.14057557
70.57006098
61.8253981
53.27783176
45.20756265
37.8058255
31.18160045
25.36933306
20.3520573
16.08158859
12.48678953
9.477686907
6.98159112
4.917949762
3.276376772
2.039536743
0.9933424169
0.03362830278
-0.8106337935
-1.46586659
-1.88662088
-2.091612237
-2.150915764
-2.102955988
-1.96612239
-1.764318424
-1.504414093
-1.197305403
-0.8452518551
-0.4600404602
-0.04324913383
0.3947967271
0.8424480835
1.292387966
1.744559681
2.196396087
2.639842667
3.07391018
3.488219363
3.885057066
4.253896397
4.590232298
4.89337184
5.16051399
5.392638135
5.592565502
5.757917834
5.885221743
5.970183701
6.015141407
6.025150997
6.0005849
5.938792207
5.840361053
5.709356458
5.551379058
5.370577077
5.165984137
4.93504293
4.675164497
4.389742324
4.088889508
3.781799411
3.473029265
3.167438548
2.868701731
2.578973362
2.293424429
2.011930815
1.744893165
1.49741709
1.270313739
1.063610198
0.8733822872
0.7064787642
0.5467460686
0.3890128135
0.4276192024
0.4660755571
0.5148875166
0.5401051894
)


101
(
0.009240937785
0.7435133279
2.929591956
6.31082815
11.01192385
17.34251462
25.40691977
35.11525189
45.97483176
57.36794141
68.57188259
78.90258545
87.70150908
94.45858636
98.78418716
100.5405658
99.77886252
96.67831237
91.61147719
84.98764129
77.28295406
68.95500311
60.41489225
52.02791455
44.06561175
36.71602513
30.09390521
24.24197822
19.14948099
14.77507481
11.05468523
7.908727605
5.263767702
3.032246991
1.196210856
-0.2686997973
-1.473863457
-2.522036831
-3.445811745
-4.223828277
-4.821981038
-5.232108787
-5.492827468
-5.632244201
-5.666215667
-5.617063875
-5.49423788
-5.310613357
-5.066560655
-4.768079017
-4.416282674
-4.01967794
-3.590754573
-3.138918134
-2.666590442
-2.177216281
-1.677007384
-1.165505014
-0.6514887246
-0.1464799896
0.342558453
0.8218232704
1.268665751
1.691027327
2.088426891
2.45488353
2.796619934
3.107708962
3.375330007
3.615309582
3.809092515
3.971325651
4.09741185
4.189376358
4.242098661
4.259609465
4.246470312
4.204835265
4.130763457
4.024255403
3.882359383
3.710600292
3.51632136
3.307153347
3.08684735
2.86024628
2.63095769
2.398918765
2.160686266
1.922513711
1.695178347
1.479744549
1.278519013
1.089878513
0.918119723
0.7481734987
0.572588214
0.6369694937
0.6889416576
0.7485996659
0.751823454
)


101
(
0.009211007997
0.7282653918
2.869760715
6.193806649
10.80958235
17.00335818
24.86634812
34.29546837
44.81358386
55.82375335
66.62861336
76.5797011
85.05606379
91.5662051
95.75090545
97.46924242
96.76510681
93.80961214
88.95265415
82.57138584
75.12912683
67.05318427
58.7312137
50.52188145
42.68917108
35.41600304
28.82123055
22.95589994
17.81616258
13.36690274
9.550351903
6.296002359
3.533867589
1.173898612
-0.8113856905
-2.450734909
-3.806922734
-4.95825169
-5.956833171
-6.813803723
-7.513535147
-8.042097012
-8.418955271
-8.657396217
-8.768564955
-8.772238139
-8.678569791
-8.49833593
-8.233960888
-7.895555615
-7.47887086
-7.007229303
-6.489877762
-5.936512249
-5.341491424
-4.73896849
-4.135344871
-3.504823383
-2.872014918
-2.259805409
-1.666403699
-1.077081131
-0.5354501646
-0.03866362448
0.4351761086
0.8708911071
1.27437829
1.651224765
1.980704926
2.28188273
2.54030718
2.766957766
2.959437569
3.126585283
3.259129378
3.356282186
3.427849641
3.470357077
3.485061974
3.473985835
3.428996752
3.354969901
3.25074981
3.126310741
2.983924696
2.826878436
2.659632143
2.483402061
2.294619965
2.094868595
1.894228672
1.698082187
1.506942504
1.32360539
1.151267417
0.972448452
0.7827265469
0.8725237141
0.8836561761
0.6998056972
0.4498612196
)


101
(
0.009181130308
0.7131381225
2.810068228
6.075099257
10.60126299
16.65089641
24.30162714
33.43821396
43.59873853
54.20811651
64.59438232
74.14570311
82.27878375
88.52287737
92.54775167
94.21264353
93.55354925
90.73320414
86.08044262
79.94098213
72.76312129
64.94680799
56.85487476
48.83760613
41.15323079
33.97804521
27.43266204
21.57640816
16.41360905
11.91575218
8.031000605
4.696623961
1.849582794
-0.597623397
-2.680066622
-4.428099376
-5.879553264
-7.088320923
-8.102094177
-8.942985304
-9.61050055
-10.09533823
-10.404777
-10.54395833
-10.52385814
-10.36643608
-10.0911472
-9.708471914
-9.219885793
-8.654721404
-8.004365981
-7.332887428
-6.627461727
-5.901622329
-5.157996634
-4.444067467
-3.761265765
-3.096028253
-2.456195142
-1.876308581
-1.347910545
-0.8330798756
-0.3803749914
0.0162663456
0.3636225484
0.6638721222
0.9159696172
1.163809553
1.372856247
1.563178679
1.726286651
1.856132822
1.966350749
2.070540647
2.171402074
2.253987767
2.32717831
2.38785508
2.445337485
2.497558105
2.530181869
2.538792078
2.528759114
2.50347556
2.463399411
2.408503626
2.339332547
2.264110127
2.166639486
2.050271768
1.920837862
1.787118696
1.641582618
1.494530302
1.34720894
1.181615298
1.001352621
0.9202923083
0.5910616445
-0.6846674564
-1.857884094
)


101
(
0.009151304574
0.6981343727
2.750559118
5.954973244
10.38781135
16.28715081
23.71678425
32.55049648
42.34184458
52.53816409
62.49270144
71.63091179
79.40715579
85.37282263
89.22520113
90.82627443
90.20384607
87.51160654
83.05848268
77.15985245
70.24706178
62.69576974
54.84427025
47.03106298
39.51081061
32.45293374
25.97711359
20.15040835
14.98711189
10.46696417
6.544881779
3.165679028
0.2759712788
-2.201680163
-4.30288869
-6.057048317
-7.488150287
-8.628606774
-9.50800901
-10.15350276
-10.57294801
-10.76672177
-10.75993101
-10.56389526
-10.19678444
-9.687985907
-9.073731502
-8.378952524
-7.593203326
-6.789162157
-5.985978609
-5.222705952
-4.476067815
-3.804366226
-3.151817053
-2.563215115
-2.095538802
-1.699666462
-1.364748765
-1.1144292
-0.9376027527
-0.7927463904
-0.728230942
-0.7016070081
-0.7180547182
-0.7655405542
-0.8436648786
-0.924384971
-1.00821679
-1.092731646
-1.160160173
-1.224441797
-1.262548573
-1.275102348
-1.256256707
-1.206444501
-1.133742428
-1.044055795
-0.9254940899
-0.7700871281
-0.5914800152
-0.4131072657
-0.2446757384
-0.06766348814
0.1075835997
0.2812024239
0.4373590857
0.6073479719
0.7451758383
0.8538702342
0.9412468808
1.018162346
1.050789022
1.061054527
1.056298642
1.006226854
0.960121612
0.01565911115
-1.394772232
-5.367693551
-8.903154733
)


101
(
0.009121530593
0.683256875
2.691275519
5.833678077
10.17001178
15.91398217
23.11548122
31.63855999
41.05299661
50.82868768
60.34360809
69.06079396
76.47218519
82.15208768
85.82379975
87.35406869
86.76254124
84.19303357
79.93541703
74.2759173
67.62740297
60.34399443
52.74174284
45.14249008
37.79892541
30.87491298
24.48813842
18.71254235
13.57386513
9.062946112
5.14461508
1.773590241
-1.090666662
-3.50977656
-5.510805415
-7.119945759
-8.354325356
-9.232620991
-9.766086864
-10.00439928
-9.974878472
-9.708619573
-9.250063188
-8.6385481
-7.90644177
-7.094552103
-6.25261176
-5.409316618
-4.581978619
-3.851863375
-3.223200343
-2.711513197
-2.313207768
-2.055990062
-1.891977601
-1.864213386
-1.962639925
-2.195851357
-2.494885536
-2.868305745
-3.317077467
-3.784868433
-4.304404746
-4.836896213
-5.381048876
-5.930905625
-6.475321973
-6.992392265
-7.461807807
-7.86929341
-8.215252697
-8.503078539
-8.731660191
-8.888878133
-8.960664115
-8.943783531
-8.848553817
-8.69142128
-8.473279004
-8.164106777
-7.771541114
-7.337522401
-6.884927665
-6.404425154
-5.876692371
-5.315497263
-4.783850424
-4.195559126
-3.626007701
-3.088546281
-2.562927256
-2.052070833
-1.611840451
-1.231384124
-0.8592617904
-0.5560083516
-0.1714547307
-3.285740936
-6.930893755
-15.34821387
-22.98391424
)


101
(
0.009091808229
0.6685082272
2.632257241
5.711446099
9.948581956
15.53308145
22.50104178
30.70803095
39.74089958
49.0921274
58.16390758
66.45665128
73.49959426
78.89028823
82.37648808
83.83127248
83.26660486
80.81549452
76.74943092
71.32675912
64.94048441
57.92500542
50.57716475
43.20040306
36.0437461
29.26840513
22.99114365
17.29239267
12.21066563
7.751580423
3.895149723
0.6102996496
-2.128552208
-4.365177913
-6.116079808
-7.408058929
-8.262529992
-8.702790959
-8.751536737
-8.496606455
-7.988825992
-7.298911977
-6.491832831
-5.639520783
-4.781659094
-3.963688994
-3.245650345
-2.657055067
-2.221763313
-1.983118108
-1.934283392
-2.069658329
-2.384113812
-2.880237941
-3.546454383
-4.343642098
-5.256580581
-6.293835247
-7.403447441
-8.563602652
-9.765328138
-10.96722495
-12.16249581
-13.33499007
-14.47535695
-15.57451477
-16.62747313
-17.61324725
-18.5096274
-19.29059127
-19.95795157
-20.50843484
-20.95561697
-21.2922368
-21.4999072
-21.5567273
-21.47220612
-21.27705425
-20.97692973
-20.53889673
-19.94863417
-19.26444175
-18.50439597
-17.69761683
-16.7822216
-15.74867179
-14.74136626
-13.64230483
-12.50760683
-11.40806946
-10.25231105
-9.109380077
-8.046258474
-7.067165453
-6.079858061
-5.105523297
-3.841723284
-10.88841487
-17.99297011
-31.6070627
-40.98626681
)


101
(
0.00906213728
0.6538908509
2.573541915
5.588496416
9.724191335
15.14600461
21.87648025
29.7639302
38.41316612
47.33911047
55.96783531
63.83628827
70.51064311
75.6116098
78.90981382
80.2858918
79.74510677
77.40872687
73.53011035
68.34113241
62.2142329
55.46486133
48.37347567
41.22718535
34.26722791
27.65601351
21.51243333
15.92364963
10.9423147
6.592739844
2.874382734
-0.2274474585
-2.725801014
-4.650158849
-6.01812356
-6.87077842
-7.252134766
-7.212483616
-6.808951126
-6.171139946
-5.368458106
-4.498467786
-3.642209835
-2.878500752
-2.250089537
-1.806740822
-1.607294014
-1.663012689
-1.966947498
-2.531502932
-3.341707978
-4.379502966
-5.617778379
-7.044841471
-8.642966315
-10.34880439
-12.16909641
-14.06621509
-16.02170476
-17.99463897
-19.96491396
-21.90428545
-23.79388514
-25.61627391
-27.3633902
-29.02251499
-30.59649525
-32.07637962
-33.4388201
-34.64780594
-35.70166062
-36.58679174
-37.32369183
-37.91340172
-38.34165106
-38.57179663
-38.60959889
-38.49072985
-38.19733756
-37.73627606
-37.07493105
-36.24187929
-35.27804316
-34.22872789
-33.00671676
-31.55928472
-30.0915223
-28.53454002
-26.86762609
-25.14717199
-23.31617303
-21.48569195
-19.68452473
-17.96640848
-16.23015024
-14.37774852
-11.95309897
-24.01676849
-34.96430526
-53.45270476
-64.68317204
)


101
(
0.009032517638
0.6394070904
2.515164864
5.465034797
9.497463982
14.75418768
21.24455248
28.81076129
37.07639418
45.57873736
53.76750354
61.21459515
67.52286371
72.33576829
75.44517688
76.74023845
76.2206606
73.99557639
70.30003422
65.3407815
59.47062446
52.98565933
46.15250964
39.24560517
32.49574625
26.06809437
20.08678218
14.64847135
9.821498481
5.650458138
2.15354145
-0.6714049961
-2.83315999
-4.360524156
-5.28982552
-5.691730998
-5.648793688
-5.252890405
-4.600294484
-3.832000869
-3.038386909
-2.318384816
-1.75905046
-1.429009075
-1.362922848
-1.597105138
-2.166764088
-3.071693217
-4.285723042
-5.787078761
-7.549644896
-9.547049542
-11.74252259
-14.10569198
-16.60723955
-19.2074017
-21.88938941
-24.60826576
-27.35279218
-30.09325274
-32.79756158
-35.43922728
-38.00127506
-40.4613135
-42.80995936
-45.04807445
-47.16250464
-49.15953649
-51.02994884
-52.72217989
-54.24036713
-55.55817244
-56.67602437
-57.61442141
-58.37024292
-58.91328065
-59.21847848
-59.30876029
-59.19431412
-58.859988
-58.27762447
-57.46788216
-56.4670238
-55.31288579
-53.97467173
-52.31393002
-50.49766926
-48.59772013
-46.54282385
-44.32084213
-41.91451395
-39.49760114
-37.0427348
-34.58644451
-32.118631
-29.35203374
-25.69700789
-43.06818504
-56.90121218
-77.25640499
-85.23935826
)


101
(
0.009002949139
0.6250591437
2.457159372
5.341255165
9.268980947
14.35895242
20.60779361
27.85260995
35.73621098
43.81857269
51.57324263
58.60406651
64.55078347
69.07915682
72.00028951
73.21251978
72.71086163
70.5927294
67.07532224
62.34138431
56.72680273
50.50685649
43.93580507
37.27805488
30.75429592
24.53438269
18.75008597
13.50976167
8.896875793
4.972503489
1.765609226
-0.7228518414
-2.508177123
-3.636646165
-4.180469232
-4.245950967
-3.954434271
-3.432122561
-2.801075188
-2.191300157
-1.705394117
-1.428949298
-1.436076909
-1.773465431
-2.463092438
-3.522231801
-4.956541001
-6.756427349
-8.882464151
-11.29763057
-13.96765208
-16.85656156
-19.92504959
-23.13427058
-26.44883382
-29.84006282
-33.28973611
-36.7422403
-40.19641577
-43.62748971
-47.01054317
-50.30564227
-53.50142412
-56.57916908
-59.5324091
-62.35088087
-65.02004886
-67.558691
-69.94819508
-72.17198395
-74.20948653
-76.03897804
-77.6249473
-78.99467952
-80.15643833
-81.09321226
-81.78315328
-82.22883357
-82.40286712
-82.33350044
-81.9698227
-81.34403848
-80.45162401
-79.33826057
-78.04301314
-76.38148451
-74.40419206
-72.31069467
-70.04402314
-67.55251611
-64.75817183
-61.93824537
-58.99331366
-56.02565041
-52.96036174
-49.44015884
-44.72329968
-65.65585384
-79.47908383
-96.86468058
-97.62421648
)


101
(
0.008973431568
0.6108490677
2.399556847
5.217339945
9.039284859
13.96151229
19.96849289
26.89313211
34.39757131
42.06503977
49.39372385
56.01509697
61.60626149
65.85498995
68.58932055
69.71722872
69.22964634
67.21307028
63.86833266
59.35443395
53.99529366
48.04335836
41.74108281
35.3446919
29.06599082
23.08165671
17.5329902
12.53909362
8.192867339
4.562575043
1.676601637
-0.4738914454
-1.922736388
-2.742758236
-3.045682723
-2.966584684
-2.65231617
-2.246337959
-1.879117386
-1.669461996
-1.707562121
-2.052841323
-2.762413951
-3.863119077
-5.358927206
-7.248468796
-9.515298764
-12.14281499
-15.08673604
-18.30800353
-21.75890455
-25.40360579
-29.21137814
-33.13485862
-37.138586
-41.19948973
-45.30416268
-49.39526717
-53.46348009
-57.49953418
-61.48905853
-65.38138032
-69.15478524
-72.81188991
-76.34547246
-79.71985317
-82.94230625
-85.99953132
-88.91480478
-91.65806964
-94.20524067
-96.54686812
-98.626557
-100.456581
-102.0403055
-103.3711457
-104.4672208
-105.280545
-105.7905775
-106.0244767
-105.9068055
-105.4963121
-104.787654
-103.7855509
-102.5481624
-100.9744116
-99.01855851
-96.8161228
-94.46677672
-91.89402933
-88.88287651
-85.89947694
-82.58731212
-79.34217067
-75.92410433
-71.89101482
-66.16319944
-86.74511524
-95.99047782
-105.0479976
-95.95029062
)


101
(
0.00894396478
0.5967788487
2.342387022
5.093460804
8.808883389
13.56299125
19.32871992
25.93560307
33.06482604
40.32359001
47.23588574
53.45645732
58.69902103
62.67368835
65.22314129
66.26530513
65.78811391
63.86763696
60.69052709
56.39381539
51.29023917
45.60979336
39.58319795
33.46270999
27.45112129
21.73146633
16.45491684
11.74639717
7.698240755
4.374174492
1.793112357
-0.07336353009
-1.288891575
-1.949193943
-2.197017246
-2.181194443
-2.056116348
-1.965184245
-2.033562852
-2.366877295
-3.03019491
-4.064016756
-5.500762063
-7.345199922
-9.587020625
-12.21719993
-15.20708756
-18.53212926
-22.15005278
-26.025224
-30.10508321
-34.35503117
-38.75185968
-43.24862952
-47.81133428
-52.41723333
-57.05766889
-61.68237975
-66.26715008
-70.81232894
-75.3047174
-79.71200164
-83.99085718
-88.1604117
-92.20066853
-96.0656057
-99.76532694
-103.2850155
-106.6517371
-109.8246984
-112.7875752
-115.5397766
-118.0105187
-120.2147644
-122.1283646
-123.7273207
-125.0713391
-126.1079278
-126.8450707
-127.2379114
-127.245731
-126.9286263
-126.2585903
-125.2746082
-124.0200055
-122.4076868
-120.4215787
-118.1082428
-115.6211319
-112.9712028
-109.8041738
-106.7312226
-103.2298024
-99.81335693
-96.26000652
-91.81537157
-85.14139556
-100.426611
-100.3459459
-96.70809
-71.75268353
)


101
(
0.008914548661
0.5828503625
2.285678497
4.969779607
8.578247816
13.16441603
18.69033872
24.98295469
31.74181371
38.59885106
45.10531486
50.93544003
55.83704357
59.54341737
61.91007069
62.86491935
62.39477468
60.56576753
57.55199948
53.472761
48.62484353
43.21974973
37.47569759
31.64678195
25.92558897
20.49705104
15.51918239
11.11523692
7.366755047
4.322906367
1.985888091
0.3052054926
-0.8105264224
-1.474820074
-1.843177808
-2.062664313
-2.280668373
-2.629148373
-3.219602717
-4.141337139
-5.442208581
-7.137287862
-9.238401813
-11.73638826
-14.60990039
-17.84447912
-21.40886671
-25.27868121
-29.41015437
-33.77614238
-38.33079319
-43.03839832
-47.87532957
-52.80733857
-57.7943893
-62.81046197
-67.86241094
-72.90274922
-77.88972439
-82.82519071
-87.70592489
-92.50531956
-97.17948632
-101.7398324
-106.1396152
-110.3768466
-114.4124829
-118.2335137
-121.867713
-125.2760039
-128.4565744
-131.3843011
-134.0081629
-136.3293545
-138.3130691
-139.9168679
-141.1738209
-142.1249641
-142.7279749
-142.9549044
-142.7789478
-142.2154578
-141.2335953
-139.9447618
-138.3488254
-136.4147646
-134.124069
-131.4995659
-128.6572271
-125.7284141
-122.3475861
-119.0451322
-115.4088165
-111.8023988
-108.1586664
-103.3932011
-96.02548423
-100.9945242
-88.20364367
-70.53454918
-34.88123516
)


101
(
0.008885182969
0.5690653544
2.229447681
4.846448281
8.347816173
12.76672163
18.05502094
24.03779863
30.43207292
36.89493192
43.00648012
48.45787563
53.02677024
56.4707024
58.6567799
59.52259448
59.05621663
57.31436385
54.45962328
50.60043444
46.00856052
40.88334134
35.43000726
29.90767912
24.49807822
19.37959252
14.71055846
10.60613394
7.130115885
4.311070563
2.130674846
0.5200210271
-0.6278653424
-1.437557363
-2.059724604
-2.628366141
-3.274810602
-4.11361777
-5.240190737
-6.726031278
-8.603106385
-10.87016481
-13.5263337
-16.55009475
-19.91398002
-23.60214101
-27.58615995
-31.84466888
-36.33467343
-41.0365292
-45.91413213
-50.93524132
-56.07210781
-61.2998209
-66.57867468
-71.87037922
-77.19435163
-82.50426211
-87.75734909
-92.94067863
-98.05380284
-103.0736904
-107.9704868
-112.7280967
-117.28962
-121.6704206
-125.7941453
-129.6598083
-133.2742133
-136.6250661
-139.6823633
-142.4129327
-144.7918804
-146.8020925
-148.4040567
-149.5669977
-150.3088363
-150.636033
-150.5753295
-150.1147617
-149.2351177
-147.8881293
-146.1145532
-144.0068621
-141.5887641
-138.8539958
-135.8145143
-132.5135652
-128.9932592
-125.4684104
-121.6935502
-117.9299727
-114.0339504
-110.1979727
-106.3606303
-101.2938265
-93.44112074
-85.09776603
-59.29105656
-29.75230736
12.04476308
)


101
(
0.008855867597
0.5554255483
2.173728026
4.723609671
8.117994771
12.37076123
17.42426735
23.10244511
29.13895967
35.21588725
40.94294889
46.02816785
50.27306134
53.46078605
55.46941349
56.2453832
55.77993131
54.12112871
51.42023313
47.77957964
43.44452245
38.60453222
33.45331505
28.24990351
23.16686146
18.36673417
13.99955075
10.16791515
6.915465623
4.248718144
2.131357154
0.4845361195
-0.8015192208
-1.855329135
-2.810674067
-3.78368892
-4.88374653
-6.203244976
-7.82069412
-9.794143428
-12.14551376
-14.86493454
-17.94329264
-21.35231504
-25.06187277
-29.05613049
-33.3104124
-37.80898285
-42.51721545
-47.41388107
-52.47106314
-57.66217109
-62.95798744
-68.33808066
-73.7656595
-79.19902137
-84.64350606
-90.05501278
-95.40387559
-100.6613314
-105.7954865
-110.8200292
-115.6906445
-120.3742749
-124.8125611
-129.0097263
-132.8870049
-136.4289964
-139.6298986
-142.4854561
-144.9367124
-146.9851229
-148.5959466
-149.7356799
-150.3780481
-150.505767
-150.1035493
-149.1864474
-147.8305966
-146.0344031
-143.7920162
-141.0622621
-137.9103843
-134.4376138
-130.6392748
-126.6362513
-122.4103172
-118.0389483
-113.5371694
-109.139885
-104.7409841
-100.3939124
-96.09673575
-91.98891561
-87.9659382
-82.7487704
-74.92432741
-53.35932694
-17.63422405
18.97993532
60.19217794
)


101
(
0.008826602451
0.5419325367
2.118543284
4.601397861
7.889159004
11.9773107
16.79941819
22.17892354
27.86538649
33.56526975
38.91763649
43.6497732
47.57968264
50.5175507
52.35246552
53.03851857
52.57160636
50.99232753
48.440443
45.01339216
40.93496485
36.38416711
31.54719617
26.67059405
21.91993568
17.4346119
13.347804
9.747971923
6.660239721
4.072440212
1.937523919
0.1752631352
-1.318098166
-2.665806175
-3.978674237
-5.356709712
-6.886240386
-8.635207944
-10.66480691
-13.02334394
-15.72807784
-18.76809657
-22.13166574
-25.78845448
-29.70702719
-33.8706207
-38.25922662
-42.86339828
-47.65839932
-52.61806107
-57.71796616
-62.94009772
-68.25293184
-73.63137153
-79.04551601
-84.45828568
-89.85190897
-95.18122113
-100.4135087
-105.5126439
-110.4263504
-115.1767468
-119.7064515
-123.9734783
-127.9264057
-131.5333095
-134.7335183
-137.4897661
-139.7770211
-141.5904246
-142.8809756
-143.6544922
-143.8649377
-143.4903879
-142.5261436
-140.9569087
-138.7707997
-135.9782746
-132.6754098
-128.9074519
-124.707828
-120.0636747
-115.0310804
-109.7311439
-104.2155326
-98.57866069
-92.91843496
-87.29099657
-81.71551814
-76.40334403
-71.36143553
-66.48213127
-61.93344055
-57.71729983
-53.74013466
-48.73188428
-41.82213456
-10.34043276
29.82220314
68.19779667
103.9951166
)


101
(
0.008797387289
0.5285877672
2.063916439
4.47993768
7.661654474
11.58707322
16.18166153
21.26907147
26.61398679
31.94625201
36.93381889
41.32494917
44.94995909
47.64460243
49.30996238
49.90646257
49.43581583
47.93327064
45.52676816
42.3081399
38.48480709
34.22519138
29.70854963
25.1604888
20.73776607
16.55337986
12.71712618
9.304063281
6.325598777
3.756782666
1.54796984
-0.3746801133
-2.103227707
-3.750025115
-5.40170444
-7.144268777
-9.044194256
-11.14543862
-13.49081086
-16.12198623
-19.05644616
-22.28783318
-25.80594489
-29.5825237
-33.58526196
-37.79579568
-42.19789692
-46.78576399
-51.53853979
-56.43223763
-61.4446428
-66.55764343
-71.74671174
-76.96393641
-82.18697503
-87.38202798
-92.5186321
-97.54049614
-102.4072562
-107.0727415
-111.4792569
-115.6187547
-119.4396718
-122.8862532
-125.926599
-128.4774865
-130.4991542
-131.9387745
-132.7570092
-132.9612828
-132.5017296
-131.3712343
-129.5477111
-127.0334882
-123.8382971
-119.9678716
-115.4341508
-110.2408106
-104.505157
-98.32831692
-91.81101655
-84.94333509
-77.80626502
-70.54802238
-63.26597558
-56.03089788
-49.03527908
-42.33193931
-35.95510449
-30.04825917
-24.70481983
-19.74398928
-15.35046601
-11.50239905
-8.048768937
-3.943516256
0.8802936253
37.03196239
76.1486267
112.6635065
141.9504727
)


101
(
0.008768222018
0.5153937104
2.00984814
4.359345687
7.435800494
11.20068741
15.57205194
20.37447696
25.38702384
30.36155756
34.99443521
39.05529268
42.38642734
44.84516713
46.34533882
46.85281856
46.37607759
44.94806217
42.68453792
39.67016326
36.09855607
32.12899698
27.93116087
23.70572799
19.59721086
15.6927817
12.07569069
8.808585659
5.895887839
3.307741325
0.9978012938
-1.097066581
-3.052379249
-4.966937254
-6.905429169
-8.941286008
-11.12850102
-13.49065517
-16.04994172
-18.84392428
-21.89193093
-25.19458435
-28.74702769
-32.52506151
-36.4982679
-40.64643456
-44.95210115
-49.40563753
-53.99272585
-58.69371029
-63.4851428
-68.347235
-73.25731532
-78.14684613
-82.99194483
-87.75683829
-92.40063083
-96.85466704
-101.0710644
-104.9977125
-108.5603464
-111.7198946
-114.4324801
-116.6207818
-118.2701562
-119.2730462
-119.5934879
-119.1770845
-117.9799541
-116.0167499
-113.2431249
-109.6669217
-105.2899698
-100.1364035
-94.24386829
-87.65630492
-80.41593897
-72.55624741
-64.23508398
-55.55566553
-46.69961247
-37.6930752
-28.64537859
-19.73048612
-11.0874733
-2.742195729
5.060190034
12.23936569
18.74774212
24.53404717
29.48939309
33.79103452
37.33348434
40.11787965
42.3587653
44.71198039
46.2611661
82.21821086
116.973747
150.9888871
176.3916126
)


101
(
0.008739106467
0.5023491818
1.956373222
4.239729621
7.211889417
10.81872775
14.9715602
19.49653848
24.1863639
28.81346667
33.10207595
36.84268654
39.89100064
42.12156914
43.46117247
43.88052321
43.39510499
42.03908647
39.91669755
37.103404
33.77897235
30.09531448
26.2087801
22.29202996
18.47547438
14.82550994
11.40000944
8.250078467
5.378846046
2.757632791
0.3465481397
-1.905548804
-4.054789926
-6.178994149
-8.326855607
-10.56363708
-12.93917521
-15.46385829
-18.13660874
-20.99039984
-24.04715743
-27.31311762
-30.79009187
-34.46074323
-38.29931372
-42.28104646
-46.38394883
-50.5937692
-54.89918215
-59.28083152
-63.71422731
-68.17532994
-72.63480708
-77.01696576
-81.28623985
-85.39951238
-89.29640994
-92.90681937
-96.16486705
-99.02084806
-101.3768713
-103.1765389
-104.366312
-104.8623948
-104.6419645
-103.6210513
-101.7493577
-98.99014047
-95.30875424
-90.71838156
-85.20393585
-78.79653109
-71.53899618
-63.4876917
-54.71079615
-45.29631809
-35.34012409
-24.92395272
-14.22776833
-3.389345457
7.388388922
17.99993717
28.32948644
38.17855926
47.37288855
55.94747413
63.65369942
70.40371191
76.12868899
80.85186586
84.58681726
87.42475514
89.41200962
90.45555029
90.91380494
90.82960259
88.38718192
121.4378744
151.9374348
186.0576141
211.8012297
)

