/*--------------------------------*- C++ -*----------------------------------*\
| =========                 |                                                 |
| \\      /  F ield         | OpenFOAM: The Open Source CFD Toolbox           |
|  \\    /   O peration     | Version:  2.3.1                                 |
|   \\  /    A nd           | Web:      www.OpenFOAM.org                      |
|    \\/     M anipulation  |                                                 |
\*---------------------------------------------------------------------------*/
FoamFile
{
    version     2.0;
    format      ascii;
    class       dictionary;
    location    "constant";
    object      la_r11;
}
// * * * * * * * * * * * * * * * * * * * * * * * * * * * * * * * * * * * * * //

la_r11_table
101
(

101
(
-0.01625156553
-0.4503568827
-0.8781536654
-0.4682943013
0.9074059825
2.985050893
5.360754526
7.708729971
9.534697966
10.69455463
10.8833697
10.0189066
8.033950812
5.021653085
0.9727778947
-3.98655021
-9.660821239
-15.74231919
-22.3113802
-28.66368713
-35.04714339
-41.40174838
-47.27177029
-52.86674622
-58.26990576
-63.45096607
-68.36964026
-72.99780252
-77.21523677
-80.98537682
-84.23543291
-86.95699139
-89.23878041
-90.69001845
-91.68030146
-92.19883881
-128.1255394
-188.5531223
-183.6748406
-177.7166054
-170.9997678
-163.8539597
-156.2987911
-148.5264589
-140.7236857
-132.9581791
-125.3377041
-117.9560711
-110.8541435
-104.1105197
-97.74726325
-91.78673238
-86.22969332
-81.07669099
-76.31568937
-71.90731505
-67.85686925
-64.09198619
-60.60609934
-57.34700548
-54.3001073
-51.41301689
-48.66442891
-46.03582209
-43.51904693
-41.07422996
-38.6982835
-36.38324939
-34.12073742
-31.90934804
-29.74970387
-27.64439373
-25.59951669
-23.63628165
-24.84465775
-24.64827226
-21.88254333
-19.32619427
-16.96848864
-14.80130639
-12.82279606
-11.0334376
-9.432536239
-9.435467142
-8.703885138
-6.816028425
-5.265127715
-3.99869602
-2.983588352
-2.851055306
-1.926700106
-1.174288326
-0.6875656632
-0.4233305473
-0.2037985031
-0.04291932067
-4.87971559e-13
2.233489817e-28
1.139081815e-22
-7.530682026e-23
2.288444547e-21
)


101
(
-0.01620889095
-0.4444192285
-0.8803099802
-0.5386584948
0.6987909964
2.573568186
4.698926865
6.771268828
8.357293022
9.3280317
9.45523792
8.688755295
7.023304603
4.597141848
1.473223237
-2.203797589
-6.225526427
-10.3014654
-14.45574511
-18.19756595
-21.63298566
-24.80760165
-27.47783308
-29.78049971
-31.86957107
-33.82026771
-35.67152129
-37.45295224
-39.14031104
-40.72574346
-42.18120482
-43.49727766
-44.70171644
-45.65162009
-46.45814418
-47.1200193
-47.86018424
-48.74674404
-49.15665736
-49.16039284
-48.93161487
-48.56972505
-48.08134092
-47.49808842
-46.84857716
-46.13133788
-45.36886638
-44.56043287
-43.72271468
-42.8552844
-41.97026463
-41.06710932
-40.14767346
-39.21093372
-38.26242093
-37.30338878
-36.32335256
-35.33382501
-34.32115123
-33.28993845
-32.23431525
-31.15605904
-30.05409125
-28.92693595
-27.77743457
-26.60815356
-25.42003498
-24.21532136
-22.99581848
-21.7682964
-20.53633857
-19.30538828
-18.08083229
-16.87427691
-15.73284689
-14.61769074
-13.46571211
-12.29285155
-11.13158204
-10.00636536
-8.932620466
-7.915473293
-6.962439314
-6.09937536
-5.289779939
-4.500548806
-3.752402196
-3.072742444
-2.469262645
-1.953352298
-1.507631403
-1.105974175
-0.7705735236
-0.508666043
-0.3029069415
-0.1504704065
-0.04684582224
-0.04838911247
-0.05005592619
-0.05243415333
-0.05413921738
)


101
(
-0.01616628678
-0.4384361971
-0.8817663997
-0.6077650375
0.4850694486
2.134859082
3.963204114
5.677426529
6.892211373
7.485243169
7.284407821
6.256353499
4.431886686
1.968094762
-1.034632979
-4.434364849
-8.035664509
-11.57767363
-15.06413479
-18.13614585
-20.83627982
-23.24171937
-25.21076056
-26.83454357
-28.25634317
-29.57048509
-30.82944139
-32.06394775
-33.26172056
-34.41277552
-35.48986011
-36.47733325
-37.39294
-38.12806226
-38.75823247
-39.27649921
-39.77557372
-40.36094672
-40.74825675
-40.82110785
-40.65533621
-40.34654876
-39.9252023
-39.42613373
-38.87248139
-38.26475723
-37.62121649
-36.93892683
-36.23261381
-35.50094732
-34.75402833
-33.99134163
-33.21607979
-32.4288152
-31.63076617
-30.82351369
-30.0003974
-29.17234179
-28.32998334
-27.47660954
-26.60904208
-25.72776776
-24.83189321
-23.92195359
-22.99917132
-22.06446867
-21.11832086
-20.16267912
-19.19902243
-18.22998415
-17.25883697
-16.28773358
-15.3213019
-14.3631844
-13.43202859
-12.53274154
-11.64308866
-10.74555802
-9.839664316
-8.941013547
-8.070167998
-7.237312036
-6.446465904
-5.707015718
-5.022595114
-4.37751221
-3.754260446
-3.163736956
-2.626155019
-2.147989142
-1.727307942
-1.358804597
-1.027301278
-0.749443753
-0.5258961715
-0.3338276767
-0.17524656
-0.1870668924
-0.1988132138
-0.2147682428
-0.2262641339
)


101
(
-0.016123753
-0.4324060964
-0.8820183419
-0.6699483447
0.2921490784
1.743734612
3.319321254
4.741459299
5.672321458
6.000084037
5.601786302
4.458874421
2.627634311
0.2762389529
-2.473307973
-5.486409044
-8.587601507
-11.54998157
-14.37278315
-16.79081847
-18.82503206
-20.56225563
-21.9313443
-23.00935168
-23.92348594
-24.77189758
-25.61755322
-26.4940384
-27.39341978
-28.30491743
-29.19939836
-30.05248346
-30.87274887
-31.56556644
-32.19087791
-32.73774631
-33.2274963
-33.75630796
-34.19564763
-34.42539367
-34.43820528
-34.29726096
-34.03643731
-33.69417255
-33.29566816
-32.84466355
-32.35510387
-31.82565947
-31.26546602
-30.6758858
-30.06315047
-29.42902784
-28.77694123
-28.10814394
-27.42495673
-26.73173672
-26.0171656
-25.29609369
-24.56240648
-23.8185325
-23.06481362
-22.30215293
-21.52995254
-20.74956121
-19.96216616
-19.16803784
-18.36890242
-17.56415605
-16.75909512
-15.95328572
-15.14836693
-14.3452962
-13.54847756
-12.75858434
-11.98208589
-11.22723257
-10.4920314
-9.765976409
-9.038022352
-8.30593526
-7.5821547
-6.880283844
-6.207981733
-5.568333093
-4.966278162
-4.402525224
-3.866768948
-3.346745576
-2.855910955
-2.408104475
-2.004536777
-1.645771332
-1.323755289
-1.035460625
-0.7940857085
-0.5720973011
-0.3661794727
-0.3983636986
-0.4306026384
-0.4743588943
-0.5075249322
)


101
(
-0.0160812896
-0.4263328109
-0.8810835837
-0.7253236767
0.1193712532
1.397677755
2.760435068
3.948337894
4.669580981
4.824895847
4.334034169
3.190189195
1.466754324
-0.6642767617
-3.070690757
-5.628127219
-8.185555087
-10.5510767
-12.72837818
-14.52234716
-15.95371204
-17.10842942
-17.96180104
-18.59337157
-19.1141334
-19.61880171
-20.17578862
-20.82070296
-21.54774512
-22.34545866
-23.18370706
-24.02814715
-24.87779354
-25.64098347
-26.36645413
-27.04073935
-27.66315301
-28.28950699
-28.86810075
-29.30472282
-29.56315119
-29.66853291
-29.64333627
-29.52398214
-29.33825515
-29.09399062
-28.80203137
-28.46182399
-28.08015558
-27.66238352
-27.21035575
-26.72566143
-26.21152945
-25.67217826
-25.10789142
-24.52064881
-23.91078958
-23.28408684
-22.63994324
-21.97252852
-21.29275634
-20.60349485
-19.90033899
-19.19075006
-18.47528453
-17.74651222
-17.01492823
-16.27968099
-15.54579939
-14.81730754
-14.08450758
-13.35836046
-12.64081319
-11.93510842
-11.23970919
-10.56065222
-9.898112345
-9.25622605
-8.624863622
-7.995597548
-7.368553435
-6.750714191
-6.155519808
-5.586186875
-5.044137905
-4.531142809
-4.047159601
-3.5818581
-3.130674996
-2.707539016
-2.31890777
-1.965849765
-1.646846826
-1.354019475
-1.098697852
-0.8550244572
-0.6134651916
-0.676530407
-0.7391865508
-0.8263565832
-0.8743991221
)


101
(
-0.01603889654
-0.4202210308
-0.8790304144
-0.7743153214
-0.03475019355
1.092738457
2.277863631
3.281369942
3.855342538
3.91390812
3.413762729
2.35658919
0.8257789096
-1.008386946
-3.012284142
-5.073580184
-7.066995731
-8.835866805
-10.3934206
-11.5979617
-12.48104252
-13.12363499
-13.52941832
-13.78751373
-13.99600597
-14.24138775
-14.59392798
-15.09055757
-15.72659457
-16.48987984
-17.34816991
-18.26533913
-19.22648045
-20.13722095
-21.03841291
-21.910393
-22.74965877
-23.58042326
-24.37790662
-25.08003226
-25.64353918
-26.06864179
-26.36099624
-26.55153274
-26.66664198
-26.7164153
-26.71287858
-26.65934857
-26.56103754
-26.4225941
-26.24036533
-26.01201065
-25.73976553
-25.43381542
-25.09493663
-24.70888831
-24.28188416
-23.82522146
-23.34973958
-22.81073382
-22.21991523
-21.6269912
-20.97843329
-20.31404729
-19.63956815
-18.92397579
-18.18758948
-17.43143179
-16.64683805
-15.89599093
-15.10715661
-14.31758712
-13.52697439
-12.75654641
-11.99457564
-11.24780171
-10.5201271
-9.816600602
-9.126380822
-8.460316845
-7.809292591
-7.177380247
-6.560782431
-5.978156873
-5.425319688
-4.904321521
-4.412042401
-3.95074085
-3.507706979
-3.086838369
-2.695998788
-2.337220748
-2.011502095
-1.710969125
-1.442082319
-1.179152533
-0.9086744627
-1.023241517
-1.126945539
-1.324507757
-1.419711098
)


101
(
-0.01599657382
-0.4140754498
-0.8759296252
-0.8173444382
-0.1716381955
0.8252346979
1.86367859
2.725579269
3.204336496
3.2273784
2.783304908
1.879118163
0.6021700852
-0.8829229802
-2.447836091
-3.993306711
-5.418781017
-6.602368919
-7.569504755
-8.219800074
-8.600795406
-8.787864866
-8.79946892
-8.736439131
-8.688732111
-8.731592754
-8.934131944
-9.334990758
-9.930593457
-10.70826217
-11.63431365
-12.67189917
-13.797604
-14.91204095
-16.0464549
-17.17871114
-18.30323902
-19.42945913
-20.54165136
-21.60103743
-22.57246673
-23.44229483
-24.20169229
-24.87791667
-25.4906226
-26.04605183
-26.55700343
-27.04170766
-27.50319577
-27.92735826
-28.31908033
-28.63431877
-28.87800461
-29.06527531
-29.22564294
-29.27885078
-29.22158388
-29.11392802
-28.93737694
-28.63745724
-28.23666917
-27.79454789
-27.22788518
-26.55921291
-25.85203386
-25.06499629
-24.20252071
-23.28546334
-22.28943686
-21.28864937
-20.2504925
-19.1919487
-18.10891204
-17.03440483
-15.96105048
-14.89694259
-13.86838805
-12.85756104
-11.8651756
-10.91461273
-9.999620247
-9.140646008
-8.304806324
-7.518531155
-6.787303161
-6.102656635
-5.462403364
-4.870235867
-4.326546128
-3.823314578
-3.354015264
-2.925542793
-2.544939496
-2.198455962
-1.890556102
-1.583453996
-1.268404211
-1.522207466
-1.702390134
-2.004135759
-2.07934814
)


101
(
-0.01595432139
-0.4079005901
-0.8718494273
-0.8548111276
-0.2926163299
0.5918180671
1.510817223
2.267828612
2.694472877
2.730991728
2.393648236
1.691552586
0.7113331011
-0.391271101
-1.49757034
-2.522441406
-3.387966237
-4.004999055
-4.412463947
-4.542380365
-4.460113716
-4.236945092
-3.89706933
-3.551011203
-3.285790177
-3.164068041
-3.250549714
-3.58611929
-4.169836915
-4.989751046
-6.012045627
-7.200267704
-8.529036307
-9.896043772
-11.32430657
-12.79381642
-14.30078261
-15.85043984
-17.4372734
-19.04065029
-20.6361407
-22.20420254
-23.7345581
-25.24231745
-26.73208576
-28.1957332
-29.62292611
-31.03549317
-32.44832454
-33.81195671
-35.13718754
-36.29721493
-37.33218226
-38.24682887
-39.06085682
-39.679395
-40.1011544
-40.34931074
-40.43600969
-40.28808494
-39.93943057
-39.48991875
-38.85138612
-38.0496438
-37.1173376
-36.05697784
-34.84865323
-33.58396677
-32.19885824
-30.76895872
-29.29606568
-27.75970149
-26.18771129
-24.61022024
-23.0486916
-21.48610758
-19.9716439
-18.48830895
-17.04757878
-15.65304484
-14.29631798
-13.0098234
-11.79702956
-10.63684411
-9.568405461
-8.571365188
-7.635756473
-6.769933721
-5.988015115
-5.277151291
-4.627569028
-4.022138572
-3.499403118
-3.032988586
-2.620071737
-2.212032309
-1.789631283
-2.238261494
-2.459621881
-2.725793516
-2.628699439
)


101
(
-0.01591213927
-0.4017008155
-0.8668550315
-0.8870946129
-0.3989210528
0.3894234795
1.212968212
1.896615249
2.306462502
2.395169454
2.203097207
1.738596074
1.083617342
0.3827241644
-0.2579720913
-0.7680753645
-1.089983613
-1.164319946
-1.043507295
-0.6852456014
-0.1723825807
0.4250114687
1.081525339
1.682756322
2.139628574
2.401061907
2.409906716
2.122934284
1.535576247
0.6561077444
-0.4843586297
-1.852690303
-3.428260573
-5.114539834
-6.935433024
-8.874631539
-10.93275821
-13.12228362
-15.45898665
-17.92344029
-20.50260055
-23.17364156
-25.8813158
-28.61381185
-31.35379294
-34.07293517
-36.72448924
-39.30029837
-41.84504658
-44.23480623
-46.42942022
-48.34966551
-50.04489227
-51.42628919
-52.62710359
-53.56584217
-54.13021818
-54.39914994
-54.41519449
-54.11903987
-53.54394036
-52.79340756
-51.77027294
-50.5787673
-49.22466815
-47.74039002
-46.10276614
-44.35359101
-42.48306395
-40.50962128
-38.5209225
-36.47733585
-34.45630771
-32.4284907
-30.39643363
-28.38323596
-26.41907162
-24.49825649
-22.63889587
-20.83737007
-19.10555217
-17.43218548
-15.86403729
-14.35239213
-12.95508063
-11.63120089
-10.40844812
-9.255934999
-8.21062543
-7.257225489
-6.385506927
-5.568869146
-4.865120611
-4.240409878
-3.679701203
-3.133525568
-2.526101783
-3.040502302
-3.141976833
-3.070783818
-2.511810477
)


101
(
-0.01587002739
-0.3954802914
-0.8610086153
-0.9145513384
-0.4917058157
0.2152170299
0.9643713527
1.601637749
2.023323381
2.194195699
2.175843193
1.973407628
1.660823183
1.369923645
1.192384269
1.183641163
1.38329829
1.824451869
2.441985638
3.257921215
4.17344708
5.116683828
6.061030667
6.896732674
7.529241318
7.915594656
8.0064999
7.75651542
7.152818018
6.195299549
4.906406295
3.309251165
1.410691653
-0.7069686501
-3.079188887
-5.69664566
-8.563640678
-11.69837245
-15.13672467
-18.817102
-22.7058555
-26.74176189
-30.83676933
-34.92125476
-38.94701658
-42.86055134
-46.58680832
-50.10498697
-53.40964713
-56.36645469
-58.96587116
-61.17370048
-62.99308739
-64.37652581
-65.43922953
-66.10487623
-66.3892111
-66.24303153
-65.82404933
-65.09073171
-64.03580619
-62.79747197
-61.28922346
-59.61235036
-57.78092586
-55.82072227
-53.74395312
-51.55435998
-49.27735358
-46.94051805
-44.59263657
-42.22414312
-39.85739761
-37.51822912
-35.20903306
-32.94120548
-30.71521675
-28.54832113
-26.46623708
-24.44501667
-22.49499797
-20.62939572
-18.85645274
-17.16521629
-15.56887576
-14.05960765
-12.66369636
-11.34003998
-10.1259005
-9.010939858
-7.984150444
-7.029560453
-6.185557127
-5.43544003
-4.755594251
-4.082242604
-3.343870401
-3.610464961
-3.310804859
-2.521458637
-1.130505931
)


101
(
-0.01582798579
-0.3892430106
-0.8543692316
-0.9375150241
-0.5720332742
0.06660694679
0.7597743548
1.37358049
1.830262422
2.106169028
2.2815171
2.356422342
2.394169841
2.512927794
2.788895771
3.262587089
3.957603403
4.884626177
5.967068888
7.211103394
8.504482363
9.771684554
10.98286963
12.03643201
12.83451132
13.33658535
13.49815468
13.27077981
12.63040877
11.56221579
10.07124712
8.162332587
5.821654368
3.110583191
-0.01785356598
-3.552874715
-7.489116737
-11.82650038
-16.5695603
-21.5875616
-26.81359511
-32.12946895
-37.41740693
-42.54875935
-47.45916591
-52.0821648
-56.3191675
-60.14050643
-63.52344536
-66.40386522
-68.79633725
-70.70870939
-72.13896491
-73.07086431
-73.53210869
-73.61108802
-73.3375058
-72.64408959
-71.65691464
-70.39005612
-68.83186169
-67.0894376
-65.159358
-63.07799148
-60.86605515
-58.55420991
-56.1938771
-53.75540643
-51.27366076
-48.75753055
-46.24301348
-43.73893457
-41.26276873
-38.82674058
-36.43846906
-34.10034332
-31.81955762
-29.6097533
-27.48525522
-25.43701344
-23.46404722
-21.57960945
-19.78320936
-18.07265738
-16.45010082
-14.91157467
-13.48116831
-12.13429505
-10.8868596
-9.745736169
-8.68393545
-7.700018834
-6.818480284
-6.032389386
-5.324159474
-4.600787945
-3.818167499
-3.477425609
-2.462962849
-0.6715551132
1.619064481
)


101
(
-0.0157860144
-0.3829927862
-0.8469932835
-0.9563022356
-0.6408994769
-0.05880313805
0.5943878987
1.204075005
1.714237271
2.112193562
2.494151133
2.85422525
3.242874675
3.764266326
4.478758936
5.412117356
6.573345925
7.954755403
9.470271388
11.11365979
12.76162334
14.33465793
15.79734162
17.05368309
18.00841836
18.61669276
18.83304288
18.60401046
17.89067029
16.65648742
14.88222191
12.55077206
9.629791095
6.161160504
2.106744146
-2.495766987
-7.601673979
-13.15941902
-19.10600842
-25.23671805
-31.4575319
-37.61253116
-43.56141123
-49.16565272
-54.3538448
-59.04565827
-63.13672109
-66.62135842
-69.52673727
-71.84231235
-73.59790495
-74.82703381
-75.56784836
-75.8168317
-75.59316879
-75.05184803
-74.15311333
-72.93191953
-71.42835499
-69.71989809
-67.79031532
-65.70514105
-63.48971857
-61.17040576
-58.77449901
-56.31504825
-53.82927582
-51.32230506
-48.80295452
-46.28265281
-43.78067308
-41.310529
-38.88462988
-36.50984687
-34.19291697
-31.93636126
-29.74703044
-27.63258113
-25.60049816
-23.65398097
-21.78996006
-20.01035799
-18.31984187
-16.71215012
-15.18689507
-13.74482337
-12.39963831
-11.14489076
-9.983218466
-8.919755083
-7.942188495
-7.034642692
-6.219179581
-5.495924336
-4.853541685
-4.194677065
-3.5014822
-2.213146988
-0.2444018687
2.615555386
5.850296345
)


101
(
-0.01574411322
-0.3767332645
-0.838934179
-0.9712119149
-0.6992373372
-0.1632342982
0.4638182159
1.085576989
1.663817232
2.195911056
2.791457163
3.438577601
4.1729252
5.084770892
6.218849091
7.586443744
9.183152347
10.98627486
12.90299355
14.9175156
16.8960163
18.75644554
20.45552261
21.8979343
22.99464859
23.69333691
23.94151192
23.67480895
22.83535824
21.36169274
19.21158312
16.35264999
12.74736539
8.438442163
3.424502968
-2.203362044
-8.33364871
-14.84064425
-21.58861212
-28.35431987
-35.01013985
-41.40458184
-47.38941905
-52.84648552
-57.71783258
-61.94177854
-65.44935144
-68.24520324
-70.3838769
-71.91436682
-72.88282005
-73.34057832
-73.34758677
-72.92930033
-72.11786716
-71.01563565
-69.62735964
-67.99811127
-66.15341019
-64.1554305
-62.01215228
-59.76240924
-57.43227817
-55.04203276
-52.61457084
-50.16751853
-47.71461881
-45.26696819
-42.8319453
-40.41899207
-38.03913897
-35.70510484
-33.42609962
-31.20654646
-29.05086386
-26.960736
-24.93985188
-22.99392603
-21.13096194
-19.35467658
-17.66544756
-16.05983884
-14.54235908
-13.10834191
-11.75259137
-10.48025348
-9.299167972
-8.205898373
-7.206378483
-6.298645555
-5.482033926
-4.729800907
-4.062941509
-3.482617895
-2.979550275
-2.475176114
-1.978896304
0.4216940382
3.385846762
7.047677678
10.77276174
)


101
(
-0.01570228221
-0.3704679223
-0.8302427324
-0.9825273579
-0.7479201924
-0.2487418452
0.3640115257
1.01122093
1.669104453
2.343464879
3.154260992
4.08555744
5.155843295
6.44165939
7.973280072
9.747936001
11.7494003
13.94220706
16.22851904
18.5856396
20.86752299
22.99264885
24.90902264
26.51850755
27.73716448
28.50169846
28.74774141
28.39518638
27.36660247
25.58142936
22.98788731
19.55420418
15.25570728
10.16621715
4.348543543
-2.04382857
-8.832408608
-15.83098671
-22.85557749
-29.70451274
-36.22971832
-42.30757043
-47.81366597
-52.67059255
-56.84107583
-60.2932793
-63.0082893
-64.99800945
-66.33567375
-67.09545121
-67.32439354
-67.09564617
-66.48831068
-65.53619412
-64.2779687
-62.78002645
-61.07614927
-59.2055949
-57.187699
-55.05960368
-52.84187414
-50.5635274
-48.2454995
-45.90408928
-43.55563758
-41.21402828
-38.8881845
-36.58226289
-34.30317301
-32.05842112
-29.85513032
-27.70330747
-25.61552629
-23.59287743
-21.63846678
-19.75228291
-17.93323696
-16.18505412
-14.52283947
-12.94608932
-11.46053472
-10.05822595
-8.7454253
-7.519399709
-6.369225578
-5.301150611
-4.327109028
-3.437545533
-2.641463355
-1.934751146
-1.325451937
-0.7765015806
-0.3096582352
0.0779139542
0.3924825823
0.6849142417
0.9163248072
4.321675473
8.018105816
11.89246276
15.42338231
)


101
(
-0.01566052135
-0.3642000718
-0.8209674025
-0.9905168255
-0.7877679859
-0.3172242098
0.2912799792
0.9748215863
1.721312598
2.542918905
3.566244846
4.775032381
6.168064162
7.808139185
9.712988433
11.86629563
14.24192401
16.79328785
19.41776389
22.08914355
24.64454865
27.00689388
29.11584766
30.86812478
32.18211879
32.97994658
33.18184307
32.69293607
31.42422436
29.2902575
26.24836495
22.29012837
17.42505698
11.77245568
5.464712639
-1.295637845
-8.286636315
-15.29184618
-22.1096814
-28.5575502
-34.51027903
-39.8945978
-44.61572746
-48.63206952
-51.93633493
-54.52714605
-56.42632294
-57.6504009
-58.27864879
-58.38480941
-58.03042124
-57.28839156
-56.234332
-54.91346581
-53.36818279
-51.64386624
-49.76986751
-47.7949297
-45.72795046
-43.59168028
-41.40012836
-39.18263119
-36.95801046
-34.73349716
-32.52047099
-30.33659146
-28.18075852
-26.06029633
-23.96887494
-21.91866242
-19.91520885
-17.96329974
-16.07923861
-14.26433962
-12.52366842
-10.85717533
-9.253368267
-7.719883384
-6.270048442
-4.906081307
-3.640787579
-2.461260655
-1.370349867
-0.3712693612
0.5446266481
1.383280157
2.129184994
2.783808631
3.348921692
3.827539178
4.199668739
4.517205967
4.751227307
4.915847287
5.015829845
5.064820823
4.988874568
8.974193923
12.8303343
16.15471455
18.67243135
)


101
(
-0.01561883062
-0.3579328787
-0.8111543899
-0.9954341601
-0.8195513684
-0.3704470639
0.2422672342
0.9708039665
1.812651457
2.783980969
4.013994007
5.489894898
7.190055868
9.162699546
11.41518353
13.91812281
16.63656576
19.51485395
22.44481206
25.39752057
28.19500275
30.76494971
33.03949685
34.90467972
36.28032265
37.07422943
37.19107101
36.5294563
35.00425965
32.54297328
29.12545254
24.78416189
19.58493071
13.6853776
7.27279092
0.5717120184
-6.184194202
-12.77899808
-19.01805848
-24.7386596
-29.86137124
-34.34710896
-38.14590372
-41.25853139
-43.70321214
-45.48619371
-46.65138286
-47.23055159
-47.29439339
-46.90601142
-46.13888347
-45.05487175
-43.71484373
-42.17252676
-40.47055983
-38.64287084
-36.70936001
-34.72094728
-32.68744766
-30.61825
-28.52062784
-26.4143822
-24.3237063
-22.24507629
-20.19234351
-18.18495189
-16.21779686
-14.2940749
-12.4022909
-10.55883951
-8.765134287
-7.021928976
-5.349589016
-3.745953453
-2.223531891
-0.7891813779
0.5777444728
1.874287681
3.095426125
4.223572948
5.248320857
6.18054244
7.017225844
7.762406509
8.417078425
8.988634945
9.471850878
9.861561142
10.15840889
10.37619729
10.4841853
10.53931379
10.51916947
10.43516328
10.30079838
10.08241018
9.673713367
13.57779987
16.83972335
18.89648071
19.6885165
)


101
(
-0.01557721009
-0.3516693663
-0.8008476671
-0.9975201293
-0.8439906671
-0.4100363213
0.2139250445
0.9941441115
1.936193461
3.057769029
4.486412274
6.215768155
8.205628422
10.48817649
13.06207711
15.88557941
18.91461799
22.0865201
25.28758757
28.48331463
31.49020943
34.23603841
36.64696158
38.59119158
39.99067123
40.74502705
40.74952612
39.90920816
38.15882866
35.45419846
31.80877354
27.29981423
22.04792265
16.24155306
10.09201649
3.817927075
-2.360864928
-8.249099489
-13.67499322
-18.50074159
-22.67448792
-26.20459679
-29.08057994
-31.3298895
-32.99281411
-34.0827372
-34.64931709
-34.72403774
-34.37092578
-33.64087575
-32.60408596
-31.31320994
-29.81757807
-28.16467792
-26.39939872
-24.55363083
-22.6306488
-20.68191015
-18.72555906
-16.76398693
-14.79215046
-12.82299889
-10.87850199
-8.954246871
-7.075717222
-5.240285368
-3.462963198
-1.742245814
-0.06141426971
1.564480778
3.140573158
4.658673639
6.105367051
7.479828218
8.766435051
9.950910589
11.04440426
12.06991156
13.01449818
13.86639015
14.61267558
15.25091358
15.78040383
16.21950342
16.56040505
16.81348563
16.97761101
17.05365907
17.03064733
16.93728265
16.74411714
16.49321008
16.18554651
15.82074515
15.42172264
14.90993827
14.14407123
17.22549967
19.174261
19.50397725
18.26019088
)


101
(
-0.0155356596
-0.345412442
-0.7900777841
-0.9970030608
-0.8617613158
-0.4374878494
0.2034898026
1.040324579
2.085577465
3.3563794
4.974325464
6.940885924
9.201533329
11.77072081
14.63942113
17.75458008
21.06176027
24.49318348
27.9305209
31.32701286
34.50891149
37.39631802
39.91035217
41.89859935
43.28588523
43.97539342
43.86428356
42.87581116
40.97578382
38.15783623
34.47546354
30.04337978
25.01571393
19.60247561
14.01037697
8.431487738
3.056162318
-1.950554073
-6.444610942
-10.31751872
-13.54301326
-16.16026184
-18.18024632
-19.65758704
-20.649655
-21.17251074
-21.27059307
-20.96696482
-20.32132167
-19.36877598
-18.16902755
-16.76675165
-15.20401791
-13.51662828
-11.74671711
-9.93092342
-8.058408902
-6.180426316
-4.31524314
-2.471770283
-0.6373828196
1.182990836
2.979285034
4.745503427
6.452776487
8.114005513
9.696301296
11.21068737
12.66883092
14.06888164
15.40521205
16.66878276
17.85679542
18.96348393
19.97178779
20.86761715
21.6530899
22.34176719
22.94284934
23.45134775
23.85257214
24.12602141
24.280319
24.33490297
24.2883518
24.14841502
23.91569877
23.60702149
23.19751677
22.72613735
22.17622581
21.56367114
20.91656551
20.22662262
19.51881645
18.67425858
17.51329729
19.17320278
19.33587083
17.84323788
14.66406648
)


101
(
-0.0154941792
-0.3391649084
-0.7788958942
-0.9940986789
-0.8734936953
-0.4541771786
0.2084598352
1.105309155
2.254839702
3.672240095
5.470147172
7.65599735
10.16744386
12.99917292
16.1347784
19.51151846
23.06388269
26.72035332
30.35996321
33.91996149
37.24049698
40.2322644
42.81017227
44.80949415
46.15681439
46.77164906
46.56687542
45.49290801
43.55084899
40.7747442
37.25435451
33.12618223
28.55392297
23.75876801
18.92472283
14.20887526
9.761384974
5.709234398
2.166588694
-0.7818766231
-3.124846493
-4.917094318
-6.183989824
-6.996691271
-7.424455373
-7.486487172
-7.221733462
-6.640059541
-5.787293061
-4.691109157
-3.398530688
-1.944737732
-0.3673245274
1.30867282
3.049215426
4.81952682
6.627365113
8.423103977
10.19847816
11.9344308
13.62666629
15.30135911
16.94446711
18.5465642
20.0815792
21.55752413
22.94083258
24.23728517
25.45666579
26.60317002
27.65926093
28.63240201
29.51582533
30.29984414
30.97312386
31.52201967
31.9309419
32.21394062
32.39381042
32.47211866
32.43765985
32.26633734
31.96063682
31.54273563
31.01708382
30.40530209
29.69201716
28.91446786
28.0433716
27.11942296
26.14503935
25.10996412
24.06344972
22.99321442
21.92577136
20.70059096
19.10134093
19.04617209
17.30588143
14.24122984
9.168601563
)


101
(
-0.01545276892
-0.3329293948
-0.7673397053
-0.9890111704
-0.8797757131
-0.4613684492
0.2265729615
1.185507844
2.438738459
3.998673985
5.967523134
8.353617309
11.09520079
14.16508511
17.53900427
21.14652043
24.91077916
28.75717777
32.56442627
36.25468606
39.67750552
42.73657551
45.33729277
47.31978035
48.61227237
49.16070079
48.90566621
47.82861158
45.96482113
43.38341978
40.19828212
36.55307902
32.60430839
28.56669158
24.59333446
20.8117851
17.32983388
14.23276731
11.60453251
9.510859909
7.954707317
6.879193124
6.255855101
6.007209395
6.055414573
6.374732647
6.930553338
7.725704341
8.731842783
9.927070871
11.27425682
12.75081588
14.3217661
15.96361628
17.65575638
19.37468588
21.11858817
22.84024149
24.53196631
26.16921403
27.73478767
29.26778893
30.75175619
32.18047541
33.53889926
34.81439165
35.98503256
37.04521646
37.99769117
38.84902546
39.58743867
40.2209278
40.73659818
41.13153294
41.40373786
41.5359414
41.50459345
41.31475828
40.99026792
40.54922873
39.99303529
39.29783431
38.45180893
37.47329239
36.3902484
35.22564385
33.9602812
32.63763185
31.23593351
29.79222322
28.33148035
26.81443642
25.31720618
23.81269384
22.33700678
20.68818687
18.61865477
16.91105821
13.4897841
9.347024576
3.12724767
)


101
(
-0.01541142863
-0.3267083831
-0.7554447089
-0.9819331215
-0.8811555015
-0.460222893
0.2557895166
1.277650255
2.632530066
4.329724931
6.459926774
9.028283051
11.97782113
15.26114365
18.84452806
22.65190187
26.59509122
30.59567278
34.53436507
38.32154999
41.81120649
44.90213861
47.49175892
49.43753973
50.67458827
51.18036003
50.93032462
49.93516509
48.25975107
45.99957769
43.27789724
40.23253972
37.00395106
33.78621098
30.69960376
27.85013358
25.30882963
23.11977848
21.33624989
20.00838956
19.13746223
18.67392696
18.59410516
18.82322542
19.27923817
19.92901091
20.73702211
21.71312011
22.84184681
24.11477358
25.50541048
26.9982259
28.56861708
30.17702657
31.81702882
33.47798168
35.15942473
36.81201122
38.42807234
39.97682862
41.43784906
42.83195761
44.15389611
45.39687543
46.5699012
47.6284726
48.56510165
49.36333557
50.01872517
50.546298
50.93197864
51.17247838
51.26253954
51.20850212
51.01284735
50.66274966
50.13231938
49.41162225
48.5200168
47.49202879
46.35374451
45.0690164
43.62448899
42.02828817
40.32260739
38.55122237
36.68817397
34.76776098
32.78519848
30.77237342
28.7814831
26.74226689
24.7546524
22.77520702
20.85389464
18.75626319
16.20957776
13.2101149
8.574477137
4.00131157
-2.546840947
)


101
(
-0.01537015842
-0.3205043379
-0.7432225947
-0.9730454159
-0.878143412
-0.451805982
0.2942759313
1.37885811
2.832077266
4.660235805
6.941560789
9.675818427
12.80991562
16.28123456
20.04543721
24.02217827
28.11209672
32.23090531
36.26352493
40.11281238
43.63567517
46.72655824
49.28058238
51.17968946
52.37270966
52.86886609
52.68024828
51.84308019
50.44362637
48.59090797
46.40615291
44.01429597
41.5346666
39.13625142
36.90636818
34.93247154
33.26149822
31.90336253
30.88016679
30.22929896
29.95166396
30.00860991
30.38732559
31.02261448
31.83513442
32.78542879
33.83080157
34.97652317
36.21879003
37.56594559
39.0030569
40.52178291
42.10538013
43.69896446
45.30116727
46.90973528
48.53058446
50.11456277
51.65928638
53.13308592
54.50332022
55.76826044
56.93355701
57.98277205
58.95013124
59.77713294
60.45925058
60.97475877
61.31203113
61.48816087
61.48648372
61.30435662
60.9384126
60.39567814
59.68544638
58.80682896
57.73080008
56.44587996
54.9704967
53.32197157
51.5668817
49.66191019
47.59633781
45.36475775
43.0129473
40.61232176
38.1356103
35.60003878
33.01368862
30.40663803
27.86198612
25.2779223
22.78259477
20.29850361
17.9146668
15.3632428
12.3634788
8.617669835
3.37457319
-0.8584687626
-7.037787627
)


101
(
-0.01532895814
-0.3143169374
-0.730727599
-0.9625183879
-0.8712143885
-0.4370935957
0.3403321273
1.486557278
3.033864225
4.98580969
7.407357751
10.29202642
13.58740904
17.22107488
21.13773135
25.25369636
29.45924976
33.66146401
37.7503391
41.62579569
45.14966889
48.21271752
50.71481201
52.56737005
53.73661614
54.25853663
54.17958077
53.55689427
52.48787324
51.08496705
49.46059269
47.72369806
45.97076702
44.34145128
42.89437171
41.70273617
40.80229138
40.18091462
39.82871427
39.77092916
40.00833941
40.51152941
41.27992883
42.26285369
43.39128452
44.62070596
45.89905073
47.22137793
48.58918242
50.02104541
51.51579084
53.07529843
54.68511935
56.28882765
57.87892851
59.45568739
61.02246883
62.54481832
64.01973394
65.42669861
66.71498324
67.86888525
68.88616782
69.74717809
70.48913488
71.07545497
71.48809495
71.71085735
71.72637448
71.53829984
71.13820757
70.52255161
69.69605902
68.66307399
67.43133524
66.01205686