/*--------------------------------*- C++ -*----------------------------------*\
| =========                 |                                                 |
| \\      /  F ield         | OpenFOAM: The Open Source CFD Toolbox           |
|  \\    /   O peration     | Version:  2.3.1                                 |
|   \\  /    A nd           | Web:      www.OpenFOAM.org                      |
|    \\/     M anipulation  |                                                 |
\*---------------------------------------------------------------------------*/
FoamFile
{
    version     2.0;
    format      ascii;
    class       dictionary;
    location    "constant";
    object      la_r25;
}
// * * * * * * * * * * * * * * * * * * * * * * * * * * * * * * * * * * * * * //

la_r25_table
101
(

101
(
8.136055837e-20
-4.018173581e-11
-3.802935818e-09
-6.753528524e-08
-4.835188959e-07
-1.494896273e-06
-2.969758897e-06
-5.759761941e-06
-9.524040318e-06
-1.405489762e-05
-1.889549095e-05
-2.352069932e-05
-2.761219889e-05
-3.03292821e-05
-3.163736064e-05
-3.152601114e-05
-2.990582804e-05
-2.722293755e-05
-2.359315111e-05
-2.014732297e-05
-1.643701594e-05
-1.255551154e-05
-9.768406103e-06
-7.537492568e-06
-5.676212395e-06
-4.198260944e-06
-3.053220019e-06
-2.166002198e-06
-1.552851147e-06
-1.10416209e-06
-7.857954552e-07
-5.443662349e-07
-3.314972926e-07
-2.677511227e-07
-1.957400049e-07
-1.420063299e-07
-1.101104666e-07
-1.322184918e-07
-8.659824819e-08
-6.244703314e-08
-4.793525681e-08
-3.238129385e-08
-2.332707443e-08
-1.690446302e-08
-1.10932932e-08
-7.597890707e-09
-4.828315063e-09
-3.235925964e-09
-2.064842764e-09
-1.406371928e-09
-9.048311005e-10
-5.853341789e-10
-3.791965309e-10
-2.397782973e-10
-1.404059911e-10
-7.004447364e-11
-5.234984775e-11
-2.516701452e-11
-1.603793726e-11
-8.148721601e-12
-5.164733531e-12
-2.845165625e-12
-1.418985958e-12
-7.407919234e-13
-3.620576192e-13
-1.898918386e-13
-8.480374135e-14
-3.021644308e-14
-1.676358855e-14
-6.429310434e-15
-2.797442097e-15
-1.36092629e-15
-1.330469687e-15
-6.937232426e-16
-1.210314022e-16
-6.338579391e-17
-1.637299139e-17
-6.69566572e-18
-2.739219009e-18
-6.891959714e-19
-2.925297198e-20
-2.638672576e-20
-3.814975519e-21
-1.657564434e-22
-2.514361031e-22
-1.778668336e-23
-2.01907776e-24
-1.204536941e-25
-6.74997664e-26
-7.607471489e-27
-8.120304437e-28
-6.421358205e-29
-4.951562208e-30
-1.516348456e-30
-1.925399202e-31
-2.406528393e-32
3.505390376e-37
-1.070186304e-53
4.5205355e-38
2.436386591e-46
5.012056514e-46
)


101
(
1.240771037e-20
2.456165245e-10
-6.209909978e-10
-4.177075739e-08
-3.215382674e-07
-9.780604628e-07
-1.880226973e-06
-3.50164068e-06
-5.573400027e-06
-7.922291329e-06
-1.026821805e-05
-1.233727211e-05
-1.399309181e-05
-1.489291177e-05
-1.507850816e-05
-1.460584476e-05
-1.350255487e-05
-1.200987496e-05
-1.02027908e-05
-8.486776619e-06
-6.812055098e-06
-5.183181382e-06
-3.91999827e-06
-2.935258901e-06
-2.153835272e-06
-1.552270684e-06
-1.10270167e-06
-7.702174142e-07
-5.375827702e-07
-3.744874217e-07
-2.613748074e-07
-1.821674651e-07
-1.207001052e-07
-8.596537921e-08
-6.17648316e-08
-4.444387686e-08
-3.164573863e-08
-2.67264945e-08
-2.094806868e-08
-1.491374538e-08
-1.0729665e-08
-7.507888495e-09
-5.260881128e-09
-3.735816029e-09
-2.598154102e-09
-1.803882447e-09
-1.237837114e-09
-8.474639735e-10
-5.758340725e-10
-3.908612304e-10
-2.632168232e-10
-1.754188893e-10
-1.161050994e-10
-7.591345469e-11
-4.876194726e-11
-3.050008503e-11
-1.915889947e-11
-1.184002972e-11
-7.189729858e-12
-4.297069885e-12
-2.530449914e-12
-1.461507374e-12
-8.186076071e-13
-4.471185841e-13
-2.366923794e-13
-1.216616729e-13
-6.004132259e-14
-2.826806059e-14
-1.274044246e-14
-5.214133453e-15
-1.906155931e-15
-6.004691381e-16
-1.620000674e-16
-7.111775503e-19
3.964323393e-17
3.00698185e-17
1.73493999e-17
8.287807136e-18
3.568959826e-18
1.465210981e-18
5.529278303e-19
1.90186478e-19
5.665012405e-20
1.597446599e-20
4.061261222e-21
8.464497345e-22
1.377315183e-22
1.904514231e-23
5.979632687e-24
1.165282391e-24
1.589449092e-25
2.430066893e-26
3.062471562e-27
4.309849947e-28
2.218460102e-29
-6.206449057e-30
-2.215462481e-32
-5.041398884e-31
-1.325473634e-27
1.101672657e-17
1.321229815e-17
)


101
(
-4.232902373e-20
4.454304457e-10
1.527806731e-09
-2.476299343e-08
-2.156374637e-07
-6.523877991e-07
-1.231620035e-06
-2.228967352e-06
-3.463494432e-06
-4.822865683e-06
-6.146766508e-06
-7.293941041e-06
-8.198368142e-06
-8.704051392e-06
-8.833234725e-06
-8.612170226e-06
-8.059644077e-06
-7.291390476e-06
-6.342085496e-06
-5.38398038e-06
-4.436318425e-06
-3.521349277e-06
-2.744856003e-06
-2.104828134e-06
-1.585014801e-06
-1.17471962e-06
-8.597402143e-07
-6.227326833e-07
-4.491038691e-07
-3.234289529e-07
-2.332821135e-07
-1.688641716e-07
-1.215951225e-07
-8.845043647e-08
-6.437033232e-08
-4.720421708e-08
-3.560786661e-08
-2.63847587e-08
-2.049611565e-08
-1.581847603e-08
-1.182850107e-08
-8.656123401e-09
-6.309980407e-09
-4.599387176e-09
-3.346704721e-09
-2.434108262e-09
-1.763846129e-09
-1.271176793e-09
-9.094243847e-10
-6.463106949e-10
-4.555152536e-10
-3.187208782e-10
-2.214528673e-10
-1.526305138e-10
-1.040599943e-10
-7.018597277e-11
-4.669998805e-11
-3.076496028e-11
-2.005421192e-11
-1.288811128e-11
-8.208396308e-12
-5.150274614e-12
-3.16797317e-12
-1.918466562e-12
-1.138616553e-12
-6.602042608e-13
-3.737103744e-13
-2.055926616e-13
-1.11643928e-13
-5.801896085e-14
-2.860842864e-14
-1.34416981e-14
-6.305952337e-15
-2.75182262e-15
-1.028598559e-15
-3.199835046e-16
-7.204519442e-17
1.483535187e-18
1.099794763e-17
8.778339034e-18
5.361414185e-18
2.912204194e-18
1.282475472e-18
5.037266145e-19
1.887731487e-19
6.163301545e-20
1.746156342e-20
3.512281422e-21
8.281322658e-22
2.181603628e-22
4.290738068e-23
5.665753004e-24
7.098120821e-25
8.68297934e-26
-4.535414481e-27
-7.086281288e-27
-7.460057509e-29
-3.188521175e-27
-9.209580633e-26
1.027477653e-21
9.908533785e-12
)


101
(
-8.565997544e-20
5.800278525e-10
2.947422731e-09
-1.360463137e-08
-1.464057529e-07
-4.466832981e-07
-8.434595816e-07
-1.506918456e-06
-2.327223989e-06
-3.240487432e-06
-4.155121288e-06
-4.9920774e-06
-5.70535772e-06
-6.203662396e-06
-6.477426432e-06
-6.518485786e-06
-6.322890864e-06
-5.941718534e-06
-5.387881901e-06
-4.756640341e-06
-4.078813004e-06
-3.39153705e-06
-2.757631737e-06
-2.19632012e-06
-1.716047684e-06
-1.319625762e-06
-1.001590636e-06
-7.524345449e-07
-5.618008957e-07
-4.179732143e-07
-3.107221377e-07
-2.315653111e-07
-1.72499798e-07
-1.294339413e-07
-9.672063238e-08
-7.130121988e-08
-5.491326579e-08
-4.136499149e-08
-3.160066843e-08
-2.466174655e-08
-1.906413256e-08
-1.445468788e-08
-1.087377003e-08
-8.137607558e-09
-6.07345587e-09
-4.542911759e-09
-3.394736965e-09
-2.532309762e-09
-1.877680752e-09
-1.38611922e-09
-1.015276623e-09
-7.391757248e-10
-5.35449396e-10
-3.856414958e-10
-2.756112439e-10
-1.957974557e-10
-1.376361968e-10
-9.58964113e-11
-6.62742066e-11
-4.517813931e-11
-3.061828696e-11
-2.056499703e-11
-1.361370277e-11
-8.918559445e-12
-5.757044521e-12
-3.635980645e-12
-2.26065446e-12
-1.374330995e-12
-8.286593064e-13
-4.901545292e-13
-2.790230452e-13
-1.541526534e-13
-8.421897325e-14
-4.493718307e-14
-2.260238314e-14
-1.072261691e-14
-4.820603025e-15
-2.076015375e-15
-8.4342536e-16
-3.291819118e-16
-1.215672321e-16
-3.641469102e-17
-8.235142599e-18
-9.468124505e-19
8.106004194e-19
7.448481212e-19
4.026050577e-19
1.207124124e-19
2.801379377e-20
9.264677686e-21
3.214660965e-21
5.696770608e-22
7.249732056e-23
-2.514929431e-24
-7.594363155e-24
-3.069473903e-24
-1.025762189e-25
-4.541776449e-24
-4.034694237e-23
-2.703697273e-20
-2.071666219e-20
)


101
(
-1.197745856e-19
6.653120157e-10
3.853151728e-09
-6.342206326e-09
-1.011139933e-07
-3.162474874e-07
-6.093067371e-07
-1.093138136e-06
-1.707858743e-06
-2.421423763e-06
-3.179227918e-06
-3.929422594e-06
-4.629439443e-06
-5.20808427e-06
-5.633085749e-06
-5.873265149e-06
-5.906590012e-06
-5.751431336e-06
-5.408804637e-06
-4.942414597e-06
-4.384650568e-06
-3.778193742e-06
-3.180342786e-06
-2.618399233e-06
-2.113376321e-06
-1.678024618e-06
-1.314141736e-06
-1.017828234e-06
-7.82550343e-07
-5.985663168e-07
-4.564142971e-07
-3.484267878e-07
-2.656009085e-07
-2.042621575e-07
-1.562002598e-07
-1.201484096e-07
-9.213152329e-08
-7.055847255e-08
-5.451235349e-08
-4.264522643e-08
-3.350242088e-08
-2.609903718e-08
-2.021227926e-08
-1.55499665e-08
-1.190814192e-08
-9.132393404e-09
-7.003063369e-09
-5.372971485e-09
-4.106804706e-09
-3.132116065e-09
-2.374135171e-09
-1.789572958e-09
-1.342775014e-09
-1.004302133e-09
-7.471751601e-10
-5.513636288e-10
-4.051015298e-10
-2.955090368e-10
-2.144427586e-10
-1.533515872e-10
-1.090294252e-10
-7.718988302e-11
-5.396213265e-11
-3.751161151e-11
-2.585730518e-11
-1.746090775e-11
-1.162572359e-11
-7.629041852e-12
-4.949976657e-12
-3.198092776e-12
-1.998728631e-12
-1.223552177e-12
-7.372393459e-13
-4.384557226e-13
-2.518554143e-13
-1.401129956e-13
-7.541485707e-14
-3.923802674e-14
-1.963767542e-14
-9.56663877e-15
-4.602630162e-15
-2.136282473e-15
-9.056663892e-16
-3.792117658e-16
-1.46928118e-16
-5.193096516e-17
-1.547653905e-17
-4.837225695e-18
-1.872183943e-18
-6.935575283e-19
-1.68304676e-19
-5.362217504e-20
-2.03547169e-20
-6.627687391e-21
-2.967097375e-21
-9.232624646e-22
-6.165955277e-23
-1.753049137e-21
-1.518197018e-20
-2.708513801e-19
-9.107096106e-18
)


101
(
-1.463914376e-19
7.134969924e-10
4.397632581e-09
-1.66624912e-09
-7.142794147e-08
-2.33030857e-07
-4.663643096e-07
-8.524711838e-07
-1.364426102e-06
-1.989787955e-06
-2.693992281e-06
-3.437428969e-06
-4.177287702e-06
-4.848738456e-06
-5.406055064e-06
-5.804542437e-06
-6.009423208e-06
-6.019556496e-06
-5.827045022e-06
-5.476878884e-06
-4.999007443e-06
-4.436112069e-06
-3.846578772e-06
-3.261956061e-06
-2.711551796e-06
-2.217001999e-06
-1.78693427e-06
-1.423473074e-06
-1.124581117e-06
-8.828018567e-07
-6.904072171e-07
-5.387512916e-07
-4.19472541e-07
-3.296493342e-07
-2.578804848e-07
-2.022828919e-07
-1.583011899e-07
-1.234871423e-07
-9.675174085e-08
-7.6559821e-08
-6.093132494e-08
-4.845085833e-08
-3.845737867e-08
-3.037199949e-08
-2.385500533e-08
-1.871878539e-08
-1.468104183e-08
-1.15438177e-08
-9.070097949e-09
-7.117781961e-09
-5.559129061e-09
-4.317371957e-09
-3.337439242e-09
-2.57450956e-09
-1.981530044e-09
-1.514752184e-09
-1.151808291e-09
-8.712985927e-10
-6.585345314e-10
-4.915180613e-10
-3.634114775e-10
-2.688979463e-10
-1.964812229e-10
-1.429507033e-10
-1.037038833e-10
-7.417012484e-11
-5.236836881e-11
-3.654251012e-11
-2.507467364e-11
-1.72821826e-11
-1.164644119e-11
-7.718548692e-12
-5.027980778e-12
-3.236186749e-12
-2.030084902e-12
-1.245895943e-12
-7.545619138e-13
-4.441499857e-13
-2.518564189e-13
-1.389564045e-13
-7.543428818e-14
-4.094601837e-14
-2.086207909e-14
-1.03768745e-14
-4.998699198e-15
-2.287252092e-15
-9.691123141e-16
-3.985807663e-16
-1.673514482e-16
-7.005020499e-17
-2.597821463e-17
-9.028934992e-18
-3.48327768e-18
-1.214251519e-18
-4.814850801e-19
-1.474514937e-19
-1.575866536e-20
-4.530095352e-19
-3.491902505e-18
-5.328248198e-17
-6.533566289e-16
)


101
(
-1.668688985e-19
7.339775567e-10
4.689125692e-09
1.298735173e-09
-5.189871362e-08
-1.794333605e-07
-3.775345636e-07
-7.092851221e-07
-1.169108443e-06
-1.756571634e-06
-2.449077554e-06
-3.213829732e-06
-4.008524193e-06
-4.77163498e-06
-5.450178911e-06
-5.991722333e-06
-6.352167144e-06
-6.51536612e-06
-6.464571921e-06
-6.229081607e-06
-5.832891737e-06
-5.315396543e-06
-4.737029243e-06
-4.129989031e-06
-3.529562615e-06
-2.966861758e-06
-2.457472417e-06
-2.010380574e-06
-1.629749423e-06
-1.31155421e-06
-1.050366907e-06
-8.382075566e-07
-6.661158477e-07
-5.337662746e-07
-4.267326364e-07
-3.413523092e-07
-2.724635034e-07
-2.167825903e-07
-1.728334061e-07
-1.387954809e-07
-1.120925365e-07
-9.064688127e-08
-7.338949426e-08
-5.930162519e-08
-4.767579774e-08
-3.822784838e-08
-3.060166638e-08
-2.459304172e-08
-1.980217303e-08
-1.592848921e-08
-1.278660321e-08
-1.019957493e-08
-8.101314564e-09
-6.418868071e-09
-5.092859229e-09
-4.015338496e-09
-3.14819671e-09
-2.459481114e-09
-1.918053517e-09
-1.482412667e-09
-1.139402754e-09
-8.758175592e-10
-6.669298534e-10
-5.043873697e-10
-3.807963904e-10
-2.853823743e-10
-2.1148434e-10
-1.553591174e-10
-1.124996627e-10
-8.110191647e-11
-5.791961208e-11
-4.089747366e-11
-2.853373483e-11
-1.964456091e-11
-1.32358062e-11
-8.752225293e-12
-5.763600651e-12
-3.711651594e-12
-2.328385509e-12
-1.419854844e-12
-8.48031209e-13
-5.059270918e-13
-2.931804836e-13
-1.639891755e-13
-9.03506068e-14
-4.795144792e-14
-2.423007533e-14
-1.167066426e-14
-5.63624719e-15
-2.676743248e-15
-1.201735358e-15
-4.966846365e-16
-2.145186908e-16
-8.771567835e-17
-3.726884301e-17
-1.358438588e-17
-2.161431111e-18
-5.164272495e-17
-3.701050614e-16
-4.807489248e-15
-1.205153469e-12
)


101
(
-1.822884993e-19
7.339856427e-10
4.804459369e-09
3.136438485e-09
-3.897319335e-08
-1.444452918e-07
-3.209597866e-07
-6.213214611e-07
-1.053939949e-06
-1.626242397e-06
-2.324255604e-06
-3.120435456e-06
-3.974989541e-06
-4.829648576e-06
-5.628275243e-06
-6.313660399e-06
-6.834460404e-06
-7.161127284e-06
-7.266989981e-06
-7.165941443e-06
-6.872475538e-06
-6.419931579e-06
-5.870504208e-06
-5.253495865e-06
-4.607376163e-06
-3.974357326e-06
-3.377933001e-06
-2.834188675e-06
-2.354691866e-06
-1.94062303e-06
-1.590173764e-06
-1.297358322e-06
-1.052808649e-06
-8.591888976e-07
-7.008399507e-07
-5.722153271e-07
-4.660892715e-07
-3.782099928e-07
-3.07281915e-07
-2.508378591e-07
-2.056884782e-07
-1.688329214e-07
-1.391049437e-07
-1.146636935e-07
-9.419332871e-08
-7.717684485e-08
-6.303395413e-08
-5.159782288e-08
-4.239450142e-08
-3.485544717e-08
-2.866990395e-08
-2.341472131e-08
-1.90676014e-08
-1.550506839e-08
-1.26152523e-08
-1.021851256e-08
-8.254883399e-09
-6.640914718e-09
-5.334262643e-09
-4.249328362e-09
-3.366494147e-09
-2.669841414e-09
-2.102533754e-09
-1.649773901e-09
-1.289997063e-09
-1.004753717e-09
-7.747281392e-10
-5.951787153e-10
-4.518617312e-10
-3.409300898e-10
-2.560114134e-10
-1.899460137e-10
-1.399932169e-10
-1.01941271e-10
-7.303454494e-11
-5.142822547e-11
-3.608815884e-11
-2.495782939e-11
-1.701393831e-11
-1.131060729e-11
-7.35843216e-12
-4.723338288e-12
-3.014802287e-12
-1.855961679e-12
-1.129729466e-12
-6.690519293e-13
-3.851169962e-13
-2.109733381e-13
-1.150832655e-13
-6.129537772e-14
-3.140634706e-14
-1.516066094e-14
-7.487953489e-15
-3.546260544e-15
-1.699965267e-15
-7.280123025e-16
-1.635324826e-16
-3.038303092e-15
-1.954352794e-14
-2.082067774e-13
-8.463068972e-13
)


101
(
-1.935184743e-19
7.1909438e-10
4.798121317e-09
4.234667062e-09
-3.033442869e-08
-1.211614444e-07
-2.837166248e-07
-5.648996622e-07
-9.826027405e-07
-1.550148141e-06
-2.261144805e-06
-3.093247128e-06
-4.011045729e-06
-4.960378305e-06
-5.884496119e-06
-6.723267684e-06
-7.419561582e-06
-7.931009876e-06
-8.220061122e-06
-8.284597082e-06
-8.126875636e-06
-7.770766559e-06
-7.277880579e-06
-6.674206954e-06
-5.995514441e-06
-5.296829191e-06
-4.612380879e-06
-3.965194734e-06
-3.373913935e-06
-2.845999326e-06
-2.38524221e-06
-1.989571415e-06
-1.649653408e-06
-1.371609311e-06
-1.140651668e-06
-9.494747668e-07
-7.878179667e-07
-6.510145445e-07
-5.39164464e-07
-4.476142582e-07
-3.729617663e-07
-3.115312594e-07
-2.608022626e-07
-2.185061264e-07
-1.827752142e-07
-1.527120921e-07
-1.272286197e-07
-1.060973769e-07
-8.893315022e-08
-7.459061544e-08
-6.250081254e-08
-5.216899921e-08
-4.350649685e-08
-3.6088921e-08
-3.003094857e-08
-2.498520916e-08
-2.06909918e-08
-1.707415408e-08
-1.408716836e-08
-1.155086788e-08
-9.423680545e-09
-7.697162345e-09
-6.23148077e-09
-5.040784589e-09
-4.066782522e-09
-3.278862284e-09
-2.630413766e-09
-2.098262995e-09
-1.660120469e-09
-1.29853635e-09
-1.014180781e-09
-7.834292764e-10
-6.063399288e-10
-4.654252674e-10
-3.511933846e-10
-2.615890561e-10
-1.937383807e-10
-1.418889891e-10
-1.030705281e-10
-7.320280066e-11
-5.138105115e-11
-3.539653081e-11
-2.434868633e-11
-1.630422465e-11
-1.077008182e-11
-6.930337982e-12
-4.433380113e-12
-2.709627516e-12
-1.637882821e-12
-9.691558829e-13
-5.554949665e-13
-3.082984889e-13
-1.701787333e-13
-9.168522526e-14
-4.919762934e-14
-2.398597017e-14
-7.504080499e-15
-1.035143276e-13
-5.748274485e-13
-4.650755662e-12
-7.937637651e-11
)


101
(
-2.012609839e-19
6.935921373e-10
4.708755504e-09
4.850775661e-09
-2.44745641e-08
-1.052409042e-07
-2.581106773e-07
-5.266504371e-07
-9.355211162e-07
-1.503138263e-06
-2.230827948e-06
-3.10177557e-06
-4.086515399e-06
-5.135997017e-06
-6.194690664e-06
-7.200942669e-06
-8.093335005e-06
-8.817143559e-06
-9.323105402e-06
-9.593189666e-06
-9.614312606e-06
-9.396286762e-06
-8.994553902e-06
-8.440106225e-06
-7.754241092e-06
-7.006238013e-06
-6.242465237e-06
-5.492401035e-06
-4.781371772e-06
-4.123917871e-06
-3.531365529e-06
-3.008996992e-06
-2.549424435e-06
-2.160014769e-06
-1.828172903e-06
-1.548549164e-06
-1.308464208e-06
-1.101947189e-06
-9.309865057e-07
-7.869203524e-07
-6.662186065e-07
-5.64522405e-07
-4.796625263e-07
-4.07878934e-07
-3.467635542e-07
-2.949317401e-07
-2.503767207e-07
-2.129671611e-07
-1.817961291e-07
-1.551008565e-07
-1.323079051e-07
-1.127923591e-07
-9.609017835e-08
-8.153430344e-08
-6.931425282e-08
-5.879936797e-08
-4.98858544e-08
-4.20149599e-08
-3.548464839e-08
-2.989010572e-08
-2.500878588e-08
-2.098581237e-08
-1.747211671e-08
-1.453726346e-08
-1.206887156e-08
-9.999649389e-09
-8.276821126e-09
-6.806110333e-09
-5.566679784e-09
-4.523154033e-09
-3.665906569e-09
-2.95058769e-09
-2.363718392e-09
-1.885914061e-09
-1.489319973e-09
-1.165964159e-09
-9.045831232e-10
-6.95264748e-10
-5.334927187e-10
-4.016398908e-10
-2.977113589e-10
-2.193391812e-10
-1.598218103e-10
-1.155156044e-10
-8.15423311e-11
-5.644129955e-11
-3.916536928e-11
-2.623505733e-11
-1.731845528e-11
-1.119603952e-11
-7.054181408e-12
-4.354747245e-12
-2.659553796e-12
-1.602797845e-12
-9.625320752e-13
-5.275340398e-13
-2.085711866e-13
-2.168761225e-12
-1.026678852e-11
-6.158651863e-11
-2.841513674e-09
)


101
(
-2.060882196e-19
6.607698678e-10
4.563946539e-09
5.155809733e-09
-2.0415387e-08
-9.396510088e-08
-2.395599925e-07
-4.989907351e-07
-9.021180827e-07
-1.472178362e-06
-2.21882744e-06
-3.131027258e-06
-4.186675878e-06
-5.34290343e-06
-6.546821396e-06
-7.736654123e-06
-8.848211824e-06
-9.815558603e-06
-1.057680422e-05
-1.109873811e-05
-1.135189605e-05
-1.132798063e-05
-1.106943683e-05
-1.061371355e-05
-9.962709435e-06
-9.197910904e-06
-8.376593313e-06
-7.533475382e-06
-6.700240539e-06
-5.901633236e-06
-5.156880124e-06
-4.479949489e-06
-3.870556133e-06
-3.340998107e-06
-2.876865509e-06
-2.477851421e-06
-2.131631363e-06
-1.830352463e-06
-1.575382144e-06
-1.353945285e-06
-1.164518024e-06
-1.000626833e-06
-8.629358638e-07
-7.443839447e-07
-6.427678759e-07
-5.563991509e-07
-4.810462846e-07
-4.162996451e-07
-3.608811748e-07
-3.128984542e-07
-2.715610343e-07
-2.359855912e-07
-2.050368626e-07
-1.778498622e-07
-1.535764212e-07
-1.32812539e-07
-1.151403856e-07
-9.919073268e-08
-8.560496258e-08
-7.380567797e-08
-6.324185878e-08
-5.421987523e-08
-4.635750162e-08
-3.954966863e-08
-3.364063281e-08
-2.849637909e-08
-2.424714225e-08
-2.050210902e-08
-1.731431608e-08
-1.451967835e-08
-1.21366158e-08
-1.007705709e-08
-8.358117753e-09
-6.909946142e-09
-5.671950721e-09
-4.608423687e-09
-3.722779369e-09
-2.990667556e-09
-2.390667237e-09
-1.888928136e-09
-1.471760418e-09
-1.143265957e-09
-8.768951938e-10
-6.702552207e-10
-5.035839425e-10
-3.700209186e-10
-2.725350582e-10
-1.960979019e-10
-1.389932272e-10
-9.743692105e-11
-6.614337336e-11
-4.468592771e-11
-2.976038184e-11
-1.958256449e-11
-1.290854767e-11
-7.911711637e-12
-3.830954455e-12
-2.873501339e-11
-1.161718219e-10
-5.432795213e-10
-2.648805224e-09
)


101
(
-2.084756535e-19
6.231550402e-10
4.383120354e-09
5.26240642e-09
-1.752201937e-08
-8.562827036e-08
-2.253358946e-07
-4.776244885e-07
-8.765752008e-07
-1.450323091e-06
-2.217629682e-06
-3.17325394e-06
-4.303733815e-06
-5.573726196e-06
-6.934191271e-06
-8.324708514e-06
-9.67905632e-06
-1.092267495e-05
-1.198170307e-05
-1.280937142e-05
-1.33603259e-05
-1.360407839e-05
-1.356586096e-05
-1.327674593e-05
-1.272992636e-05
-1.200343472e-05
-1.115666214e-05
-1.023602826e-05
-9.284100323e-06
-8.338274649e-06
-7.424507804e-06
-6.565131597e-06
-5.770438676e-06
-5.071474191e-06
-4.442924446e-06
-3.890308754e-06
-3.404555735e-06
-2.977241918e-06
-2.60715051e-06
-2.275619225e-06
-1.988245937e-06
-1.734551354e-06
-1.517588651e-06
-1.329443192e-06
-1.16641129e-06
-1.026301809e-06
-9.017647367e-07
-7.924186152e-07
-6.970858223e-07
-6.140570185e-07
-5.413757206e-07
-4.780304439e-07
-4.227976864e-07
-3.732414914e-07
-3.276216476e-07
-2.897823739e-07
-2.554502623e-07
-2.247413271e-07
-1.972626487e-07
-1.737304047e-07
-1.522144459e-07
-1.332823879e-07
-1.164444863e-07
-1.014287417e-07
-8.834967895e-08
-7.667044737e-08
-6.649761902e-08
-5.76688778e-08
-4.99421051e-08
-4.303516719e-08
-3.699747977e-08
-3.162401765e-08
-2.698874087e-08
-2.296456284e-08
-1.942681273e-08
-1.629330927e-08
-1.363155264e-08
-1.137421669e-08
-9.394744571e-09
-7.710737125e-09
-6.276494403e-09
-5.075670577e-09
-4.072468623e-09
-3.252913432e-09
-2.56491935e-09
-1.98202353e-09
-1.530875471e-09
-1.16965545e-09
-8.796511484e-10
-6.54050946e-10
-4.74029785e-10
-3.435756426e-10
-2.448604382e-10
-1.736227914e-10
-1.230418096e-10
-8.213359497e-11
-4.649788443e-11
-2.633290608e-10
-9.125223857e-10
-3.402096141e-09
-2.263782926e-08
)


101
(
-2.088200542e-19
5.826739086e-10
4.180229156e-09
5.244698199e-09
-1.538387675e-08
-7.916066402e-08
-2.138048715e-07
-4.60107788e-07
-8.556635726e-07
-1.433706886e-06
-2.223071983e-06
-3.22415117e-06
-4.433128714e-06
-5.824031879e-06
-7.352656335e-06
-8.961382654e-06
-1.058240317e-05
-1.213500107e-05
-1.353777674e-05
-1.473432192e-05
-1.566007896e-05
-1.626125243e-05
-1.653886697e-05
-1.649604867e-05
-1.612645633e-05
-1.550519058e-05
-1.469215988e-05
-1.373878063e-05
-1.269764425e-05
-1.16179948e-05
-1.053219899e-05
-9.474110647e-06
-8.469282571e-06
-7.572548901e-06
-6.747456839e-06
-6.00544698e-06
-5.341377759e-06
-4.746183056e-06
-4.21857501e-06
-3.7411363e-06
-3.319431448e-06
-2.940904543e-06
-2.609662039e-06
-2.320238128e-06
-2.066126959e-06
-1.844938324e-06
-1.646351298e-06
-1.468888916e-06
-1.310935257e-06
-1.172447576e-06
-1.049192696e-06
-9.40128356e-07
-8.442987651e-07
-7.575397576e-07
-6.777081887e-07
-6.088094766e-07
-5.458975863e-07
-4.88106756e-07
-4.360257872e-07
-3.906778445e-07
-3.490505168e-07
-3.115035746e-07
-2.777387092e-07
-2.467648956e-07
-2.186615916e-07
-1.942177811e-07
-1.719646336e-07
-1.521521473e-07
-1.347515352e-07
-1.186338177e-07
-1.044151085e-07
-9.158602416e-08
-7.999248447e-08
-6.971852362e-08
-6.047479022e-08
-5.220099179e-08
-4.492665744e-08
-3.849604199e-08
-3.286364283e-08
-2.78121326e-08
-2.33534379e-08
-1.952658951e-08
-1.623789633e-08
-1.339036122e-08
-1.098431447e-08
-8.878379809e-09
-7.110889725e-09
-5.669552604e-09
-4.459457797e-09
-3.470613233e-09
-2.659745665e-09
-2.033806245e-09
-1.529239197e-09
-1.143097735e-09
-8.605601319e-10
-6.162950966e-10
-3.933738995e-10
-1.737483994e-09
-5.19422818e-09
-1.590190928e-08
5.260464371e-08
)


101
(
-2.074372429e-19
5.407819144e-10
3.965118296e-09
5.150987122e-09
-1.373649797e-08
-7.389314513e-08
-2.039758171e-07
-4.450129555e-07
-8.376512024e-07
-1.420284143e-06
-2.232474054e-06
-3.280989654e-06
-4.571505095e-06
-6.089352181e-06
-7.796905591e-06
-9.641314846e-06
-1.155596931e-05
-1.345568897e-05
-1.525479663e-05
-1.689199538e-05
-1.827107691e-05
-1.932202691e-05
-2.001644249e-05
-2.032173182e-05
-2.022903167e-05
-1.980324414e-05
-1.911229503e-05
-1.820687536e-05
-1.714454331e-05
-1.597340009e-05
-1.473094458e-05
-1.347440469e-05
-1.225231787e-05
-1.114317348e-05
-1.009159763e-05
-9.120310534e-06
-8.230870488e-06
-7.418709984e-06
-6.686810914e-06
-6.022413558e-06
-5.423975808e-06
-4.878386731e-06
-4.390016269e-06
-3.958262033e-06
-3.5737813e-06
-3.233389137e-06
-2.926531329e-06
-2.649989569e-06
-2.399339095e-06
-2.180350274e-06
-1.977632296e-06
-1.794220386e-06
-1.635374697e-06
-1.489229331e-06
-1.353426042e-06
-1.230741282e-06
-1.122812556e-06
-1.019355953e-06
-9.267777913e-07
-8.42757874e-07
-7.668894452e-07
-6.957947627e-07
-6.306359705e-07
-5.700341788e-07
-5.153186924e-07
-4.656247953e-07
-4.194307086e-07
-3.783736112e-07
-3.400504603e-07
-3.05665771e-07
-2.742777293e-07
-2.45901292e-07
-2.191754898e-07
-1.948873983e-07
-1.725639569e-07
-1.520351398e-07
-1.338007485e-07
-1.176549844e-07
-1.026498086e-07
-8.914541579e-08
-7.678271538e-08
-6.599421176e-08
-5.629089986e-08
-4.764791515e-08
-4.023119964e-08
-3.364943203e-08
-2.776605234e-08
-2.2845603e-08
-1.859491366e-08
-1.501846019e-08
-1.198109716e-08
-9.530356981e-09
-7.465930501e-09
-5.833312183e-09
-4.574782822e-09
-3.457429226e-09
-2.39591135e-09
-8.579149784e-09
-2.256543842e-08
-5.875842878e-08
6.508141949e-08
)


101
(
-2.046044384e-19
4.985893999e-10
3.744549821e-09
5.012542777e-09
-1.241028315e-08
-6.940877301e-08
-1.952505231e-07
-4.315002471e-07
-8.215564775e-07
-1.408919317e-06
-2.243848531e-06
-3.342030833e-06
-4.716492265e-06
-6.365936203e-06
-8.26205686e-06
-1.035894992e-05
-1.259768243e-05
-1.489066346e-05
-1.714832016e-05
-1.932303219e-05
-2.123734248e-05
-2.282808002e-05
-2.40356569e-05
-2.480601919e-05
-2.512129568e-05
-2.501542024e-05
-2.457060205e-05
-2.382483818e-05
-2.283559036e-05
-2.164704015e-05
-2.029981373e-05
-1.887462622e-05
-1.744819542e-05
-1.612818679e-05
-1.483303308e-05
-1.360255731e-05
-1.244983701e-05
-1.137703792e-05
-1.039442895e-05
-9.497082687e-06
-8.677041813e-06
-7.920794127e-06
-7.232057038e-06
-6.607231827e-06
-6.040104479e-06
-5.534089204e-06
-5.074863797e-06
-4.654943393e-06
-4.275098202e-06
-3.938031399e-06
-3.616256161e-06
-3.322818939e-06
-3.071123299e-06
-2.834012791e-06
-2.61330868e-06
-2.411014309e-06
-2.230060386e-06
-2.057820159e-06
-1.895607285e-06
-1.748233186e-06
-1.616172747e-06
-1.489806548e-06
-1.368006168e-06
-1.255953834e-06
-1.155365387e-06
-1.058375812e-06
-9.704415134e-07
-8.862244745e-07
-8.106005467e-07
-7.405581511e-07
-6.745749639e-07
-6.148266387e-07
-5.577985815e-07
-5.04708655e-07
-4.546561281e-07
-4.073376468e-07
-3.655964776e-07
-3.267373247e-07
-2.905328836e-07
-2.576395691e-07
-2.261139481e-07
-1.979818043e-07
-1.72654516e-07
-1.493014749e-07
-1.282018088e-07
-1.097278691e-07
-9.317601718e-08
-7.824784801e-08
-6.54588433e-08
-5.442588131e-08
-4.46091272e-08
-3.661011653e-08
-2.948936431e-08
-2.375672251e-08
-1.924747683e-08
-1.511903207e-08
-1.106657569e-08
-3.308478719e-08
-7.748404604e-08
-1.790694423e-07
-1.247291501e-06
)


101
(
-2.005576156e-19
4.569250769e-10
3.523025382e-09
4.849442578e-09
-1.129710759e-08
-6.544588069e-08
-1.872629848e-07
-4.190581821e-07
-8.06841362e-07
-1.399027981e-06
-2.256049111e-06
-3.405577965e-06
-4.866079976e-06
-6.651121191e-06
-8.745532732e-06
-1.111205466e-05
-1.370509455e-05
-1.643967864e-05
-1.921993227e-05
-2.202035015e-05
-2.455422639e-05
-2.67894209e-05
-2.86417046e-05
-3.00190553e-05
-3.090366683e-05
-3.128595226e-05
-3.125274744e-05
-3.080905189e-05
-3.001187251e-05
-2.891312637e-05
-2.757395249e-05
-2.607396564e-05
-2.447982738e-05
-2.298111856e-05
-2.144038207e-05
-1.993391398e-05
-1.849148172e-05
-1.712561557e-05
-1.585984482e-05
-1.468603023e-05
-1.361193383e-05
-1.260102716e-05
-1.166065318e-05
-1.079405233e-05
-9.995245085e-06
-9.26730501e-06
-8.594971029e-06
-7.983567193e-06
-7.42436583e-06
-6.918149158e-06
-6.435373333e-06
-5.989217577e-06
-5.600132988e-06
-5.233230023e-06
-4.893341647e-06
-4.576203642e-06
-4.285173532e-06
-4.011193932e-06
-3.743954292e-06
-3.499011562e-06
-3.268880639e-06
-3.055293623e-06
-2.841544993e-06
-2.649562052e-06
-2.471418296e-06
-2.293394545e-06
-2.12902161e-06
-1.971933937e-06
-1.830694714e-06
-1.693536741e-06
-1.562133745e-06
-1.443274813e-06
-1.326565834e-06
-1.218830755e-06
-1.11485595e-06
-1.012107596e-06
-9.201343498e-07
-8.317110339e-07
-7.52711769e-07
-6.75944691e-07
-6.024619401e-07
-5.361394651e-07
-4.738081729e-07
-4.167182593e-07
-3.646419379e-07
-3.161235803e-07
-2.732010454e-07
-2.337433895e-07
-1.988048743e-07
-1.686126568e-07
-1.406743797e-07
-1.177055647e-07
-9.71481103e-08
-7.993730657e-08
-6.630180818e-08
-5.339337571e-08
-4.062635539e-08
-1.055854537e-07
-2.261095055e-07
-4.773863709e-07
1.32314539e-06
)


101
(
-1.954986789e-19
4.163922875e-10
3.303389533e-09
4.674202225e-09
-1.032845572e-08
-6.184168405e-08
-1.797872577e-07
-4.073557922e-07
-7.932507311e-07
-1.390456909e-06
-2.268378302e-06
-3.469816043e-06
-5.018211708e-06
-6.943318634e-06
-9.247076134e-06
-1.190265346e-05
-1.487898308e-05
-1.80973119e-05
-2.145735076e-05
-2.494593499e-05
-2.819192866e-05
-3.119231145e-05
-3.387194179e-05
-3.603048784e-05
-3.768721149e-05
-3.878329991e-05
-3.936500567e-05
-3.939529332e-05
-3.895066136e-05
-3.810261265e-05
-3.692969222e-05
-3.549826238e-05
-3.383396198e-05
-3.223082092e-05
-3.048165374e-05
-2.872078849e-05
-2.699815805e-05
-2.533183712e-05
-2.377217265e-05
-2.231655554e-05
-2.094869897e-05
-1.964332524e-05
-1.842803602e-05
-1.727623051e-05
-1.618477066e-05
-1.517535548e-05
-1.423925008e-05
-1.339263306e-05
-1.2585577e-05
-1.185176601e-05
-1.116582212e-05
-1.052505663e-05
-9.940458957e-06
-9.404788245e-06
-8.898605558e-06
-8.405996114e-06
-7.968833255e-06
-7.559050312e-06
-7.139025153e-06
-6.743269687e-06
-6.373879663e-06
-6.025663656e-06
-5.678373188e-06
-5.36875324e-06
-5.049066143e-06
-4.757748459e-06
-4.471311187e-06
-4.186782705e-06
-3.925435635e-06
-3.666051275e-06
-3.424862032e-06
-3.195822405e-06
-2.97234312e-06
-2.76307205e-06
-2.558420468e-06
-2.351391782e-06
-2.15113782e-06
-1.97155131e-06
-1.799766459e-06
-1.63305451e-06
-1.476419438e-06
-1.329548934e-06
-1.184167143e-06
-1.054713808e-06
-9.335807346e-07
-8.200243999e-07
-7.164157399e-07
-6.218474707e-07
-5.34600053e-07
-4.585840419e-07
-3.885450044e-07
-3.284563192e-07
-2.760837183e-07
-2.302769507e-07
-1.9395371e-07
-1.593456952e-07
-1.250051517e-07
-2.907935665e-07
-5.809705078e-07
-1.167695709e-06
8.560141587e-07
)


101
(
-1.895967308e-19
3.773664295e-10
3.096455286e-09
4.49440263e-09
-9.461234703e-09
-5.849495329e-08