/*--------------------------------*- C++ -*----------------------------------*\
| =========                 |                                                 |
| \\      /  F ield         | OpenFOAM: The Open Source CFD Toolbox           |
|  \\    /   O peration     | Version:  2.3.1                                 |
|   \\  /    A nd           | Web:      www.OpenFOAM.org                      |
|    \\/     M anipulation  |                                                 |
\*---------------------------------------------------------------------------*/
FoamFile
{
    version     2.0;
    format      ascii;
    class       dictionary;
    location    "constant";
    object      la_r22;
}
// * * * * * * * * * * * * * * * * * * * * * * * * * * * * * * * * * * * * * //

la_r22_table
101
(

101
(
7.295244301e-13
2.480868242e-07
1.565010761e-05
0.0002068445272
0.001378969179
0.005944043652
0.01853784065
0.04751003331
0.1007114176
0.186045708
0.3058332481
0.4579943586
0.629091134
0.8146859542
0.9863260859
1.130711714
1.239258774
1.306912743
1.316665247
1.301080593
1.240182389
1.152782147
1.053746643
0.942765805
0.8272423653
0.7128646804
0.6033163131
0.5010509121
0.4076211363
0.3237496646
0.2496666769
0.1852143899
0.130021378
0.08292084858
0.04395681653
0.01230366211
-0.1479745928
-0.3812226546
-0.3702008476
-0.3509775424
-0.3272169896
-0.3034302735
-0.2759986448
-0.2479414851
-0.221381612
-0.194135864
-0.1687883784
-0.1437921859
-0.1208512391
-0.09882689354
-0.07897487614
-0.06046804308
-0.04340164641
-0.02780744411
-0.01365519084
-0.0007503797377
0.0120373719
0.02251899003
0.03283937001
0.0417274724
0.04994839608
0.05705551478
0.06315333115
0.0683937111
0.07262751592
0.07598212133
0.07834035712
0.07977335353
0.08045867689
0.08022091646
0.0792549815
0.0776183558
0.07548382119
0.07275664841
0.07963980903
0.08186370528
0.0751206354
0.06835399048
0.06163465174
0.05507309441
0.04876137142
0.04283416609
0.03728010751
0.03794854298
0.03559042285
0.02825613762
0.0221017192
0.01698045967
0.0128010254
0.01231836033
0.008402746906
0.005166933874
0.003042340468
0.00188206759
0.0009051275288
0.0001916916471
3.734384011e-15
-1.714554454e-30
-6.463349464e-25
3.989702358e-25
-1.980138515e-23
)


101
(
-1.810440568e-12
2.208066399e-07
1.448953039e-05
0.0001939793597
0.001300810445
0.005620441524
0.01752613848
0.0448962763
0.09512484876
0.1755791009
0.2884362689
0.4316699986
0.5927824928
0.7673632208
0.929834828
1.067329574
1.172111586
1.239751833
1.255908019
1.24759186
1.200551702
1.1296047
1.047810594
0.9563101702
0.8609155833
0.7662699176
0.6753551442
0.5900954914
0.5114051325
0.4397614605
0.3751353294
0.3173728838
0.2665585452
0.2195414893
0.1780700405
0.1414546985
0.1210923702
0.1166481708
0.09812739069
0.07345188109
0.05042608577
0.03087872103
0.01446223574
0.001031856019
-0.009661732631
-0.01787953153
-0.02388379542
-0.02779393514
-0.02988625407
-0.03023900307
-0.02918576636
-0.02684552972
-0.02342395332
-0.0191452888
-0.01421611935
-0.008796306356
-0.002750413446
0.003153258881
0.009300449171
0.01523043433
0.02102812195
0.02646254016
0.03146790127
0.03603283859
0.04004827491
0.04350452917
0.04634085644
0.04855356244
0.05020483077
0.05121889725
0.05166281472
0.05156837432
0.05102221541
0.05000156341
0.04866239868
0.04695918511
0.04484308397
0.04231008881
0.03947029352
0.03644831394
0.03333830421
0.03021958507
0.02712276612
0.02418531512
0.02131383346
0.01841095555
0.01557135788
0.01291920134
0.01050591616
0.008392432249
0.006531442999
0.00483397519
0.003394973651
0.002252581006
0.001346107094
0.0006684600372
0.0002074852999
0.0002202159723
0.0002347681295
0.0002539491884
0.0002705933838
)


101
(
-3.820054721e-12
1.740894019e-07
1.260398619e-05
0.0001736248341
0.001181106232
0.005137515514
0.01606874758
0.04120532308
0.0874071792
0.1613844236
0.2652377354
0.3970236158
0.5456381499
0.706061931
0.8566333512
0.9842695133
1.081515074
1.144348084
1.161590667
1.152331353
1.110220084
1.044739634
0.9675889859
0.8821832148
0.7931147312
0.7045781559
0.6194788951
0.539721685
0.4662433658
0.3995194189
0.3395853766
0.2862773513
0.2394481602
0.1967714526
0.1583290342
0.1242003493
0.1011130107
0.08944210082
0.07569845551
0.05721052062
0.03789818547
0.02052691727
0.005824156375
-0.006322567366
-0.0161241012
-0.02383616037
-0.02963590928
-0.03373276918
-0.03624720038
-0.03733194857
-0.03713451187
-0.03581326565
-0.03350743434
-0.0303768625
-0.02657708096
-0.02224774003
-0.01744349115
-0.01238567509
-0.007169154766
-0.001912086254
0.003290107474
0.008343663328
0.01315892985
0.01767405385
0.02182671693
0.02557142935
0.02887287772
0.03169567236
0.03403641275
0.03588859565
0.03724328697
0.03811779622
0.03853453743
0.03852715816
0.03815082286
0.03744156677
0.03639692927
0.03499286543
0.03324133281
0.03121829833
0.02902316275
0.02673339786
0.0243923939
0.02206357104
0.01979048772
0.01754511436
0.01528464561
0.0130667158
0.01098698425
0.009087739559
0.007377487173
0.005849332121
0.004454783684
0.003266913527
0.002296251096
0.001456185429
0.00075845125
0.0008282973006
0.000907292462
0.001011137246
0.001097947743
)


101
(
-5.355857361e-12
1.33027687e-07
1.089896409e-05
0.0001549967791
0.001070921432
0.004692242586
0.01472573683
0.03781313716
0.08033347772
0.1484365185
0.244186565
0.3657978459
0.5034368435
0.6517619143
0.7923238731
0.9122150615
1.004114249
1.064248006
1.083752619
1.076025837
1.039432245
0.9804414269
0.9091232357
0.8301378557
0.7475132309
0.6650321252
0.585455007
0.5106410241
0.4415964909
0.3788090917
0.3223883274
0.2722878972
0.2282401717
0.1885883533
0.1524046142
0.1188186511
0.09521738708
0.0794014031
0.06565322136
0.05031570121
0.03355216691
0.01747526998
0.003352171648
-0.008634687044
-0.01857287799
-0.02665773775
-0.03307337163
-0.03800840361
-0.04157144344
-0.04387071156
-0.04500708389
-0.04508512544
-0.04420888881
-0.04249473138
-0.04005445545
-0.03699277682
-0.03341267861
-0.02939653144
-0.02507498988
-0.02052940672
-0.015862276
-0.0111533544
-0.006480298256
-0.001918833033
0.002470130769
0.006635082929
0.01052390867
0.01409598439
0.01729368409
0.02011162768
0.02253256706
0.02454418448
0.02612499316
0.0272930102
0.02807309934
0.02849130352
0.02856619464
0.02828924831
0.02764624626
0.02665263664
0.02537691372
0.02390594505
0.02229610073
0.02059346668
0.01884718082
0.01708900875
0.01530969531
0.01348381276
0.01168445109
0.009985217647
0.008406950586
0.00696599883
0.00564445795
0.004440522564
0.003413920386
0.002459225025
0.001557629584
0.001718778003
0.001913252587
0.002169325447
0.002384725253
)


101
(
-6.471006647e-12
9.714770236e-08
9.361272484e-06
0.0001379758764
0.0009695987072
0.004281907547
0.01348830678
0.03469440619
0.07384389729
0.1366054361
0.2250351767
0.3375541975
0.4654873331
0.6033798088
0.7354391594
0.8491963333
0.9373928202
0.9963835083
1.019010901
1.014525482
0.9839790409
0.9321474783
0.8675361914
0.7953341363
0.7193320742
0.6429578281
0.5687997194
0.4986682677
0.4336312738
0.374203264
0.3205098643
0.2727253723
0.2305214937
0.1928840188
0.1585218118
0.1266316651
0.1010293991
0.08228760465
0.06721002387
0.05248432187
0.03691423115
0.0213698253
0.007062753965
-0.005557251941
-0.01642669188
-0.02563973826
-0.03336462496
-0.03977009294
-0.0449613661
-0.04900100305
-0.05196944354
-0.05392624404
-0.05492714315
-0.05504801217
-0.05437637261
-0.0529818478
-0.0509506278
-0.04832428301
-0.04521076764
-0.04167079074
-0.03779393796
-0.03365669559
-0.02933259756
-0.02490077681
-0.02042367968
-0.01594603249
-0.011532543
-0.007249150938
-0.003170734972
0.0006648515323
0.004244985573
0.007528344229
0.01046525319
0.01302950637
0.01521975054
0.0170417623
0.01850645048
0.01959645446
0.02029871261
0.02059513111
0.02050087361
0.02008541439
0.01941563702
0.01853649901
0.01749608165
0.01633380377
0.01508287438
0.01372781188
0.01228259441
0.01083650977
0.009441310511
0.008115685779
0.006872924239
0.005697799469
0.004646928858
0.003623768028
0.002561712253
0.002822588657
0.003159160169
0.003574704642
0.003828163511
)


101
(
-7.215363377e-12
6.60041717e-08
7.978430138e-06
0.0001224487864
0.0008765129032
0.00390394045
0.01234819814
0.03182576858
0.06788408307
0.1257755808
0.20756713
0.3119171158
0.4312061804
0.5600208445
0.6847814793
0.7936310686
0.8793587336
0.9383558801
0.9647256495
0.9646731354
0.9406422222
0.8964457278
0.8392205156
0.7742148219
0.7051051126
0.6350502271
0.566444633
0.5010322847
0.4399296593
0.3836916747
0.3325102262
0.2865141075
0.2455724377
0.2092100398
0.1759890101
0.1450972151
0.1183928415
0.09718709983
0.08015788932
0.06477624226
0.04930397253
0.03364512682
0.0186193846
0.004791174518
-0.007644078297
-0.01865629246
-0.02833728823
-0.03680200319
-0.04417260963
-0.05051291122
-0.0558787194
-0.06028945755
-0.06373738704
-0.06624168289
-0.0678654071
-0.06866453369
-0.06868710882
-0.06793761672
-0.06649452267
-0.06440883981
-0.06174967385
-0.05857321895
-0.05496319979
-0.05099172113
-0.04672788325
-0.04223397172
-0.03755654085
-0.03277130894
-0.02798463489
-0.02323843807
-0.01861233425
-0.01411840483
-0.009825248081
-0.005784045974
-0.002054281465
0.001341704719
0.004394514739
0.007087927149
0.009389249071
0.01126593545
0.01268654689
0.0136718823
0.01428238505
0.01456031819
0.01454775525
0.0142839113
0.01381369483
0.01314267135
0.0122650239
0.01123984345
0.0101723113
0.009080582655
0.007997009679
0.006929365102
0.005915386298
0.004878621574
0.003696594566
0.004027437109
0.004419032808
0.004730568668
0.004586031394
)


101
(
-7.63555652e-12
3.917839443e-08
6.738665202e-06
0.0001083088209
0.000791079433
0.003555961976
0.01129785046
0.02918614044
0.06240565817
0.1158457199
0.1915953964
0.2885670033
0.4001021309
0.5209426935
0.6393644322
0.7442304659
0.8284008166
0.8882378844
0.9187776042
0.9239766388
0.9068554156
0.8706511035
0.8213676591
0.7640183378
0.7021720876
0.6388069334
0.5761263987
0.5157645265
0.4588594099
0.406011639
0.3574765582
0.3133543334
0.2735864263
0.2381946655
0.2058227913
0.1755965144
0.1482593733
0.1250898259
0.1059398559
0.0891872526
0.07303804023
0.05669874896
0.04051973439
0.02499019633
0.01039732252
-0.00308349437
-0.01542690175
-0.02663556113
-0.03682008973
-0.04604512255
-0.05436422564
-0.06174889939
-0.06814117574
-0.07348515511
-0.07781280432
-0.08115911613
-0.08356918726
-0.08503649862
-0.08558715886
-0.08527371854
-0.08416311279
-0.08228819444
-0.07974869903
-0.07662898221
-0.07298168298
-0.06889997086
-0.06443531417
-0.05963753304
-0.0546285769
-0.04945067838
-0.04421447443
-0.03894631794
-0.03370899535
-0.02853610132
-0.02352533199
-0.01874498954
-0.0142140501
-0.009975353307
-0.006053890145
-0.002495634289
0.000617247337
0.003263811089
0.005461387082
0.007244823421
0.008628508371
0.009645306533
0.01033984774
0.01071974175
0.01076052553
0.01048694635
0.01002468274
0.009422809368
0.008690069024
0.007886923895
0.007039835488
0.006089473177
0.004859912663
0.005006172613
0.004804886216
0.002536306372
-0.0005601607194
)


101
(
-7.775062894e-12
1.627765632e-08
5.630890452e-06
9.545565908e-05
0.0007127521128
0.003235772332
0.01033035927
0.02675654851
0.05736558495
0.1067271447
0.1769584791
0.2672316347
0.3717626383
0.4855300988
0.5983784001
0.6999487457
0.7832149909
0.8444758606
0.8794557123
0.8904495557
0.8805501292
0.8526092491
0.8117150729
0.762491753
0.70834733
0.6521514165
0.5959579138
0.5412546399
0.4891476987
0.4402662171
0.394927853
0.3532216253
0.3150543184
0.2808279568
0.2494115276
0.2199186078
0.1923602876
0.167706511
0.1464787861
0.1278452684
0.1102956895
0.09263437403
0.07479027974
0.05703868563
0.03971276399
0.02316938039
0.007589737616
-0.00685880979
-0.02021415891
-0.03248417399
-0.04377045451
-0.05398240312
-0.06311448388
-0.07105908763
-0.07779565304
-0.08338241959
-0.08792899246
-0.09146798932
-0.09400935418
-0.09563271234
-0.09640502227
-0.09633233357
-0.09552605045
-0.09406308516
-0.09200069677
-0.08942606003
-0.08642512482
-0.08294594214
-0.07911298562
-0.07491566596
-0.07044538145
-0.06578483052
-0.06094161113
-0.05590866196
-0.05072642829
-0.04551227893
-0.04030292953
-0.0351563452
-0.03006428288
-0.02508382373
-0.02034263861
-0.01595145738
-0.01191088635
-0.008211822251
-0.004905303994
-0.00199032785
0.0005425926976
0.002736496448
0.004437534676
0.005670245276
0.00651545424
0.007096994859
0.007305294711
0.007272849157
0.007025960871
0.006531589663
0.005608525546
0.003625398353
-1.824413117e-05
-0.01244892268
-0.02533642037
)


101
(
-7.674286976e-12
-3.065912011e-09
4.64466671e-06
8.379505541e-05
0.0006410201867
0.002941331859
0.009439394314
0.02451986321
0.05272548423
0.0983419756
0.1635166023
0.2476791944
0.3458408321
0.4532731587
0.5611570109
0.6599357584
0.7427465658
0.8058147918
0.8453720272
0.8624898262
0.8600414226
0.8405697729
0.8084170334
0.7677840599
0.7218406411
0.6733811492
0.6243810434
0.5761750097
0.5297684364
0.4857698702
0.4445456423
0.406196368
0.3705217296
0.3381075741
0.3080702799
0.2795827868
0.2521663154
0.2264031798
0.2031414493
0.1822009949
0.1625922538
0.1430688275
0.1233176905
0.1033770978
0.08356772723
0.06442395456
0.04628020453
0.0295185452
0.01415867094
0.0003123366466
-0.01217795619
-0.02341367083
-0.03351352895
-0.04236020532
-0.04999501523
-0.05652626733
-0.06214219476
-0.06705901204
-0.07126856374
-0.07494490511
-0.07813256014
-0.08076923239
-0.08302980359
-0.08485437988
-0.08627110544
-0.08729527383
-0.08804856988
-0.08849777051
-0.08865966153
-0.08848871945
-0.08782794105
-0.08678371889
-0.08521636714
-0.08317858099
-0.0806616495
-0.07765123713
-0.07417347699
-0.07029314744
-0.06597952751
-0.06123625128
-0.05615150634
-0.05091626873
-0.04564045785
-0.04028220982
-0.03497228356
-0.02975057848
-0.02478350337
-0.019864017
-0.01541444753
-0.01146197244
-0.007959000028
-0.00476556844
-0.002275305329
-0.0002705014779
0.001329683792
0.002409390195
0.003258206099
-0.006478492409
-0.01985603373
-0.05289773766
-0.08208415874
)


101
(
-7.370645631e-12
-1.919660813e-08
3.770181804e-06
7.323860777e-05
0.0005754069271
0.002670748433
0.008619127951
0.02246051107
0.04845098409
0.09062152386
0.1511480213
0.229710548
0.3220423199
0.4237451838
0.5271467796
0.6234930924
0.7061346953
0.7712325679
0.815393516
0.8387945395
0.8439414037
0.8330910443
0.8099484696
0.7783521889
0.7411696106
0.7011119613
0.6601199305
0.6193931701
0.5797868763
0.5418187502
0.5058521913
0.4720120521
0.4399820106
0.4103417973
0.3823105279
0.3552697621
0.328494813
0.3021905123
0.2773253659
0.2543226213
0.232888936
0.2121622794
0.1918438395
0.1717507527
0.1520444045
0.1333206923
0.1159385802
0.1004030606
0.08685923738
0.07539179289
0.06561851539
0.05721123142
0.04986104424
0.04339107447
0.03780034841
0.03287439131
0.02831136891
0.02355254514
0.01878967143
0.01365931671
0.00802774473
0.002196974857
-0.0041788447
-0.0108346156
-0.01771982438
-0.02474183064
-0.03193171313
-0.03941397913
-0.04708545996
-0.05477350966
-0.06211617078
-0.06910252006
-0.07556049519
-0.08134083866
-0.08640038948
-0.09062235792
-0.09394067285
-0.09624418973
-0.09743054715
-0.09755555333
-0.09654570034
-0.0944659372
-0.09143837161
-0.08752148941
-0.08271414745
-0.07713879266
-0.07119217454
-0.06452471805
-0.05764958987
-0.05081177576
-0.04396080409
-0.03715290991
-0.03096602174
-0.02540215472
-0.02008095067
-0.01532595915
-0.009518183472
-0.03484383598
-0.06269901487
-0.1034839901
-0.1077027748
)


101
(
-6.898657369e-12
-3.243624807e-08
2.998213014e-06
6.370323441e-05
0.0005154666976
0.002422266587
0.00786419341
0.02056429424
0.04451129241
0.08350538861
0.1397468883
0.2131544823
0.3001162728
0.3965876119
0.4958857415
0.5900429876
0.6726701553
0.7398873059
0.7885783717
0.8182798666
0.8310738537
0.8289485802
0.8150555516
0.7929050018
0.7650808409
0.7341672954
0.702069709
0.6698779809
0.6382746203
0.6076260704
0.5781965802
0.550087244
0.5229149347
0.4972450572
0.4722225618
0.4475491435
0.4225651768
0.3972556792
0.3726719863
0.3498242576
0.3291384692
0.3103482312
0.2934625891
0.2781015667
0.2640612592
0.2517740259
0.2413754705
0.2333758088
0.2278652916
0.2248087296
0.2236620439
0.2239254132
0.2249602289
0.2261807937
0.2273366994
0.2283656752
0.2290302694
0.2281450509
0.2261593919
0.2225325603
0.216813011
0.2095070918
0.2003702581
0.1895453398
0.1771223059
0.163347895
0.1488338475
0.1329074111
0.1158073058
0.09741340044
0.07838666521
0.05893629735
0.03960559238
0.02057820569
0.00190692348
-0.01639844628
-0.03394972213
-0.05020478721
-0.06491629798
-0.0782279359
-0.09001815156
-0.0998116538
-0.1075699164
-0.1132192693
-0.116873565
-0.1184967541
-0.1181693074
-0.1159817036
-0.1120470491
-0.1068012953
-0.1001340248
-0.0923850297
-0.08420152374
-0.07591422084
-0.06703406979
-0.05749742728
-0.0424920918
-0.07973790747
-0.09880912112
-0.03839455754
0.1539050578
)


101
(
-6.290029411e-12
-4.308502469e-08
2.320104567e-06
5.511088312e-05
0.0004607821685
0.002194254255
0.007169643512
0.01881827157
0.04087868739
0.07694007558
0.1292207055
0.1978634947
0.2798489512
0.3714985681
0.4669889228
0.5591100149
0.641772591
0.7110882151
0.7641532501
0.8000550133
0.8204545122
0.8270972061
0.8226582911
0.8103060089
0.7924349442
0.7714349105
0.7491212908
0.7265127247
0.7041354987
0.6821559895
0.6606529198
0.6396447474
0.6187473924
0.5986690943
0.5784501899
0.5581983279
0.5376173056
0.5167394774
0.4967213264
0.478989243
0.4645352176
0.4536276101
0.4467845592
0.4434726427
0.4430444
0.4455801751
0.4506297644
0.4584922979
0.4690873312
0.4823776426
0.4977040284
0.5145173937
0.5319460125
0.5488507132
0.5644752523
0.5794938491
0.5929724808
0.6036618411
0.6117429629
0.6171251781
0.6186193086
0.6165858516
0.6108848487
0.6015032019
0.5888010286
0.5726732797
0.5540864529
0.5329853165
0.5090574189
0.4817102128
0.451618641
0.418923724
0.3847070716
0.3493658116
0.3129724134
0.2750818738
0.2363750602
0.1980835572
0.1602014807
0.1232785565
0.08710889055
0.05253382889
0.02039950336
-0.008653907645
-0.0353836697
-0.05982813754
-0.08013686967
-0.0970075803
-0.1105112949
-0.1204199567
-0.1270832037
-0.1302786021
-0.13043267
-0.1280820053
-0.1230650717
-0.1147742743
-0.09198459731
-0.07683951756
0.03715497887
0.54781016
1.460547155
)


101
(
-5.573742338e-12
-5.142250764e-08
1.727742148e-06
4.738832395e-05
0.0004109631091
0.001985194184
0.00653090698
0.01721061064
0.03752819463
0.07087802619
0.1194882989
0.1837100174
0.2610582887
0.3482240902
0.4401354451
0.5303035506
0.6129706199
0.6842747403
0.7414883048
0.7833945866
0.8112538476
0.8266095527
0.8317332271
0.829424186
0.8219561697
0.8115313363
0.7998590927
0.7878779477
0.7759758521
0.7640966515
0.7521101043
0.7399660643
0.7273697164
0.7153595947
0.7030109441
0.6909094083
0.6793028409
0.6684807064
0.6597050658
0.6545230028
0.6542080779
0.6593173942
0.6709412381
0.6885753242
0.7111923172
0.7384501076
0.769084361
0.8030025362
0.8398601163
0.8797808722
0.9219794549
0.9660594022
1.01114264
1.055596865
1.098222147
1.139756464
1.179201811
1.214703649
1.246628855
1.27497285
1.298169088
1.315889848
1.328042592
1.334106847
1.33438076
1.329498451
1.319278826
1.304531576
1.285279484
1.259504784
1.228166721
1.190669644
1.147710062
1.10065845
1.049874022
0.9945303539
0.9342606211
0.8707934649
0.8050561441
0.737152604
0.6667525483
0.5951509189
0.5240717384
0.4548985145
0.3872094621
0.318652262
0.2537505113
0.1941613139
0.1386406672
0.08749197462
0.0405936436
0.0006886140176
-0.03298687323
-0.06051601158
-0.08112320841
-0.09537080823
-0.08039472755
0.2122036987
0.8244766311
2.559436516
5.130299681
)


101
(
-4.776158184e-12
-5.770873178e-08
1.213518899e-06
4.046685788e-05
0.0003656445573
0.001793676303
0.00594376182
0.01573047468
0.03443728395
0.0652770272
0.1104782112
0.170583504
0.2435883612
0.3265491484
0.4150558392
0.5032999591
0.5858822783
0.6590041369
0.72008502
0.7677197029
0.802780065
0.8266576821
0.8413035392
0.8491715774
0.8524415597
0.8531291752
0.8528539087
0.8524842841
0.8523196955
0.8521081349
0.8515631599
0.8506624128
0.8493277347
0.8490802555
0.8491663438
0.8506744315
0.8544172549
0.8609983128
0.8717440034
0.8881604162
0.9114503478
0.9421464588
0.9818337329
1.030253763
1.08622552
1.14919138
1.21717139
1.289534977
1.365582614
1.445719046
1.528606777
1.614366195
1.702825692
1.791660337
1.879190552
1.965771046
2.051570065
2.132859759
2.210909221
2.284935525
2.353994515
2.416001305
2.470976287
2.518212474
2.557983797
2.590078122
2.613801504
2.630867842
2.640480589
2.641823197
2.63415066
2.616415011
2.587033155
2.548274814
2.501221486
2.445026231
2.378617553
2.303184457
2.217847614
2.125025317
2.022480559
1.912699651
1.796404022
1.676591713
1.555452206
1.425628987
1.290868729
1.160843084
1.033355056
0.9077606358
0.7813368282
0.6654418956
0.5566364847
0.4578380276
0.3702583529
0.291141083
0.261268742
1.372151146
3.255722066
7.52790743
13.36497677
)


101
(
-3.92112033e-12
-6.218501357e-08
7.703158322e-07
3.428211727e-05
0.0003244851356
0.001618388835
0.005404313756
0.0143679467
0.0315854691
0.06009931038
0.1021275624
0.1583880047
0.2273060097
0.3062931562
0.3915268865
0.4778341266
0.5601982301
0.6349193053
0.6995428454
0.7525706037
0.7944817687
0.8265655534
0.850536089
0.8685713934
0.8827886687
0.8950109564
0.9067740782
0.9189040092
0.9317255004
0.9449429185
0.9582423945
0.9717111416
0.9855798463
1.001978754
1.020355622
1.042226733
1.068861703
1.101154762
1.140507379
1.188343141
1.24554694
1.312380293
1.390774519
1.480798563
1.581408978
1.69228263
1.81109962
1.9366716
2.067920853
2.20536944
2.347105313
2.493864935
2.646617356
2.802407899
2.959455738
3.117685401
3.277871124
3.435412973
3.590801974
3.743847781
3.894235143
4.037964994
4.173786971
4.302427739
4.423876728
4.53528786
4.637307832
4.729067834
4.813022837
4.886670663
4.948390795
4.997258068
5.028593302
5.043796498
5.043740254
5.027830049
4.997267441
4.948729119
4.88048985
4.795802748
4.688161968
4.56315615
4.421018991
4.26260591
4.092564942
3.903804863
3.69344315
3.474516508
3.253987164
3.029145205
2.783321609
2.552839875
2.314845157
2.094479253
1.885931896
1.684592645
1.546346889
4.449928678
8.856255085
17.43980106
28.8138503
)


101
(
-3.030045385e-12
-6.507473312e-08
3.914809666e-07
2.877380548e-05
0.0002871659432
0.001458111717
0.004908964852
0.01311393467
0.02895410071
0.05531096632
0.09438124296
0.1470397241
0.2120971417
0.2873051002
0.3693655167
0.4536935777
0.5356688042
0.6117250739
0.6795172955
0.7375101721
0.7858410783
0.8257248008
0.8587290322
0.8867830645
0.9120087121
0.9360813694
0.9604407316
0.9859140659
1.013010976
1.041629159
1.071635203
1.103279405
1.13705327
1.175770769
1.219018617
1.268640758
1.326205204
1.392849938
1.470147129
1.559447519
1.661384329
1.775655392
1.904411256
2.048155394
2.206290127
2.37897866
2.563940131
2.760095327
2.965704475
3.181254795
3.404914062
3.637539501
3.880929298
4.132612726
4.390869884
4.65503098
4.926410184
5.200189067
5.475459292
5.75248398
6.031006176
6.307854663
6.578866754
6.846679107
7.109898047
7.363374659
7.608258568
7.842857007
8.070915185
8.287711207
8.491996124
8.683328579
8.8530397
9.002769309
9.129663033
9.230154762
9.310805357
9.365508274
9.393758833
9.390073631
9.347424789
9.273043193
9.162986079
9.021093371
8.850604552
8.640651138
8.386093173
8.096443531
7.787793973
7.467142716
7.084217686
6.720972491
6.316808691
5.93137573
5.558944813
5.176533203
4.848416096
10.99433965
19.59792609
34.4097115
52.15445906
)


101
(
-2.12202846e-12
-6.658467211e-08
7.097156587e-08
2.388544843e-05
0.0002533890357
0.001311711307
0.004454388365
0.0119600941
0.02652613294
0.05088139344
0.0871905741
0.1364655763
0.1978635248
0.2694583774
0.348421301
0.4307097773
0.5120967598
0.5891826864
0.6597236824
0.7221628094
0.7764147252
0.8236142944
0.8652784345
0.9030764437
0.9392193635
0.9753544001
1.012816183
1.052496617
1.095266588
1.141439578
1.191248005
1.24519921
1.303958874
1.370949669
1.44581425
1.530672531
1.627249673
1.736842115
1.861342274
2.002222314
2.159830797
2.333436067
2.525446198
2.73650934
2.966597387
3.216876474
3.485723474
3.772612804
4.074692387
4.392971418
4.726193883
5.074980908
5.441217054
5.824330811
6.222056776
6.633306232
7.061547814
7.501340138
7.949931864
8.407652145
8.875729322
9.351287956
9.82929082
10.31233576
10.79541927
11.27826076
11.75576172
12.22599096
12.69424802
13.15460492
13.60834428
14.05103613
14.47418346
14.87752555
15.25450741
15.59565282
15.90435742
16.18871612
16.43675214
16.6419526
16.79370787
16.89102791
16.9248487
16.91148398
16.84296817
16.71096726
16.49948946
16.21598029
15.87292769
15.50644852
15.02393331
14.54553393
13.98813307
13.42530019
12.88035966
12.29475685
11.72408635
22.85172488
37.44841268
60.28099447
86.70368759
)


101
(
-1.213933136e-12
-6.690540516e-08
-1.97170801e-07
1.956427328e-05
0.0002228762286
0.001178133562
0.004037507449
0.010898763
0.02428587014
0.04678267504
0.08051230686
0.1266019277
0.1845207889
0.2526460629
0.3285690643
0.4087462328
0.4893297705
0.5671130192
0.6399576511
0.7062566162
0.7658733806
0.819833253
0.869679638
0.9168277877
0.9636287721
1.011891986
1.062928902
1.117744317
1.177697681
1.24367535
1.316366223
1.39664047
1.48536191
1.586391463
1.699336905
1.826651949
1.970139039
2.131094312
2.311748994
2.514005332
2.738295325
2.983720991
3.252666465
3.545971056
3.864253757
4.209953636
4.58250114
4.982334855
5.406259766
5.855551347
6.329569549
6.829401158
7.356649464
7.912531011
8.495295069
9.102654126
9.741143896
10.4047834
11.09108792
11.79869294
12.53045638
13.28419929
14.05710271
14.8489135
15.65255259
16.47184785
17.29453282
18.12105809
18.95517507
19.79502479
20.63799917
21.47651949
22.30557444
23.12105935
23.91254654
24.66816075
25.38593113
26.06828106
26.71209213
27.31067731
27.84657749
28.29547169
28.65749804
28.94560814
29.14740692
29.2528882
29.23333546
29.10101215
28.84262021
28.53946095
28.06840331
27.5439007
26.90279276
26.21497238
25.52988943
24.77426151
23.93953733
41.80104151
63.98916696
96.25995035
132.2998457
)


101
(
-3.205160847e-13
-6.621136926e-08
-4.18488206e-07
1.576098874e-05
0.0001953680007
0.001056397947
0.003655479211
0.009922901001
0.02221888402
0.04298910991
0.07430774173
0.1173934686
0.1719968907
0.236777361
0.3097013644
0.387681924
0.4672351472
0.5453645153
0.620054458
0.6896519403
0.7540409827
0.8141461305
0.8715511479
0.9275487975
0.9846184317
1.044933537
1.109942309
1.18080161
1.259426762
1.347351823
1.445740698
1.555905003
1.679050597
1.819319055
1.976197339
2.152573908
2.350384075
2.570798916
2.816361483
3.089700018
3.39160782
3.721322089
4.081494226
4.473126626
4.897359412
5.357947925
5.855624752
6.392476483
6.966305616
7.578032456
8.227438048
8.916473054
9.647068209
10.42204595
11.24100416
12.10203108
13.01211512
13.96550461
14.96325591
16.00220073
17.08183442
18.20779137
19.37632846
20.58564217
21.82859681
23.10968186
24.41473103
25.74279146
27.09718775
28.4787196
29.87811493
31.29477562
32.72051686
34.14538658
35.55894353
36.94746748
38.29232435
39.59596974
40.86379867
42.08752438
43.24154403
44.28472836
45.21471369
46.04167781
46.7291562
47.30169214
47.68490885
47.90425277
47.91200897
47.83758072
47.53857756
47.10647867
46.49454755
45.78625326
45.05530398
44.22915603
43.16479186
69.22977931
100.1737492
142.9089549
188.7875617
)


101
(
5.454608908e-13
-6.46624154e-08
-5.978127818e-07
1.242958377e-05
0.0001706221407
0.0009455922371
0.003305668462
0.009026019547
0.02031201694
0.03947741286
0.06854183015
0.1087914717
0.1602295247
0.2217761742
0.2917312488
0.3674237273
0.4457156205
0.5238298955
0.5998931939
0.6722466481
0.7408007737
0.8064209495
0.8706447341
0.9349001652
1.001737836
1.07385525
1.153069626
1.240746473
1.339324484
1.451006015
1.577445985
1.720407258
1.881565372
2.065446008
2.271394543
2.50272371
2.761648186
3.049212864
3.368130904
3.721848866
4.111997084
4.538399609
5.004294501
5.510992263
6.06001088
6.656241328
7.301930599
8.001412682
8.75445045
9.561790431
10.42341039
11.34282568
12.32239706
13.36582511
14.47536052
15.65163268
16.90111817
18.21870897
19.60805508
21.06610976
22.5904701
24.19244295
25.86793129
27.61567968
29.43199715
31.316167
33.25826917
35.25348596
37.3023404
39.40652062
41.55896856
43.76005359
45.99481056
48.25314105
50.52802133
52.7990174
55.03363936
57.22544502
59.37559944
61.48590946
63.53058713
65.45400664
67.22984366
68.86044502
70.31224091
71.60003952
72.64094658
73.45379823
73.95356744
74.31223398
74.37963571
74.20482286
73.80033702
73.21411894
72.582691
71.80834229
70.58997832
105.9543753
146.416273
200.4048609
257.1151225
)


101
(
1.373135495e-12
-6.240609475e-08
-7.394339669e-07
9.527204311e-06
0.00014841282
0.0008448674911
0.00298563066
0.008202131981
0.01855318547
0.0362263623
0.06318189532
0.1007533157
0.1491636051
0.2075762043
0.2745853438
0.3478976004
0.424700815
0.5024364201
0.5793878879
0.6539419114
0.7260354203
0.7965061953
0.8668129133
0.938657758
1.014680596
1.098165569
1.19156568
1.296594109
1.416079639
1.552828234
1.709056984
1.886985717
2.088741074
2.319539601
2.57876874
2.869997389
3.1959327
3.557648364
3.957853431
4.400913036
4.88957927
5.42468326
6.010467861
6.648937902
7.341907523
8.095255341
8.912858195
9.801439988
10.76265704
11.79886398
12.91088283
14.1031009
15.38013605
16.74392064
18.20040332
19.75375744
21.41230955
23.17077495
25.03594346
27.00538781
29.07876921
31.26553017
33.56622703
35.97992177
38.51243913
41.15099236
43.8934475
46.73120877
49.66127454
52.69006922
55.80933243
59.01060828
62.28046903
65.61190247
68.9974087
72.41360258
75.81635851
79.17981524
82.49056351
85.76457638
88.99247447
92.08605237
94.99978404
97.71867415
100.2119982
102.4912256
104.4562933
106.1174937
107.352985
108.3574179
109.0017662
109.2956112
109.2836455
108.9930199
108.6246158
108.0546541
106.7869084
152.2631228
202.8185417
268.8782253
337.0929046
)


101
(
2.153462978e-12
-5.959132597e-08
-8.480120594e-07
7.013920241e-06
0.000128529436
0.0007534334548
0.00269309228
0.007445725906
0.01693135798
0.03321666035
0.0581983083
0.09324074437
0.138751153
0.194119985
0.2582027478
0.3290465467
0.4041436643
0.4811428551
0.5584917836
0.6346714191
0.709667899
0.7843011352
0.8599820792
0.9387105631
1.023272593
1.117529612
1.224775415
1.347261309
1.488088649
1.65062593
1.837760316
2.052225331
2.296439549
2.576282967
2.891642059
3.246435012
3.644169609
4.086149146
4.574833074
5.115613681
5.712472517
6.367525564
7.086505905
7.872414193
8.72779583
9.659598561
10.67286807