/*--------------------------------*- C++ -*----------------------------------*\
| =========                 |                                                 |
| \\      /  F ield         | OpenFOAM: The Open Source CFD Toolbox           |
|  \\    /   O peration     | Version:  2.3.1                                 |
|   \\  /    A nd           | Web:      www.OpenFOAM.org                      |
|    \\/     M anipulation  |                                                 |
\*---------------------------------------------------------------------------*/
FoamFile
{
    version     2.0;
    format      ascii;
    class       dictionary;
    location    "constant";
    object      mmolm;
}
// * * * * * * * * * * * * * * * * * * * * * * * * * * * * * * * * * * * * * //

mmolm_table
101
(

101
(
0.0276166853
0.02757643364
0.02753715468
0.02749919943
0.02746289239
0.02742833895
0.0273955188
0.02736453086
0.02733528197
0.02730773353
0.02728182953
0.02725753486
0.02723477203
0.02721358007
0.02719387973
0.02717562797
0.02715881296
0.02714343917
0.02712931928
0.02711662349
0.02710511964
0.02709475456
0.02708560214
0.02707753362
0.02707047252
0.02706437298
0.02705918564
0.02705485631
0.02705136269
0.02704864961
0.0270466832
0.02704540999
0.0270447314
0.02704483279
0.02704550945
0.0270467649
0.02704855966
0.02705084311
0.0270536424
0.02705696992
0.02706078124
0.02706498035
0.02706962129
0.02707466489
0.02708006115
0.02708583799
0.02709194892
0.02709841024
0.02710518526
0.02711228109
0.02711966362
0.02712733051
0.02713526874
0.02714346441
0.02715190331
0.02716057539
0.0271694996
0.02717861935
0.02718796442
0.02719750251
0.02720723995
0.02721715956
0.02722725372
0.02723751918
0.02724794602
0.02725852979
0.02726926041
0.02728013165
0.02729114276
0.02730228073
0.0273135433
0.02732492439
0.0273364235
0.02734802572
0.02735972479
0.02737151408
0.02738340108
0.02739537507
0.02740742763
0.02741955386
0.02743174934
0.02744401622
0.02745634294
0.02746872878
0.02748116816
0.02749365685
0.0275061911
0.02751876752
0.02753138297
0.02754403427
0.02755671765
0.02756942993
0.02758216862
0.02759493087
0.02760771381
0.02762051561
0.02763332508
0.02763332508
0.02763332508
0.02763332508
0.02763332508
)


101
(
0.02761669926
0.02757682663
0.02753789673
0.02750027812
0.02746429361
0.02743004796
0.02739751776
0.02736679721
0.0273377937
0.02731046512
0.02728475396
0.02726062268
0.02723799455
0.02721690061
0.02719726737
0.0271790502
0.02716223422
0.027146821
0.02713264837
0.02711984209
0.02710822401
0.0270977239
0.02708838986
0.02708012864
0.02707286199
0.02706653917
0.0270611126
0.02705653166
0.02705276749
0.02704977478
0.02704751684
0.02704594753
0.02704498822
0.02704472504
0.02704507644
0.02704599892
0.02704746031
0.02704941897
0.02705187052
0.0270548236
0.02705825998
0.02706211937
0.02706639204
0.02707106824
0.02707611493
0.02708152323
0.02708727722
0.02709336737
0.02709978013
0.02710650442
0.02711352592
0.02712083001
0.02712840677
0.02713624477
0.02714433164
0.02715265555
0.02716121445
0.02716999791
0.02717899186
0.02718819241
0.027197589
0.02720717555
0.02721694234
0.02722688221
0.02723698909
0.02724725626
0.02725767748
0.02726824528
0.02727895426
0.02728979994
0.02730077471
0.02731187352
0.0273230913
0.02733442354
0.02734586239
0.02735740278
0.02736904064
0.02738077424
0.02739259754
0.02740450401
0.02741648914
0.02742854932
0.02744068187
0.02745288137
0.02746514584
0.02747747056
0.02748985167
0.0275022846
0.02751476686
0.02752729351
0.02753986572
0.02755247625
0.02756512258
0.02757780232
0.02759051143
0.02760320729
0.02761585808
0.02761531994
0.02761478147
0.02761424008
0.02761369871
)


101
(
0.02761671322
0.02757721987
0.02753863958
0.02750135799
0.02746569636
0.02743175882
0.02739951906
0.02736906678
0.02734030967
0.02731320252
0.02728768626
0.02726372115
0.02724123096
0.02722023984
0.02720067845
0.0271825015
0.0271656914
0.02715024692
0.02713602559
0.02712312228
0.02711139331
0.02710076468
0.02709126308
0.02708281567
0.02707534962
0.02706881136
0.02706315351
0.02705832808
0.02705430273
0.02705103715
0.02704849521
0.02704663521
0.02704539277
0.02704479936
0.02704482053
0.02704541382
0.02704654451
0.02704817702
0.02705029244
0.02705288875
0.02705595822
0.02705946629
0.02706338273
0.02706769688
0.02707238878
0.02707743803
0.02708283423
0.0270885621
0.02709461307
0.02710097292
0.0271076324
0.02711457616
0.02712179337
0.02712927394
0.02713700725
0.02714498172
0.02715318614
0.02716162263
0.02717027126
0.0271791303
0.02718818786
0.02719743902
0.02720687545
0.02721648869
0.02722627294
0.02723622155
0.0272463293
0.02725658935
0.0272669946
0.02727754234
0.02728822516
0.02729903787
0.02730997373
0.02732103006
0.02733220063
0.02734348158
0.02735486655
0.02736635374
0.02737793974
0.02738961812
0.02740138442
0.02741323347
0.02742516353
0.02743716955
0.02744925015
0.02746140112
0.0274736204
0.0274859023
0.02749824416
0.02751063922
0.02752309162
0.02753559144
0.02754813873
0.02756072855
0.02757335567
0.02758593622
0.02759841564
0.02759734103
0.02759626582
0.02759518501
0.02759410428
)


101
(
0.02761672718
0.02757761337
0.02753938324
0.02750243907
0.02746710067
0.02743347157
0.0274015227
0.02737133956
0.02734282988
0.02731594567
0.02729062635
0.02726683012
0.02724448107
0.02722359739
0.02720411262
0.02718598138
0.02716918382
0.02715371602
0.02713945083
0.02712646207
0.02711462764
0.02710387648
0.02709421943
0.02708559407
0.02707793515
0.02707118887
0.02706530762
0.0270602451
0.0270559673
0.02705243637
0.02704961776
0.02704747309
0.0270459481
0.0270450455
0.0270447438
0.0270450116
0.02704581472
0.02704712149
0.02704890706
0.02705115986
0.02705387342
0.02705702848
0.02706059284
0.02706455107
0.02706888833
0.02707358252
0.02707862332
0.02708399387
0.02708968631
0.02709568622
0.02710198593
0.02710857123
0.02711543098
0.02712255538
0.02712993499
0.0271375591
0.02714541311
0.0271535013
0.02716180469
0.02717032142
0.02717903966
0.02718795458
0.0271970587
0.0272063436
0.02721580323
0.02722543112
0.02723522247
0.02724517111
0.02725526966
0.02726551562
0.02727590204
0.02728642415
0.02729707479
0.02730785121
0.02731874804
0.02732976231
0.02734088782
0.02735212224
0.02736346346
0.02737490582
0.02738644526
0.02739807616
0.02740979646
0.02742160151
0.02743349038
0.02744545874
0.02745750619
0.02746962794
0.02748182138
0.02749407695
0.02750640152
0.02751878185
0.02753122056
0.02754371233
0.02755624801
0.02756870205
0.02758099695
0.02757938736
0.02757777694
0.02757615817
0.02757453959
)


101
(
0.02761674114
0.02757800712
0.02754012773
0.02750352135
0.02746850654
0.02743518623
0.02740352872
0.02737361554
0.0273453543
0.02731869453
0.02729357414
0.02726994944
0.02724774466
0.02722697288
0.02720756949
0.02718948936
0.0271727108
0.02715722739
0.0271429238
0.02712985985
0.02711792658
0.02710705889
0.02709725694
0.02708846269
0.02708061805
0.02707367103
0.02706757408
0.02706228203
0.02705776016
0.02705397176
0.02705088393
0.02704846099
0.02704665601
0.02704545785
0.02704484428
0.02704479238
0.02704527253
0.02704625554
0.02704771524
0.02704963384
0.02705200216
0.02705480823
0.02705802373
0.02706163098
0.02706561633
0.02706995841
0.0270746466
0.02707966357
0.0270850011
0.02709064492
0.02709658789
0.02710281698
0.02710932138
0.02711609139
0.02712311816
0.02713039184
0.02713789699
0.02714563751
0.02715359562
0.0271617696
0.02717014795
0.02717872587
0.02718749636
0.02719645132
0.02720558458
0.02721488976
0.02722436223
0.02723399636
0.02724378503
0.02725372577
0.02726381185
0.027274039
0.02728440014
0.02729489234
0.0273055106
0.02731625245
0.02732711239
0.02733808763
0.02734917696
0.02736037539
0.02737167987
0.0273830849
0.02739458781
0.02740618419
0.02741787335
0.02742965081
0.02744151732
0.02745346851
0.02746550409
0.02747761164
0.02748979965
0.02750205143
0.02751437135
0.02752675554
0.02753919003
0.02755150503
0.02756360193
0.02756145862
0.02755931429
0.02755715891
0.02755500387
)


101
(
0.0276167551
0.02757840113
0.02754087303
0.02750460487
0.02746991399
0.0274369028
0.02740553711
0.02737589474
0.02734788294
0.02732144905
0.02729652954
0.02727307895
0.02725102154
0.02723036594
0.02721104862
0.02719302493
0.02717627166
0.02716078013
0.02714644402
0.02713331417
0.02712128943
0.02711031142
0.02710037398
0.02709142012
0.0270833975
0.02707625707
0.02706995202
0.02706443804
0.02705968025
0.02705564243
0.02705229301
0.02704959855
0.02704751753
0.02704603341
0.02704511914
0.02704475591
0.02704491867
0.02704558134
0.02704671865
0.02704830967
0.02705034178
0.02705280531
0.02705567628
0.02705893708
0.02706257421
0.02706656737
0.0270709059
0.02707557255
0.02708055862
0.02708584991
0.02709143936
0.02709731483
0.02710346606
0.02710988362
0.02711655896
0.0271234829
0.02713064014
0.02713803385
0.02714564704
0.0271534781
0.02716151603
0.02716975617
0.02717819188
0.02718681545
0.0271956207
0.02720460135
0.02721375276
0.02722306965
0.02723254533
0.02724217752
0.0272519596
0.0272618877
0.02727195501
0.02728215845
0.02729249323
0.02730295734
0.02731354603
0.02732425609
0.02733508688
0.02734603389
0.02735709516
0.02736826618
0.02737954375
0.02739092352
0.02740240487
0.02741398298
0.02742565969
0.02743743068
0.02744929758
0.02746124745
0.02747328961
0.02748540329
0.02749759451
0.0275098598
0.02752218258
0.0275343455
0.02754623019
0.02754355427
0.02754087723
0.02753818685
0.02753549697
)


101
(
0.02761676905
0.02757879541
0.02754161917
0.02750568962
0.02747132305
0.02743862132
0.0274075479
0.02737817713
0.02735041577
0.02732420921
0.02729949248
0.0272762185
0.02725431149
0.02723377619
0.02721454961
0.02719658755
0.0271798657
0.02716437331
0.02715001091
0.02713682377
0.02712471527
0.02711363347
0.02710356916
0.02709446488
0.02708627244
0.02707894613
0.02707244051
0.0270667122
0.02706172649
0.02705744737
0.0270538442
0.02705088527
0.02704853315
0.02704677056
0.02704556555
0.02704490029
0.02704475282
0.0270451001
0.02704591894
0.02704718761
0.02704889083
0.02705101877
0.02705355058
0.02705646971
0.02705976283
0.02706341066
0.02706740272
0.02707172222
0.02707636013
0.0270813023
0.02708654146
0.02709206606
0.02709786643
0.02710393351
0.02711025905
0.02711683434
0.02712364465
0.02713069243
0.0271379613
0.02714544958
0.02715314677
0.02716104841
0.02716914821
0.02717743896
0.02718591458
0.02719456894
0.02720339728
0.02721239448
0.02722155424
0.02723087457
0.02724034905
0.02724997418
0.02725974343
0.02726965358
0.02727969999
0.02728988103
0.02730019285
0.02731063187
0.02732119789
0.02733188655
0.02734269678
0.02735362534
0.02736466922
0.0273758241
0.02738708933
0.02739845964
0.02740993763
0.0274215189
0.02743320651
0.02744498802
0.02745687415
0.02746883969
0.0274808918
0.02749302654
0.02750522634
0.02751722379
0.02752888138
0.02752567437
0.02752246605
0.02751924124
0.02751601704
)


101
(
0.02761678301
0.02757918994
0.02754236615
0.02750677563
0.02747273374
0.02744034181
0.02740956111
0.02738046274
0.0273529528
0.02732697494
0.02730246286
0.02727936794
0.0272576143
0.02723720329
0.027218072
0.02720017671
0.02718349223
0.02716800604
0.02715362376
0.02714038745
0.02712820309
0.02711702433
0.02710684122
0.02709759547
0.02708924163
0.02708173721
0.0270750386
0.02706910352
0.02706389775
0.02705938543
0.0270555365
0.02705232053
0.02704970305
0.02704766849
0.02704618134
0.02704522325
0.02704477373
0.02704481196
0.02704531715
0.02704626834
0.02704764882
0.02704944775
0.02705164627
0.02705422888
0.02705718263
0.02706048917
0.02706413823
0.0270681138
0.02707240675
0.02707700311
0.02708189528
0.02708707195
0.02709252389
0.02709824252
0.02710421992
0.02711044779
0.0271169121
0.02712361486
0.02713054013
0.02713768601
0.0271450424
0.027152605
0.02716036787
0.02716832433
0.02717646858
0.0271847948
0.02719329812
0.02720197336
0.02721081443
0.02721981967
0.02722898294
0.02723830118
0.02724776816
0.02725738054
0.02726713374
0.02727702641
0.02728705567
0.02729721776
0.02730751285
0.02731793652
0.02732848839
0.0273391663
0.02734996785
0.02736088916
0.02737192958
0.02738308334
0.02739435386
0.027405736
0.02741723426
0.02742883602
0.02744055555
0.02745236226
0.02746426441
0.02747625673
0.02748832148
0.0275001402
0.02751155506
0.02750781784
0.02750407886
0.02750031869
0.02749655906
)


101
(
0.02761679697
0.02757958474
0.02754311397
0.02750786291
0.02747414607
0.02744206428
0.02741157676
0.02738275154
0.027355494
0.02732974621
0.02730544059
0.02728252713
0.02726092975
0.02724064687
0.02722161535
0.02720379187
0.02718715057
0.02717167741
0.0271572818
0.02714400411
0.02713175178
0.02712048315
0.02711018902
0.02710081044
0.02709230372
0.02708462917
0.02707774523
0.02707161096
0.02706619289
0.02706145538
0.02705736877
0.02705390345
0.02705102704
0.02704872677
0.02704696499
0.02704572267
0.02704497958
0.02704471615
0.02704491364
0.02704555254
0.02704661584
0.02704809181
0.02704996288
0.02705221438
0.02705483372
0.02705780341
0.02706111337
0.02706474841
0.02706869955
0.02707295324
0.02707750165
0.02708233351
0.0270874397
0.02709281206
0.02709844306
0.02710432481
0.02711044408
0.02711680257
0.02712338489
0.02713018884
0.02713720455
0.02714442777
0.02715185288
0.02715947364
0.02716728468
0.02717528068
0.02718345682
0.02719180784
0.02720032763
0.02720901465
0.02721786308
0.02722687042
0.02723603081
0.02724534086
0.02725479602
0.02726439506
0.027274136
0.0272840151
0.02729403297
0.02730418505
0.02731447132
0.02732489071
0.02733544139
0.02734612033
0.02735692699
0.0273678551
0.02737890911
0.02739008267
0.02740138168
0.02741279257
0.02742433433
0.0274359713
0.02744771216
0.02745955032
0.02747146726
0.0274830932
0.02749425057
0.02748998261
0.02748571179
0.02748141144
0.02747711013
)


101
(
0.02761681093
0.02757997981
0.02754386264
0.02750895148
0.02747556006
0.02744378877
0.02741359486
0.02738504356
0.02735803938
0.02733252298
0.0273084256
0.02728569592
0.02726425763
0.02724410659
0.02722517922
0.02720743248
0.02719084004
0.02717538655
0.02716098419
0.02714767264
0.02713536023
0.027124009
0.02711361145
0.02710410838
0.02709545728
0.02708762074
0.02708055927
0.02707423341
0.02706861072
0.02706365595
0.02705933975
0.02705563302
0.02705250468
0.02704994506
0.02704791554
0.02704639679
0.02704536844
0.02704481125
0.0270447079
0.02704504041
0.02704579211
0.02704695084
0.02704850018
0.02705042599
0.02705271601
0.02705535359
0.02705832867
0.02706162688
0.02706523953
0.02706915364
0.02707336131
0.02707785138
0.02708261472
0.02708764325
0.02709292977
0.02709846686
0.02710424203
0.02711025692
0.02711649676
0.02712295915
0.02712963435
0.02713651803
0.02714360471
0.02715088853
0.0271583645
0.02716602798
0.02717387449
0.02718189882
0.02719009472
0.02719846048
0.02720699044
0.0272156827
0.02722453201
0.02723353499
0.02724268711
0.02725198718
0.02726143397
0.02727102376
0.02728075784
0.02729063157
0.02730064503
0.02731079793
0.02732108922
0.02733151687
0.02734208066
0.02735277364
0.02736360159
0.0273745571
0.02738564674
0.02739685604
0.02740820844
0.02741966449
0.02743123256
0.02744290468
0.02745466089
0.02746608025
0.02747696538
0.02747216348
0.02746735645
0.02746250624
0.02745764995
)


101
(
0.02761682489
0.02758037515
0.02754461218
0.02751004134
0.02747697574
0.0274455153
0.02741561543
0.02738733878
0.02736058891
0.02733530522
0.02731141781
0.02728887416
0.02726759774
0.02724758212
0.02722876318
0.02721109801
0.02719455996
0.02717913257
0.02716473006
0.02715139198
0.02713902726
0.02712760086
0.02711710739
0.02710748793
0.02709870082
0.02709071052
0.02708347943
0.02707696967
0.02707115002
0.02706598581
0.02706144806
0.02705750796
0.02705413518
0.02705132293
0.02704903233
0.02704724436
0.02704593852
0.02704509553
0.02704469884
0.02704473159
0.02704517767
0.02704602484
0.027047258
0.02704886348
0.02705082933
0.02705313968
0.02705578442
0.02705874981
0.0270620275
0.02706560518
0.02706947508
0.02707362623
0.02707804953
0.02708273687
0.02708768112
0.02709287519
0.02709830733
0.02710397923
0.02710987694
0.02711599793
0.02712233268
0.02712887668
0.02713562442
0.02714257027
0.02714970948
0.0271570381
0.02716455218
0.02717224691
0.027180116
0.02718815741
0.02719636535
0.02720473835
0.02721327179
0.02722196259
0.02723080634
0.02723980189
0.02724894855
0.0272582425
0.02726768577
0.02727727396
0.02728700721
0.02729688547
0.0273069086
0.02731707571
0.02732738732
0.02733783541
0.02734842715
0.02735915473
0.02737002469
0.02738102148
0.02739217255
0.02740343626
0.02741481984
0.02742631383
0.02743789623
0.02744909539
0.02745969386
0.02745435041
0.02744899823
0.02744358455
0.02743816604
)


101
(
0.02761683885
0.02758077076
0.02754536257
0.02751113252
0.02747839312
0.02744724388
0.02741763849
0.02738963721
0.02736314259
0.02733809288
0.02731441713
0.02729206172
0.02727094986
0.02725107314
0.02723236677
0.02721478793
0.02719830967
0.02718291463
0.0271685185
0.02715516106
0.02714275168
0.02713125761
0.0271206757
0.02711094775
0.02710203288
0.02709389703
0.02708650437
0.02707981849
0.02707380954
0.0270684436
0.02706369224
0.02705952686
0.02705591743
0.0270528597
0.02705031476
0.02704826439
0.02704668834
0.02704556723
0.02704488489
0.0270446251
0.0270447721
0.02704531369
0.02704623622
0.02704752669
0.02704917345
0.02705116147
0.02705348058
0.02705611752
0.02705906401
0.02706230856
0.02706584364
0.02706965869
0.02707374467
0.02707809341
0.02708269777
0.02708755067
0.02709264115
0.02709797076
0.02710352663
0.02710930624
0.02711530035
0.02712150437
0.0271279127
0.02713451971
0.02714132069
0.0271483122
0.02715549093
0.02716285272
0.0271703916
0.02717810527
0.02718598756
0.02719403708
0.02720224976
0.02721062293
0.02721915254
0.02722783754
0.02723667776
0.02724566912
0.02725481425
0.02726410907
0.02727355416
0.02728314945
0.02729289513
0.02730279185
0.02731284132
0.02732303456
0.02733337928
0.02734386812
0.0273545078
0.0273652807
0.02737621839
0.02738727748
0.0273984644
0.02740976767
0.02742116287
0.02743212792
0.02744242516
0.02743652895
0.02743061859
0.02742462279
0.02741861662
)


101
(
0.02761685281
0.02758116664
0.02754611384
0.02751222504
0.02747981222
0.02744897455
0.02741966407
0.02739193887
0.02736570041
0.02734088592
0.02731742349
0.02729525846
0.02727431379
0.02725457932
0.02723598958
0.02721850169
0.02720208849
0.02718673186
0.02717234859
0.02715897879
0.02714653231
0.02713497811
0.02712431524
0.02711448656
0.02710545201
0.02709717881
0.02708963263
0.02708277852
0.02707658795
0.02707102798
0.02706607082
0.02706168818
0.02705785007
0.02705455436
0.02705176209
0.0270494561
0.02704761672
0.02704622474
0.02704526433
0.0270447195
0.02704457447
0.02704481689
0.02704543457
0.02704641539
0.02704774817
0.02704941876
0.02705141696
0.02705372991
0.02705634935
0.02705926434
0.02706246769
0.02706594939
0.02706970063
0.02707371328
0.02707798008
0.02708249393
0.0270872443
0.02709223261
0.02709744698
0.02710288513
0.02710853827
0.02711440179
0.02712047003
0.02712673734
0.02713319881
0.0271398512
0.02714669173
0.02715371705
0.02716092182
0.02716830385
0.02717585652
0.02718357826
0.02719146525
0.02719951513
0.02720772436
0.0272160922
0.02722461912
0.0272333008
0.02724214006
0.02725113318
0.0272602815
0.02726958504
0.02727904368
0.02728865948
0.02729843575
0.02730836346
0.02731844996
0.02732868821
0.02733908604
0.02734962315
0.02736033459
0.02737117593
0.02738215308
0.02739325238
0.02740444636
0.02741516261
0.02742514367
0.02741867844
0.02741219293
0.0274055983
0.02739899321
)


101
(
0.02761686677
0.0275815628
0.027546866
0.0275133189
0.02748123308
0.02745070733
0.02742169218
0.02739424375
0.02736826236
0.02734368432
0.02732043682
0.02729846425
0.02727768934
0.02725810037
0.02723963117
0.02722223876
0.02720589576
0.02719058344
0.02717621938
0.0271628441
0.02715036794
0.02713876114
0.02712802481
0.02711810307
0.02710895678
0.02710055433
0.02709286273
0.02708584833
0.02707948391
0.02707373753
0.02706858229
0.02706399028
0.02705993149
0.02705640557
0.02705337332
0.02705081864
0.02704872267
0.02704706671
0.02704583546
0.02704501307
0.02704458336
0.02704453353
0.0270448526
0.02704552931
0.02704655325
0.02704791128
0.02704959328
0.02705158683
0.02705388347
0.02705647271
0.02705934768
0.02706249893
0.02706591797
0.02706959692
0.02707352845
0.02707770537
0.02708211735
0.02708676559
0.02709163899
0.02709673565
0.02710204736
0.02710756966
0.02711329691
0.02711922345
0.02712534412
0.02713165565
0.02713815543
0.02714484077
0.02715170731
0.02715875322
0.02716597181
0.02717336118
0.02718091746
0.02718863831
0.02719652066
0.02720456427
0.0272127704
0.02722113462
0.02722966001
0.02723834265
0.02724718481
0.02725618702
0.02726534876
0.02727467265
0.02728416372
0.02729381407
0.02730363059
0.02731360557
0.02732374854
0.02733403713
0.02734450867
0.027355118
0.02736587119
0.02737675178
0.02738772968
0.02739818141
0.02740782989
0.02740077859
0.02739370094
0.02738649499
0.02737927536
)


101
(
0.02761688073
0.02758195923
0.02754761904
0.02751441412
0.02748265571
0.02745244225
0.02742372287
0.02739655187
0.02737082845
0.02734648803
0.02732345704
0.02730167897
0.02728107632
0.02726163599
0.02724329115
0.02722599862
0.02720973083
0.02719446854
0.02718012994
0.0271667559
0.02715425734
0.02714260546
0.02713180317
0.02712179598
0.02711254576
0.02710402206
0.0270961931
0.02708902639
0.02708249595
0.02707657085
0.02707122516
0.02706643153
0.02706216001
0.02705841178
0.0270551472
0.02705235104
0.0270500053
0.02704809199
0.02704659672
0.02704550397
0.02704479703
0.02704446222
0.02704448936
0.02704486788
0.02704558827
0.0270466387
0.0270480092
0.02704968789
0.02705166616
0.02705393372
0.02705648384
0.0270593077
0.02706239721
0.02706574478
0.02706934323
0.02707318527
0.02707726069
0.02708157022
0.02708610346
0.02709085876
0.02709582861
0.02710100884
0.02710639401
0.02711197845
0.02711775683
0.02712372579
0.02712988249
0.0271362247
0.0271427488
0.0271494538
0.02715633337
0.02716338536
0.02717060571
0.02717799175
0.02718554063
0.02719325258
0.02720112981
0.02720916828
0.0272173712
0.02722573426
0.02723426037
0.0272429509
0.02725180517
0.02726082588
0.02727001936
0.02727937932
0.02728891305
0.02729861155
0.02730848545
0.02731851155
0.02732872863
0.02733909034
0.02734960456
0.02736025043
0.02737099595
0.02738116613
0.02739046506
0.02738281386
0.02737513143
0.02736730857
0.02735946281
)


101
(
0.02761689469
0.02758235595
0.02754837297
0.02751551073
0.02748408013
0.02745417934
0.02742575614
0.02739886324
0.02737339865
0.02734929704
0.02732648409
0.02730490249
0.02728447453
0.02726518588
0.02724696909
0.02722978075
0.02721359305
0.02719838636
0.02718407933
0.02717071313
0.0271581993
0.02714650979
0.02713564904
0.02712556396
0.02711621753
0.02710758045
0.0270996221
0.02709231109
0.02708562253
0.02707952645
0.02707399789
0.02706901029
0.02706453385
0.0270605712
0.02705708211
0.02705405199
0.02705146353
0.02704929956
0.02704754681
0.02704619053
0.02704521354
0.02704460118
0.02704434352
0.02704443027
0.0270448527
0.02704560052
0.02704666429
0.02704803268
0.02704969696
0.02705164708
0.02705387618
0.02705637589
0.02705913867
0.02706215727
0.02706542475
0.02706893392
0.02707267463
0.02707664694
0.02708084103
0.02708525531
0.027089883
0.02709472033
0.02709976217
0.02710500296
0.02711043729
0.02711606178
0.02712187321
0.02712786936
0.02713404714
0.02714040643
0.02714694161
0.02715365073
0.02716052959
0.02716757497
0.02717478386
0.02718215674
0.02718969675
0.02719740057
0.02720527185
0.02721330605
0.0272215059
0.02722987368
0.02723840935
0.02724711528
0.02725599828
0.02726505411
0.02727429147
0.02728369958
0.02729328959
0.02730303819
0.02731298548
0.02732308314
0.02733334191
0.0273437362
0.02735423163
0.02736410262
0.02737303396
0.02736477332
0.02735647963
0.02734804405
0.02733960047
)


101
(
0.02761690865
0.02758275296
0.02754912781
0.02751660873
0.02748550637
0.02745591861
0.02742779202
0.02740117787
0.02737597297
0.02735211129
0.0273295179
0.0273081347
0.02728788379
0.02726874976
0.02725066461
0.02723358461
0.02721748179
0.02720233609
0.0271880666
0.02717471471
0.02716219259
0.0271504728
0.02713956107
0.02712940563
0.02711997063
0.02711122793
0.02710314808
0.02709570073
0.02708886199
0.02708260272
0.02707689894
0.0270717249
0.02706705121
0.02706288195
0.02705917624
0.0270559199
0.02705309607
0.02705068828
0.02704868451
0.02704707116
0.02704583099
0.02704494837
0.02704441326
0.02704421514
0.0270443457
0.02704479621
0.02704555803
0.02704662065
0.02704797539
0.02704961232
0.02705152436
0.02705370346
0.02705614249
0.02705883462
0.02706177329
0.02706495151
0.02706835935
0.0270719961
0.02707585222
0.02707992607
0.02708421148
0.02708870516
0.0270934024
0.02709829786
0.02710338628
0.02710866405
0.02711412786
0.02711977521
0.02712560317
0.02713161226
0.02713779757
0.02714415796
0.02715068929
0.02715738795
0.02716425049
0.02717127707
0.02717847169
0.02718583151
0.02719336167
0.02720105736
0.02720892073
0.0272169546
0.02722515995
0.02723353921
0.02724209911
0.02725083655
0.0272597632
0.02726886667
0.02727815764
0.02728761307
0.02729727452
0.02730709129
0.0273170773
0.02732720256
0.0273374295
0.02734698222
0.02735552642
0.02734665556
0.02733775308
0.02732871453
0.02731967019
)


101
(
0.02761692261
0.02758315025
0.02754988357
0.02751770815
0.02748693446
0.02745766012
0.02742983056
0.02740349579
0.02737855141
0.02735493078
0.0273325584
0.02731137548
0.02729130393
0.02727232738
0.02725437731
0.02723740973
0.0272213964
0.02720631698
0.02719209086
0.02717875961
0.02716623603
0.02715449318
0.02714353788
0.02713331961
0.02712380364
0.02711496298
0.02710676939
0.02709919357
0.02709221258
0.02708579799
0.02707992667
0.02707457375
0.02706971033
0.02706534209
0.02706142759
0.02705795286
0.02705490126
0.0270522568
0.02705000867
0.02704814456
0.02704664767
0.02704550167
0.02704469645
0.02704422073
0.02704406606
0.02704422494
0.02704468979
0.02704545124
0.0270465008
0.02704782883
0.02704942794
0.02705129013
0.0270534086
0.02705577694
0.02705838899
0.02706123821
0.02706431491
0.02706761775
0.02707113728
0.02707487158
0.02707881486
0.02708296435
0.02708731578
0.02709186429
0.02709660474
0.02710153347
0.02710664715
0.02711194294
0.02711741782
0.02712307242
0.02712890272
0.02713490844
0.02714108586
0.02714743139
0.02715394124
0.02716061472
0.02716745592
0.02717446281
0.02718164203
0.02718898922
0.02719650606
0.02720419534
0.02721205828
0.02722009879
0.02722832319
0.02723672848
0.02724532973
0.02725411422
0.02726309112
0.02727223745
0.02728159683
0.02729111581
0.0273008116
0.02731064993
0.02732059009
0.02732980562
0.02733794365
0.02732846863
0.02731896671
0.02730933772
0.02729970902
)


101
(
0.02761693657
0.02758354783
0.02755064025
0.027518809
0.02748836441
0.02745940388
0.02743187177
0.027405817
0.02738113398
0.02735775548
0.02733560554
0.02731462472
0.02729473477
0.02727591846
0.02725810683
0.0272412556
0.02722533629
0.02721032825
0.02719615118
0.02718284676
0.02717032837
0.02715856956
0.02714757805
0.02713730443
0.02712771504
0.02711878404
0.02711048438
0.02710278785
0.02709567245
0.02708911043
0.02708307936
0.02707755513
0.02707250944
0.02706794968
0.02706383406
0.02706014877
0.02705687719
0.02705400351
0.02705151791
0.02704940941
0.027047662
0.02704625915
0.02704519081
0.02704444483
0.02704401201
0.02704388557
0.02704405877
0.02704452373
0.02704527252
0.02704629586
0.02704758618
0.02704913541
0.02705093678
0.0270529842
0.02705527196
0.02705779402
0.02706054127
0.02706351185
0.02706669623
0.02707009199
0.02707369371
0.0270774987
0.02708150339
0.02708570347
0.02709009397
0.02709467136
0.02709943223
0.02710437359
0.02710949219
0.02711478853
0.02712025919
0.0271259045
0.02713172153
0.02713770716
0.02714385759
0.02715017136
0.02715665215
0.02716329778
0.0271701164
0.02717710498
0.02718426541
0.02719159981
0.02719910894
0.02720679843
0.02721467543
0.02722273541
0.02723099672
0.02723944793
0.02724809629
0.02725691791
0.02726595948
0.02727516397
0.02728455241
0.02729408641
0.02730372147
0.02731258104
0.02732029445
0.02731022663
0.02730013861
0.02728993056
0.02727973124
)


101
(
0.02761695052
0.0275839457
0.02755139785
0.02751991131
0.02748979626
0.02746114992
0.02743391568
0.02740814152
0.02738372067
0.02736058536
0.02733865924
0.02731788231
0.02729817615
0.02727952274
0.02726185281
0.02724512174
0.02722930083
0.02721436915
0.02720024668
0.02718697509
0.0271744684
0.02716270057
0.02715168011
0.02714135856
0.0271317033
0.02712268954
0.02711429138
0.02710648179
0.02709923974
0.02709253812
0.02708635513
0.02708066726
0.02707544678
0.02707070285
0.02706639354
0.02706250539
0.02705902161
0.0270559264
0.02705321059
0.02705086435
0.0270488726
0.02704721905
0.02704589414
0.02704488498
0.02704418133
0.02704377637
0.02704366382
0.02704383727
0.02704428971
0.02704501259
0.02704599826
0.02704723853
0.02704872651
0.02705045619
0.02705242223
0.02705461908
0.02705703845
0.02705967823
0.02706252894
0.02706558752
0.02706884841
0.02707230901
0.02707596631
0.02707981667
0.02708385538
0.0270880792
0.02709248464
0.02709706869
0.02710182793
0.02710676261
0.02711186942
0.02711714919
0.02712259988
0.02712821887
0.02713400285
0.02713995018
0.02714606388
0.02715234081
0.02715879017
0.0271654104
0.02717220441
0.02717917401
0.02718631888
0.02719364577
0.02720116318
0.02720886598
0.02721677362
0.02722487737
0.0272331834
0.02724166534
0.02725037377
0.02725924804
0.02726831213
0.02727752488
0.02728683689
0.02729532293
0.02730259431
0.02729194605
0.02728128471
0.02727050461
0.02725973732
)


101
(
0.02761696448
0.02758434388
0.0275521564
0.02752101508
0.02749123003
0.02746289829
0.02743596233
0.02741046939
0.0273863115
0.02736342042
0.02734171947
0.02732114816
0.02730162791
0.02728314
0.02726561489
0.0272490077
0.02723328945
0.02721843897
0.02720437648
0.02719114359
0.02717865495
0.02716688487
0.02715584259
0.02714548048
0.02713576685
0.02712667787
0.02711818875
0.02711027362
0.02710291253
0.02709607908
0.027089752
0.02708390824
0.02707852051
0.02707359972
0.02706910401
0.02706502044
0.02706133218
0.0270580232
0.02705508472
0.02705250773
0.02705027798
0.02704837975
0.02704680441
0.02704553871
0.02704457138
0.0270438951
0.02704350329
0.02704339067
0.0270435514
0.02704397807
0.02704466318
0.02704559855
0.02704677696
0.02704819239
0.02704983956
0.02705171343
0.02705380656
0.02705611691
0.0270586353
0.02706135805
0.02706427918
0.02706739595
0.02707070563
0.02707420527
0.02707789053
0.02708175878