/*--------------------------------*- C++ -*----------------------------------*\
| =========                 |                                                 |
| \\      /  F ield         | OpenFOAM: The Open Source CFD Toolbox           |
|  \\    /   O peration     | Version:  2.3.1                                 |
|   \\  /    A nd           | Web:      www.OpenFOAM.org                      |
|    \\/     M anipulation  |                                                 |
\*---------------------------------------------------------------------------*/
FoamFile
{
    version     2.0;
    format      ascii;
    class       dictionary;
    location    "constant";
    object      O;
}
// * * * * * * * * * * * * * * * * * * * * * * * * * * * * * * * * * * * * * //

O_table
101
(

101
(
2.592486592e-09
1.784560057e-07
5.707204547e-07
1.052443155e-06
1.558580187e-06
2.05641487e-06
2.528039613e-06
2.959554424e-06
3.342984816e-06
3.671756213e-06
3.939853958e-06
4.142113695e-06
4.275675895e-06
4.333959565e-06
4.317853869e-06
4.229724432e-06
4.073997371e-06
3.859546933e-06
3.60448975e-06
3.318837929e-06
3.021369845e-06
2.723543433e-06
2.436380904e-06
2.166171787e-06
1.916383974e-06
1.688675123e-06
1.483182561e-06
1.2991402e-06
1.135934733e-06
9.917411963e-07
8.650638638e-07
7.537965041e-07
6.550856968e-07
5.715818948e-07
4.982620242e-07
4.348358698e-07
3.862668134e-07
3.490951539e-07
3.057895308e-07
2.686224672e-07
2.365021888e-07
2.080243796e-07
1.833377215e-07
1.617165881e-07
1.425611889e-07
1.258387076e-07
1.110441222e-07
9.810023824e-08
8.664193582e-08
7.657239133e-08
6.764285759e-08
5.974638977e-08
5.275520565e-08
4.656337389e-08
4.106128759e-08
3.615857937e-08
3.187148477e-08
2.801582002e-08
2.462739639e-08
2.160460408e-08
1.893309298e-08
1.656099282e-08
1.444996858e-08
1.25874925e-08
1.094002432e-08
9.478659062e-09
8.187423463e-09
7.048507861e-09
6.048486541e-09
5.167199941e-09
4.396673291e-09
3.721330247e-09
3.136263568e-09
2.631684482e-09
2.299851025e-09
1.982531711e-09
1.634326824e-09
1.338818235e-09
1.086451804e-09
8.711962238e-10
6.899360194e-10
5.417083577e-10
4.208709507e-10
3.541077082e-10
2.797120009e-10
2.072877192e-10
1.502753459e-10
1.058989363e-10
7.27409247e-11
5.83680781e-11
3.779330315e-11
2.254206288e-11
1.396768356e-11
8.350129626e-12
5.221309252e-12
1.895758728e-12
-6.445949291e-19
1.213304826e-37
1.199210445e-29
-1.986788834e-29
0
)


101
(
2.583190875e-09
1.756987801e-07
5.622380442e-07
1.037900721e-06
1.538356792e-06
2.03116502e-06
2.498673552e-06
2.927299417e-06
3.309317726e-06
3.638400577e-06
3.908866705e-06
4.115760291e-06
4.256274509e-06
4.324489317e-06
4.320485481e-06
4.246221078e-06
4.105580461e-06
3.906365957e-06
3.664118578e-06
3.390112488e-06
3.100360765e-06
2.807305026e-06
2.522041939e-06
2.251352306e-06
1.99937816e-06
1.768278196e-06
1.558619628e-06
1.369948285e-06
1.201713614e-06
1.052477468e-06
9.207939056e-07
8.047912521e-07
7.019218714e-07
6.131716611e-07
5.356750116e-07
4.682025899e-07
4.132624713e-07
3.701011431e-07
3.284409429e-07
2.89708668e-07
2.55452303e-07
2.251630866e-07
1.986529017e-07
1.754617478e-07
1.55024481e-07
1.370783225e-07
1.212480736e-07
1.073122877e-07
9.500166065e-08
8.41355329e-08
7.451533222e-08
6.598989714e-08
5.842862418e-08
5.171141908e-08
4.573882758e-08
4.0422054e-08
3.572167721e-08
3.153673341e-08
2.782224904e-08
2.451837896e-08
2.15818992e-08
1.897138977e-08
1.664630419e-08
1.457907785e-08
1.274370637e-08
1.111672628e-08
9.67244087e-09
8.391570793e-09
7.257614292e-09
6.256386922e-09
5.374247562e-09
4.596989838e-09
3.913230055e-09
3.311408465e-09
2.821937566e-09
2.420261881e-09
2.055505414e-09
1.724286419e-09
1.429884448e-09
1.172457167e-09
9.51560111e-10
7.643484345e-10
6.065033288e-10
4.847668132e-10
3.895429704e-10
3.073080844e-10
2.356659239e-10
1.759020641e-10
1.283671704e-10
9.351984119e-11
6.759288823e-11
4.745472856e-11
3.171702005e-11
2.072466284e-11
1.395287213e-11
8.538107802e-12
3.170189106e-12
3.670943682e-12
4.323337807e-12
6.243649728e-12
8.13998735e-12
)


101
(
2.573895158e-09
1.729523056e-07
5.537923284e-07
1.023419815e-06
1.518238035e-06
2.00609452e-06
2.469597808e-06
2.895479451e-06
3.276267424e-06
3.605872144e-06
3.878929683e-06
4.090679725e-06
4.23836648e-06
4.31664083e-06
4.324945693e-06
4.26478417e-06
4.13950776e-06
3.955938121e-06
3.727349695e-06
3.46556879e-06
3.184619073e-06
2.897215574e-06
2.614671582e-06
2.344164365e-06
2.090456255e-06
1.85624992e-06
1.642559945e-06
1.449274004e-06
1.275990027e-06
1.121556607e-06
9.846791104e-07
8.636840444e-07
7.562795801e-07
6.625584925e-07
5.804061665e-07
5.085630165e-07
4.481940986e-07
3.991128939e-07
3.556888974e-07
3.157305759e-07
2.795895654e-07
2.472825592e-07
2.187770748e-07
1.937340495e-07
1.716796061e-07
1.522816412e-07
1.351656147e-07
1.200517694e-07
1.066760351e-07
9.483341536e-08
8.432900366e-08
7.500114912e-08
6.671099545e-08
5.933147256e-08
5.275133556e-08
4.687797663e-08
4.164846323e-08
3.698532127e-08
3.283061275e-08
2.912254092e-08
2.581457278e-08
2.286051632e-08
2.021895731e-08
1.785938894e-08
1.575374498e-08
1.387587407e-08
1.219816976e-08
1.070008259e-08
9.364389104e-09
8.173293638e-09
7.114908497e-09
6.17317541e-09
5.338675568e-09
4.594197257e-09
3.943606251e-09
3.388204e-09
2.910058835e-09
2.491330795e-09
2.119013342e-09
1.78622008e-09
1.493105543e-09
1.238221896e-09
1.018030846e-09
8.307344755e-10
6.757747458e-10
5.484383851e-10
4.434705805e-10
3.526763477e-10
2.758831419e-10
2.140769679e-10
1.635818367e-10
1.24113706e-10
9.467936795e-11
7.042385314e-11
5.34602651e-11
3.807397199e-11
1.88776463e-11
2.630266006e-11
3.462937192e-11
5.052093462e-11
6.636804358e-11
)


101
(
2.56459944e-09
1.702166338e-07
5.453831679e-07
1.008999467e-06
1.498220535e-06
1.981195392e-06
2.440797155e-06
2.86406884e-06
3.24379432e-06
3.574114211e-06
3.849968588e-06
4.066779816e-06
4.221841498e-06
4.310298211e-06
4.331094913e-06
4.285264032e-06
4.175631248e-06
4.008112648e-06
3.793978159e-06
3.545095425e-06
3.27397908e-06
2.993198039e-06
2.714260047e-06
2.444681569e-06
2.189782445e-06
1.952833262e-06
1.735316979e-06
1.537486878e-06
1.359158236e-06
1.199421474e-06
1.057171782e-06
9.309415769e-07
8.186635343e-07
7.200157492e-07
6.330215537e-07
5.563381555e-07
4.909239635e-07
4.361559162e-07
3.89110008e-07
3.470837018e-07
3.090097188e-07
2.746339815e-07
2.440015065e-07
2.168826698e-07
1.929219224e-07
1.71812559e-07
1.531641176e-07
1.366685769e-07
1.220272674e-07
1.090238638e-07
9.744849027e-08
8.71393189e-08
7.794977966e-08
6.974538612e-08
6.240734663e-08
5.583857613e-08
4.995361277e-08
4.467863323e-08
3.995752865e-08
3.572225123e-08
3.19263436e-08
2.8519847e-08
2.545846309e-08
2.270748419e-08
2.023529404e-08
1.801293179e-08
1.601406216e-08
1.421354325e-08
1.259749584e-08
1.114399517e-08
9.838136778e-09
8.664017186e-09
7.612695307e-09
6.666886899e-09
5.817865398e-09
5.064389022e-09
4.402269424e-09
3.822425997e-09
3.312168439e-09
2.857886619e-09
2.451902178e-09
2.089998156e-09
1.770643726e-09
1.489991473e-09
1.24557623e-09
1.035851439e-09
8.598024404e-10
7.125321581e-10
5.836635661e-10
4.724735856e-10
3.789025499e-10
3.023520665e-10
2.441912338e-10
1.940559169e-10
1.552303166e-10
1.15926735e-10
6.177516883e-11
9.498557602e-11
1.311274529e-10
1.919406906e-10
2.542797744e-10
)


101
(
2.555303723e-09
1.674918231e-07
5.370104361e-07
9.946387419e-07
1.478301006e-06
1.956459858e-06
2.412256801e-06
2.83304279e-06
3.211860382e-06
3.54307248e-06
3.821912793e-06
4.043972942e-06
4.206596519e-06
4.305352533e-06
4.338804392e-06
4.307522104e-06
4.213810367e-06
4.062747045e-06
3.863824655e-06
3.628580453e-06
3.36830712e-06
3.095184265e-06
2.820823029e-06
2.55301128e-06
2.29757118e-06
2.058334508e-06
1.837274832e-06
1.635041564e-06
1.451718738e-06
1.286626798e-06
1.138854016e-06
1.007159984e-06
8.896820967e-07
7.859978821e-07
6.940798166e-07
6.127147425e-07
5.419392131e-07
4.81579012e-07
4.299793554e-07
3.847922343e-07
3.443082809e-07
3.076918797e-07
2.74813054e-07
2.454526671e-07
2.193429691e-07
1.962525896e-07
1.75807478e-07
1.57691032e-07
1.415692892e-07
1.272071988e-07
1.143715492e-07
1.028941213e-07
9.262445381e-08
8.342574654e-08
7.516786344e-08
6.774147628e-08
6.106452245e-08
5.504221502e-08
4.962251158e-08
4.472799393e-08
4.03162086e-08
3.63364039e-08
3.273997192e-08
2.949034852e-08
2.655039078e-08
2.38831524e-08
2.14647842e-08
1.927105166e-08
1.728470913e-08
1.548456396e-08
1.384753454e-08
1.2361227e-08
1.101477495e-08
9.794266505e-09
8.685044262e-09
7.679306651e-09
6.771530496e-09
5.961841733e-09
5.241378553e-09
4.599061438e-09
4.023744111e-09
3.503685321e-09
3.036400587e-09
2.61769939e-09
2.243384159e-09
1.911115807e-09
1.62025705e-09
1.372082807e-09
1.160512419e-09
9.71712231e-10
8.057316168e-10
6.626846571e-10
5.450388962e-10
4.511855192e-10
3.725081911e-10
2.890580428e-10
1.750447246e-10
2.702293182e-10
3.70738764e-10
5.195134111e-10
6.662741283e-10
)


101
(
2.546008004e-09
1.647779334e-07
5.286740183e-07
9.803367393e-07
1.458476256e-06
1.931880342e-06
2.383962365e-06
2.802377656e-06
3.180429765e-06
3.512696502e-06
3.794697741e-06
4.022182e-06
4.1925423e-06
4.301714375e-06
4.3479732e-06
4.331450654e-06
4.253941714e-06
4.119741371e-06
3.936759635e-06
3.715946691e-06
3.467529198e-06
3.203153332e-06
2.934421058e-06
2.669310622e-06
2.414084437e-06
2.173119399e-06
1.948890546e-06
1.742470869e-06
1.554259536e-06
1.383816522e-06
1.230443019e-06
1.093072199e-06
9.70087144e-07
8.611455219e-07
7.641152681e-07
6.778418293e-07
6.018345722e-07
5.359035229e-07
4.791926926e-07
4.299639432e-07
3.863739806e-07
3.471376579e-07
3.118108969e-07
2.80046296e-07
2.515797439e-07
2.262506339e-07
2.037357555e-07
1.837453482e-07
1.659198737e-07
1.499915945e-07
1.356979476e-07
1.228568955e-07
1.113144514e-07
1.009363214e-07
9.158775274e-08
8.314199808e-08
7.551241842e-08
6.859343837e-08
6.233549228e-08
5.66462854e-08
5.147980195e-08
4.679553995e-08
4.253480001e-08
3.86638217e-08
3.51432949e-08
3.192679881e-08
2.898465532e-08
2.629243888e-08
2.383100803e-08
2.158979566e-08
1.953275802e-08
1.764533848e-08
1.591428835e-08
1.433007461e-08
1.287754582e-08
1.154554384e-08
1.032558772e-08
9.213931801e-09
8.203428554e-09
7.29280271e-09
6.472754918e-09
5.731610629e-09
5.053962272e-09
4.438653699e-09
3.878470583e-09
3.372294111e-09
2.914255313e-09
2.50950073e-09
2.159715577e-09
1.85311189e-09
1.573885195e-09
1.329317305e-09
1.117964149e-09
9.4018293e-10
7.952113686e-10
6.369584069e-10
4.206351983e-10
6.103191128e-10
8.226660041e-10
1.223746253e-09
1.629578128e-09
)


101
(
2.536712288e-09
1.620750324e-07
5.203738197e-07
9.660926019e-07
1.43874319e-06
1.907449477e-06
2.355899857e-06
2.772050447e-06
3.149467748e-06
3.482937286e-06
3.76826056e-06
4.001332002e-06
4.179591997e-06
4.299295888e-06
4.358503705e-06
4.356943693e-06
4.295921098e-06
4.178994042e-06
4.012657355e-06
3.807105213e-06
3.571571816e-06
3.31707781e-06
3.055107496e-06
2.793734781e-06
2.539587702e-06
2.297564843e-06
2.070646089e-06
1.860344772e-06
1.66741606e-06
1.491682005e-06
1.332667687e-06
1.189485988e-06
1.060731474e-06
9.462684012e-07
8.4390486e-07
7.525038613e-07
6.712529017e-07
5.99782944e-07
5.376528844e-07
4.837081984e-07
4.362857979e-07
3.938823527e-07
3.557716433e-07
3.213844888e-07
2.903593333e-07
2.625556871e-07
2.3770086e-07
2.155648774e-07
1.957867947e-07
1.780678411e-07
1.621142863e-07
1.477127356e-07
1.347010502e-07
1.229475305e-07
1.123248725e-07
1.026878248e-07
9.393911937e-08
8.596335346e-08
7.870717138e-08
7.207463812e-08
6.60163463e-08
6.048779995e-08
5.542876844e-08
5.079965598e-08
4.65674981e-08
4.26823219e-08
3.910229433e-08
3.579925893e-08
3.275121697e-08
2.994951094e-08
2.736793332e-08
2.4982458e-08
2.277308831e-08
2.072794437e-08
1.88346136e-08
1.708292135e-08
1.546537763e-08
1.396885833e-08
1.258482506e-08
1.131596581e-08
1.015947865e-08
9.111343021e-09
8.145986634e-09
7.258513789e-09
6.442624319e-09
5.692691744e-09
5.001972593e-09
4.373772043e-09
3.817463477e-09
3.330863558e-09
2.882571474e-09
2.477739522e-09
2.125870009e-09
1.818279573e-09
1.56587382e-09
1.270681171e-09
8.858772541e-10
1.324405556e-09
1.805069726e-09
2.647588203e-09
3.477650697e-09
)


101
(
2.527416569e-09
1.593831921e-07
5.121097492e-07
9.519054905e-07
1.419098858e-06
1.883160427e-06
2.328056612e-06
2.742040515e-06
3.118941718e-06
3.453748256e-06
3.74254195e-06
3.98135194e-06
4.167664799e-06
4.298014377e-06
4.370306886e-06
4.383904102e-06
4.339647976e-06
4.24040457e-06
4.091397046e-06
3.901959407e-06
3.680359123e-06
3.436923412e-06
3.182916642e-06
2.926414273e-06
2.674320402e-06
2.432022155e-06
2.203004867e-06
1.989231305e-06
1.791841835e-06
1.61094802e-06
1.446316988e-06
1.297250895e-06
1.162528938e-06
1.042284653e-06
9.343374784e-07
8.375833317e-07
7.509977813e-07
6.739889318e-07
6.062767206e-07
5.471363177e-07
4.952207792e-07
4.490227363e-07
4.076658465e-07
3.703460753e-07
3.365314989e-07
3.060320146e-07
2.785833764e-07
2.540186815e-07
2.320108803e-07
2.122517087e-07
1.944142712e-07
1.782442231e-07
1.63565728e-07
1.502401538e-07
1.381426985e-07
1.271283681e-07
1.170924285e-07
1.07894238e-07
9.947879434e-08
9.17405605e-08
8.462969905e-08
7.810183711e-08
7.209528679e-08
6.656820548e-08
6.148375203e-08
5.679588094e-08
5.245146889e-08
4.841970076e-08
4.466797989e-08
4.11870396e-08
3.796106008e-08
3.496040386e-08
3.21631025e-08
2.954938584e-08
2.710813288e-08
2.482791467e-08
2.270774429e-08
2.073031819e-08
1.888158236e-08
1.715794991e-08
1.556019582e-08
1.409613282e-08
1.274770782e-08
1.149301383e-08
1.033160898e-08
9.252717707e-09
8.24575048e-09
7.310618307e-09
6.464242927e-09
5.710988656e-09
5.026017362e-09
4.384539711e-09
3.815691781e-09
3.315577009e-09
2.884922941e-09
2.397953544e-09
1.760987312e-09
2.651688121e-09
3.62994154e-09
5.367017751e-09
7.067554152e-09
)


101
(
2.518120854e-09
1.567024908e-07
5.03881742e-07
9.377746191e-07
1.399540439e-06
1.859006765e-06
2.300421175e-06
2.712329704e-06
3.088821342e-06
3.42508562e-06
3.71748601e-06
3.962176427e-06
4.156686973e-06
4.297795486e-06
4.383303169e-06
4.412245092e-06
4.38503008e-06
4.303876848e-06
4.172862488e-06
4.000406191e-06
3.79381039e-06
3.562649916e-06
3.317869883e-06
3.067466946e-06
2.818517483e-06
2.576846386e-06
2.346442084e-06
2.129722496e-06
1.928230767e-06
1.742392764e-06
1.572241733e-06
1.417286433e-06
1.276474502e-06
1.150229134e-06
1.036438478e-06
9.340771502e-07
8.419960791e-07
7.593959468e-07
6.860065238e-07
6.213497966e-07
5.644018639e-07
5.138028796e-07
4.686533386e-07
4.279835878e-07
3.910778152e-07
3.576395692e-07
3.273556407e-07
3.00095084e-07
2.755791556e-07
2.535102634e-07
2.335339092e-07
2.153738572e-07
1.988226238e-07
1.837121964e-07
1.699345788e-07
1.573491148e-07
1.458353621e-07
1.352378027e-07
1.254987183e-07
1.164964195e-07
1.081754177e-07
1.004891899e-07
9.336984652e-08
8.678646134e-08
8.06986155e-08
7.506610273e-08
6.982900466e-08
6.493948491e-08
6.035796649e-08
5.606139554e-08
5.20538929e-08
4.830442035e-08
4.480199234e-08
4.150868557e-08
3.840162439e-08
3.547420306e-08
3.272943254e-08
3.015351412e-08
2.772773471e-08
2.543743236e-08
2.328787882e-08
2.128714699e-08
1.943992042e-08
1.770596085e-08
1.608975548e-08
1.456817766e-08
1.314846717e-08
1.180055079e-08
1.056184695e-08
9.436326083e-09
8.40707617e-09
7.431473684e-09
6.559735355e-09
5.781535662e-09
5.088855095e-09
4.327430938e-09
3.287343283e-09
4.984069786e-09
6.859052337e-09
1.02803841e-08
1.371167787e-08
)


101
(
2.508825131e-09
1.540330084e-07
4.956897348e-07
9.236992433e-07
1.380065193e-06
1.834982148e-06
2.272982236e-06
2.682900497e-06
3.059077436e-06
3.396906723e-06
3.693037849e-06
3.943741166e-06
4.146586153e-06
4.29856573e-06
4.397414992e-06
4.441882493e-06
4.431976881e-06
4.369314936e-06
4.25693882e-06
4.102335745e-06
3.911836968e-06
3.694210943e-06
3.45997871e-06
3.217001034e-06
2.972416423e-06
2.732415053e-06
2.50146642e-06
2.282445978e-06
2.0773145e-06
1.886833933e-06
1.711328173e-06
1.550538645e-06
1.40358434e-06
1.271177966e-06
1.151293307e-06
1.043055938e-06
9.452825593e-07
8.57002871e-07
7.778726357e-07
7.075009613e-07
6.451042616e-07
5.89537412e-07
5.400218293e-07
4.95511678e-07
4.551404518e-07
4.184797728e-07
3.851121223e-07
3.549036542e-07
3.275976569e-07
3.029326898e-07
2.805554497e-07
2.601753864e-07
2.415388008e-07
2.244457536e-07
2.087800579e-07
1.944040684e-07
1.812168849e-07
1.690234002e-07
1.577842394e-07
1.473559617e-07
1.376617603e-07
1.286598083e-07
1.20270598e-07
1.124679955e-07
1.052125794e-07
9.846858032e-08
9.218511882e-08
8.629482363e-08
8.075030558e-08
7.551590517e-08
7.059397687e-08
6.596069418e-08
6.160266694e-08
5.749241351e-08
5.359640166e-08
4.989861446e-08
4.639459527e-08
4.308620597e-08
3.99604344e-08
3.697979501e-08
3.414393489e-08
3.148010871e-08
2.899461521e-08
2.666101077e-08
2.445335451e-08
2.235717544e-08
2.040243703e-08
1.852106851e-08
1.676240118e-08
1.513957912e-08
1.363509853e-08
1.221259972e-08
1.091471556e-08
9.740426544e-09
8.669075373e-09
7.502717982e-09
5.946682727e-09
9.024554921e-09
1.24387898e-08
1.869775357e-08
2.5327654e-08
)


101
(
2.499529416e-09
1.5137484e-07
4.875337057e-07
9.096787374e-07
1.360670677e-06
1.811080665e-06
2.245728775e-06
2.653735418e-06
3.02968319e-06
3.369173344e-06
3.669146318e-06
3.925983775e-06
4.137290377e-06
4.300250157e-06
4.412562824e-06
4.472729629e-06
4.480392712e-06
4.436614568e-06
4.343501414e-06
4.207618721e-06
4.034324915e-06
3.831539032e-06
3.609255763e-06
3.375122619e-06
3.136257346e-06
2.899120111e-06
2.66861425e-06
2.44806716e-06
2.239871327e-06
2.045149057e-06
1.864534856e-06
1.698023502e-06
1.544926273e-06
1.406267415e-06
1.280088822e-06
1.165716792e-06
1.062027133e-06
9.679382761e-07
8.829873262e-07
8.067690872e-07
7.386338337e-07
6.776326589e-07
6.23208433e-07
5.743347826e-07
5.300630897e-07
4.89848307e-07
4.531240078e-07
4.197029601e-07
3.893240568e-07
3.617767673e-07
3.367231654e-07
3.138721681e-07
2.929302249e-07
2.736547613e-07
2.558834195e-07
2.39511894e-07
2.244502887e-07
2.104738555e-07
1.975510542e-07
1.855279804e-07
1.743000283e-07
1.638155642e-07
1.540031012e-07
1.448197882e-07
1.362258159e-07
1.281900762e-07
1.206961638e-07
1.136559538e-07
1.070175235e-07
1.007137023e-07
9.474000994e-08
8.907567291e-08
8.372236879e-08
7.865355826e-08
7.383280002e-08
6.922449012e-08
6.482410463e-08
6.064378229e-08
5.666939498e-08
5.286245383e-08
4.920391918e-08
4.573288425e-08
4.245755315e-08
3.937787764e-08
3.643618943e-08
3.360209587e-08
3.095208927e-08
2.840069813e-08
2.597204934e-08
2.371412311e-08
2.157255942e-08
1.955344941e-08
1.768625469e-08
1.597388798e-08
1.439188158e-08
1.264736427e-08
1.034436945e-08
1.582853698e-08
2.186541732e-08
3.252465624e-08
4.318036788e-08
)


101
(
2.490233719e-09
1.487280784e-07
4.794136292e-07
8.957124739e-07
1.341354475e-06
1.787296479e-06
2.218649926e-06
2.624817322e-06
3.00061272e-06
3.341849488e-06
3.645762079e-06
3.908843579e-06
4.128728643e-06
4.302773723e-06
4.428667562e-06
4.504700941e-06
4.530181397e-06
4.505667777e-06
4.43242271e-06
4.316119724e-06
4.161147328e-06
3.974546527e-06
3.765695022e-06
3.541917727e-06
3.310261236e-06
3.077339879e-06
2.848414317e-06
2.627254312e-06
2.4166995e-06
2.218252986e-06
2.032879637e-06
1.860844856e-06
1.701672031e-06
1.556741285e-06
1.424137535e-06
1.303406854e-06
1.19355731e-06
1.093476423e-06
1.00259603e-06
9.204362319e-07
8.463796039e-07
7.796020943e-07
7.197949518e-07
6.660467688e-07
6.174027463e-07
5.732466779e-07
5.328545079e-07
4.959453323e-07
4.622212328e-07
4.315104951e-07
4.034953282e-07
3.779007054e-07
3.54413995e-07
3.32740983e-07
3.126696791e-07
2.941248056e-07
2.769796344e-07
2.61025686e-07
2.462199423e-07
2.324308617e-07
2.195165589e-07
2.073985752e-07
1.960056389e-07
1.852839597e-07
1.752027386e-07
1.657181739e-07
1.568251105e-07
1.484739544e-07
1.405928685e-07
1.330902704e-07
1.259426988e-07
1.191158057e-07
1.1261997e-07
1.064391787e-07
1.005437814e-07
9.488680304e-08
8.945852406e-08
8.427126717e-08
7.928945993e-08
7.450470671e-08
6.988451875e-08
6.545023333e-08
6.122927771e-08
5.724222105e-08
5.340863211e-08
4.966398957e-08
4.612893295e-08
4.275309358e-08
3.95039579e-08
3.641544961e-08
3.34584954e-08
3.06772604e-08
2.805865997e-08
2.56305764e-08
2.337972821e-08
2.088962015e-08
1.765241656e-08
2.685474337e-08
3.704364777e-08
5.467471638e-08
7.284143193e-08
)


101
(
2.480938069e-09
1.460928256e-07
4.713295093e-07
8.817998813e-07
1.322114253e-06
1.763623838e-06
2.191734804e-06
2.59612922e-06
2.971841626e-06
3.314900844e-06
3.622836839e-06
3.892261264e-06
4.120831325e-06
4.306061717e-06
4.445650374e-06
4.537711362e-06
4.581249466e-06
4.576367957e-06
4.523577044e-06
4.427701263e-06
4.292160147e-06
4.123108052e-06
3.929225663e-06
3.717393613e-06
3.494530025e-06
3.267313e-06
3.041282055e-06
2.820606197e-06
2.608570651e-06
2.407069892e-06
2.217420768e-06
2.040184522e-06
1.875114806e-06
1.723977075e-06
1.584894092e-06
1.457635332e-06
1.341386711e-06
1.235085793e-06
1.138121163e-06
1.049941413e-06
9.698560885e-07
8.970746919e-07
8.31504699e-07
7.724079158e-07
7.188995677e-07
6.703649885e-07
6.259590596e-07
5.852834742e-07
5.479539127e-07
5.13813937e-07
4.825578664e-07
4.539441075e-07
4.276616572e-07
4.033749835e-07
3.808258049e-07
3.599090924e-07
3.405009127e-07
3.22370847e-07
3.054998196e-07
2.897619439e-07
2.750079591e-07
2.611169673e-07
2.480108938e-07
2.356160441e-07
2.238968852e-07
2.128347136e-07
2.023940388e-07
1.925622869e-07
1.832889604e-07
1.744493122e-07
1.660126735e-07
1.579161093e-07
1.501450685e-07
1.427054859e-07
1.355831347e-07
1.287454964e-07
1.221611048e-07
1.158283918e-07
1.097180619e-07
1.038034185e-07
9.805914519e-08
9.250974885e-08
8.718000297e-08
8.209977694e-08
7.722472894e-08
7.241711939e-08
6.777983258e-08
6.337438227e-08
5.91285927e-08
5.502081168e-08
5.103519276e-08
4.730746299e-08
4.374686862e-08
4.038970583e-08
3.727074466e-08
3.383218644e-08
2.946090618e-08
4.453611567e-08
6.119862651e-08
8.888247793e-08
1.170024155e-07
)


101
(
2.471642419e-09
1.434691926e-07
4.63281369e-07
8.679404199e-07
1.302947749e-06
1.74005708e-06
2.164972262e-06
2.56765367e-06
2.943347881e-06
3.288297111e-06
3.600322775e-06
3.876178094e-06
4.113528794e-06
4.310035525e-06
4.463426499e-06
4.571670471e-06
4.633505241e-06
4.648620589e-06
4.616853316e-06
4.542234363e-06
4.427207432e-06
4.277055256e-06
4.099705197e-06
3.901491536e-06
3.68912185e-06
3.469242876e-06
3.247597152e-06
3.028695962e-06
2.816251675e-06
2.61254337e-06
2.41925628e-06
2.237279859e-06
2.066622874e-06
1.909455523e-06
1.763930739e-06
1.630044602e-06
1.507189822e-06
1.394429764e-06
1.291195056e-06
1.196899352e-06
1.110721865e-06
1.031809051e-06
9.602130055e-07
8.953684851e-07
8.365220655e-07
7.831441844e-07
7.343345807e-07
6.895904531e-07
6.484049022e-07
6.105993402e-07
5.758377264e-07
5.439305844e-07
5.146084039e-07
4.874921425e-07
4.622765668e-07
4.388035983e-07
4.169853608e-07
3.965167443e-07
3.774229598e-07
3.595676779e-07
3.428355708e-07
3.270415036e-07
3.120990205e-07
2.97925583e-07
2.844799437e-07
2.717186731e-07
2.596065157e-07
2.481625593e-07
2.373360854e-07
2.270440918e-07
2.172135997e-07
2.077686051e-07
1.986368623e-07
1.898282809e-07
1.813387873e-07
1.731642579e-07
1.653008203e-07
1.577329055e-07
1.503694095e-07
1.432045331e-07
1.361888393e-07
1.293817953e-07
1.22778969e-07
1.164216408e-07
1.103301823e-07
1.043169404e-07
9.837819295e-08
9.271071252e-08
8.725489042e-08
8.195722374e-08
7.67077504e-08
7.181215915e-08
6.70553188e-08
6.257418025e-08
5.834372317e-08
5.37424638e-08
4.804938955e-08
7.180749817e-08
9.803423492e-08
1.396267674e-07
1.825450334e-07
)


101
(
2.462346762e-09
1.408572938e-07
4.552692421e-07
8.541335733e-07
1.283852732e-06
1.716590652e-06
2.138351354e-06
2.539373294e-06
2.915109735e-06
3.262009881e-06
3.578173787e-06
3.86053672e-06
4.106753293e-06
4.314617756e-06
4.48191174e-06
4.606487261e-06
4.686855229e-06
4.722331126e-06
4.712141593e-06
4.659598119e-06
4.566141158e-06
4.436219252e-06
4.276973841e-06
4.094118212e-06
3.894060747e-06
3.683309198e-06
3.46771855e-06
3.25206951e-06
3.04047359e-06
2.835591972e-06
2.639488888e-06
2.453395166e-06
2.277593402e-06
2.114695681e-06
1.962882932e-06
1.822377146e-06
1.692789495e-06
1.573364726e-06
1.463665608e-06
1.363129948e-06
1.270809074e-06
1.185715038e-06
1.107954851e-06
1.037074606e-06
9.724798307e-07
9.138071404e-07
8.601740497e-07
8.110195798e-07
7.657169693e-07
7.24011134e-07
6.855094e-07
6.500687362e-07
6.174779045e-07
5.873245574e-07
5.592782189e-07
5.331230899e-07
5.087646088e-07
4.85850926e-07
4.643869444e-07
4.442767639e-07
4.254450988e-07
4.076579575e-07
3.90781385e-07
3.747603817e-07
3.595354663e-07
3.450007837e-07
3.311617017e-07
3.179949886e-07
3.055392888e-07
2.936925419e-07
2.823771956e-07
2.715215416e-07
2.609995331e-07
2.507894404e-07
2.408596735e-07
2.312205735e-07
2.21964163e-07
2.130504213e-07
2.043730623e-07
1.958864767e-07
1.874749397e-07
1.792593958e-07
1.712574799e-07
1.634723617e-07
1.55938297e-07
1.485540493e-07
1.411843677e-07
1.339939363e-07
1.270914122e-07
1.204251266e-07
1.136466388e-07
1.073748249e-07
1.010774085e-07
9.521381917e-08
8.96201328e-08
8.362388523e-08
7.625386145e-08
1.121311039e-07
1.516733516e-07
2.117758132e-07
2.766398709e-07
)


101
(
2.453051106e-09
1.382572563e-07
4.472931919e-07
8.403788812e-07
1.264827025e-06
1.693219015e-06
2.111861362e-06
2.511270785e-06
2.8871058e-06
3.236012374e-06
3.556349376e-06
3.845279281e-06
4.100437923e-06
4.319734552e-06
4.501027536e-06
4.642077133e-06
4.741202829e-06
4.797389719e-06
4.809305681e-06
4.779604204e-06
4.708750715e-06
4.600386293e-06
4.460856278e-06
4.295160914e-06
4.10933869e-06
3.909660986e-06
3.701978495e-06
3.491251974e-06
3.281955201e-06
3.077130946e-06
2.879239172e-06
2.689846947e-06
2.509498846e-06
2.341311797e-06
2.183495806e-06
2.036507093e-06
1.900171287e-06
1.773946251e-06
1.657607711e-06
1.550690374e-06
1.452172395e-06
1.360885473e-06
1.276919316e-06
1.199853288e-06
1.129221121e-06
1.064862205e-06
1.005989656e-06
9.520709414e-07
9.023651626e-07
8.565266645e-07
8.140990355e-07
7.749297317e-07
7.38853846e-07
7.054836244e-07
6.74465565e-07
6.45527556e-07
6.185508681e-07
5.931363018e-07
5.692364311e-07
5.467820156e-07
5.257326236e-07
5.058985348e-07
4.870638772e-07
4.691980954e-07
4.521900322e-07
4.358874407e-07
4.203023453e-07
4.054179523e-07
3.913130584e-07
3.778655794e-07
3.650267794e-07
3.527423291e-07
3.408347466e-07
3.292781014e-07
3.179528197e-07
3.068046981e-07
2.960367119e-07
2.856719033e-07
2.756665912e-07
2.658212641e-07
2.559813855e-07
2.46269359e-07
2.367107182e-07
2.273919149e-07
2.182818683e-07
2.093014872e-07
2.003273504e-07
1.914070106e-07
1.827323097e-07
1.744576728e-07
1.658600311e-07
1.579019772e-07
1.497863958e-07
1.421613009e-07
1.349181721e-07
1.271799257e-07
1.177287917e-07
1.700595924e-07
2.275136925e-07
3.113676307e-07
3.965647304e-07
)


101
(
2.443755463e-09
1.356692177e-07
4.393533074e-07
8.266759195e-07
1.245868542e-06
1.669936802e-06
2.085491822e-06
2.483328864e-06
2.859314762e-06
3.210279134e-06
3.534813111e-06
3.830348509e-06
4.094515844e-06
4.325314969e-06
4.520699267e-06
4.678361054e-06
4.796452607e-06
4.873674806e-06
4.908190483e-06
4.902030656e-06
4.854794204e-06
4.769310653e-06
4.651146391e-06
4.504471687e-06
4.334900685e-06
4.14839274e-06
3.950653657e-06
3.746725467e-06
3.541401216e-06
3.338087255e-06
3.139634946e-06
2.947955002e-06
2.763850227e-06
2.590980205e-06
2.427606216e-06
2.274434194e-06
2.131489145e-06
1.998439774e-06
1.875338218e-06
1.761908913e-06
1.657109748e-06
1.55962757e-06
1.469499921e-06
1.386227228e-06
1.309398978e-06
1.239068078e-06
1.174609178e-06
1.115597993e-06
1.06119719e-06
1.011009566e-06
9.645045046e-07
9.21470969e-07
8.817411503e-07
8.450155286e-07
8.10906024e-07
7.790882848e-07
7.49477655e-07
7.215831346e-07
6.952677362e-07
6.704543021e-07
6.471779221e-07
6.252896462e-07
6.045590086e-07
5.849291571e-07
5.661810847e-07
5.48259661e-07
5.310341055e-07
5.145034841e-07
4.987947122e-07
4.837897038e-07
4.694987366e-07
4.558238235e-07
4.426181602e-07
4.298283243e-07
4.172610995e-07
4.047432915e-07
3.924174669e-07
3.805883711e-07
3.691775801e-07
3.580069424e-07
3.46834133e-07
3.356067602e-07
3.243523171e-07
3.13394438e-07
3.025612706e-07
2.918165349e-07
2.810028541e-07
2.701619568e-07
2.59328938e-07
2.490936539e-07
2.384131589e-07
2.282738639e-07
2.180326324e-07
2.081618073e-07
1.988349866e-07
1.890156533e-07
1.771996199e-07
2.508503658e-07
3.314729507e-07
4.458930894e-07
5.643739507e-07
)


101
(
2.434459806e-09
1.3309331e-07
4.314498999e-07
8.130242296e-07
1.226975155e-06
1.646738706e-06
2.059232417e-06
2.455530201e-06
2.831713207e-06
3.184783385e-06
3.513531823e-06
3.81569009e-06
4.08892104e-06
4.331287875e-06
4.540850682e-06
4.715258644e-06
4.852510536e-06
4.951071173e-06
5.008656403e-06
5.026669555e-06
5.004037937e-06
4.942746716e-06
4.847608707e-06
4.72186e-06
4.570619921e-06
4.399493276e-06
4.213917585e-06
4.018895745e-06
3.81947513e-06
3.619383451e-06
3.421825065e-06
3.229068062e-06
3.042204267e-06
2.865449853e-06
2.6971432e-06
2.538272046e-06
2.389043304e-06
2.249306954e-06
2.119410504e-06
1.99935642e-06
1.888190743e-06
1.784515726e-06
1.688302262e-06
1.598911078e-06
1.515889679e-06
1.439453528e-06
1.369161107e-06
1.304771521e-06
1.245436038e-06
1.190726633e-06
1.140025209e-06
1.093049104e-06
1.049586348e-06
1.009415483e-06
9.721664065e-07
9.374502692e-07
9.052347666e-07
8.749293035e-07
8.463462978e-07
8.19305634e-07
7.938943985e-07
7.700277352e-07
7.475496309e-07
7.263208228e-07
7.060492334e-07
6.867322971e-07
6.680740953e-07
6.501281249e-07
6.330075593e-07
6.166898217e-07
6.01123183e-07
5.861994377e-07
5.718599825e-07
5.580168219e-07
5.444228033e-07
5.308308239e-07
5.172564663e-07
5.039561841e-07
4.911269161e-07
4.78688756e-07
4.663276688e-07
4.536265429e-07
4.407064654e-07
4.279733369e-07
4.15296106e-07
4.025907197e-07
3.896015452e-07
3.765952128e-07
3.63189344e-07
3.505074606e-07
3.374418914e-07
3.244778697e-07
3.115740581e-07
2.989317212e-07
2.868403105e-07
2.744595298e-07
2.597797896e-07
3.607307527e-07
4.709357692e-07
6.246433075e-07
7.854410006e-07
)


101
(
2.425164149e-09
1.305296855e-07
4.235828626e-07
7.99423451e-07
1.208144897e-06
1.623619671e-06
2.033073222e-06
2.427857902e-06
2.804274583e-06
3.159491809e-06