/*--------------------------------*- C++ -*----------------------------------*\
| =========                 |                                                 |
| \\      /  F ield         | OpenFOAM: The Open Source CFD Toolbox           |
|  \\    /   O peration     | Version:  2.3.1                                 |
|   \\  /    A nd           | Web:      www.OpenFOAM.org                      |
|    \\/     M anipulation  |                                                 |
\*---------------------------------------------------------------------------*/
FoamFile
{
    version     2.0;
    format      ascii;
    class       dictionary;
    location    "constant";
    object      PM15;
}
// * * * * * * * * * * * * * * * * * * * * * * * * * * * * * * * * * * * * * //

PM15_table
101
(

101
(
9.838830711e-12
1.37449446e-13
-1.294369777e-13
-1.987228199e-13
-1.846272843e-13
-9.270274541e-14
-2.093180601e-13
-1.704110663e-13
-1.939566043e-13
-1.974113853e-13
-2.190845131e-13
-1.870078376e-13
-2.663058692e-13
-2.325920181e-13
-2.189646156e-13
-2.347476854e-13
-2.654258884e-13
-1.628913391e-13
-2.819345233e-13
-1.90882056e-13
-1.624359536e-13
-2.190850882e-13
-1.885625598e-13
-1.595187923e-13
-1.466723882e-13
-1.353117614e-13
-1.215369922e-13
-1.173308246e-13
-1.056853789e-13
-9.723430506e-14
-8.525537543e-14
-6.148684077e-14
-9.439593719e-14
-6.905756203e-14
-5.632175047e-14
-4.880836562e-14
-3.853879213e-14
-3.420939066e-14
-3.617117505e-14
-3.159454494e-14
-2.021086002e-14
-1.781318013e-14
-1.39112438e-14
-8.560302215e-15
-5.964646409e-15
-2.74818986e-15
-6.755882131e-17
2.594660984e-15
5.214515491e-15
7.26692487e-15
9.173741594e-15
1.097493545e-14
1.237117301e-14
1.336098339e-14
1.425620094e-14
1.729112335e-14
1.631771824e-14
1.796642349e-14
1.824937041e-14
1.91258751e-14
1.934034561e-14
1.910866169e-14
1.949507634e-14
1.951612032e-14
1.963469283e-14
1.931335285e-14
1.889583364e-14
1.930436672e-14
1.872264304e-14
1.836954154e-14
1.819680571e-14
1.856173791e-14
1.714634266e-14
1.380160944e-14
1.33309881e-14
1.623252856e-14
1.594356755e-14
1.380859456e-14
1.218892995e-14
1.090332064e-14
1.081870036e-14
9.501924479e-15
7.348048981e-15
8.759525646e-15
8.755618414e-15
7.09380413e-15
5.867993711e-15
4.720394284e-15
2.411494191e-15
4.431499779e-15
3.728183439e-15
1.273654222e-15
1.28208051e-15
-2.445163992e-16
6.931302189e-16
8.736264903e-15
1.41279593e-14
1.87293735e-20
-1.177642754e-28
-3.491797904e-30
2.358380495e-28
)


101
(
9.696406173e-12
8.851790573e-14
-1.587320965e-13
-1.859511797e-13
-1.2576392e-13
5.410979134e-15
-6.570126178e-14
1.268072016e-15
3.407309364e-15
1.821959365e-14
1.137096766e-14
4.725095087e-14
-1.676773657e-14
1.285651563e-14
2.204140212e-14
6.049581918e-15
-2.392567937e-14
5.028771343e-14
-5.063436464e-14
1.096658035e-14
2.077576961e-14
-2.863282211e-14
-1.586434927e-14
-5.749815738e-15
-4.224378092e-15
-3.326785687e-15
-8.450210127e-16
-4.543299752e-15
-3.113965169e-15
-3.935319611e-15
-1.918846416e-15
7.913836331e-15
-1.656973633e-14
-5.214749855e-15
-3.660377965e-15
-1.714330013e-15
1.12396732e-15
5.484090262e-16
-3.313814214e-15
-3.708271343e-15
-4.12978332e-16
-1.18591341e-15
-6.416098542e-16
2.600037118e-16
-1.736838789e-17
1.576879565e-16
2.946073705e-17
2.738042283e-17
1.13816159e-16
5.179996411e-18
-3.205900196e-17
-1.354554959e-16
-3.100949193e-16
-5.903837418e-16
-8.670898405e-16
-1.985430014e-16
-1.164723956e-15
-6.494605542e-16
-1.22011833e-15
-1.040314389e-15
-1.378742127e-15
-1.671906713e-15
-1.805294352e-15
-2.052387461e-15
-2.148034295e-15
-2.416891542e-15
-2.625077222e-15
-2.516460387e-15
-2.725496927e-15
-2.680899349e-15
-2.694866158e-15
-2.480226928e-15
-3.013448244e-15
-4.218429314e-15
-4.561719395e-15
-3.719263431e-15
-3.436083589e-15
-3.33425757e-15
-3.568624831e-15
-3.912264432e-15
-3.771131928e-15
-4.045031902e-15
-4.561630237e-15
-4.172937009e-15
-4.076370436e-15
-3.782528643e-15
-3.711882848e-15
-3.903165804e-15
-4.549466821e-15
-4.251318378e-15
-4.51921928e-15
-4.521706654e-15
-4.768758596e-15
-5.393743588e-15
8.905371567e-16
2.33507947e-14
-1.592246404e-14
-8.687448326e-14
-9.759137936e-14
-1.073525093e-13
-1.100902192e-13
)


101
(
9.554267361e-12
5.809212973e-14
-1.681190233e-13
-1.896849118e-13
-1.281894351e-13
-2.801456316e-16
-6.177690668e-14
-3.914221955e-15
1.034465607e-15
1.399520223e-14
8.479231627e-15
3.874523643e-14
-1.341073463e-14
4.438784913e-15
1.515749924e-14
3.411688212e-15
-2.30951123e-14
3.160980797e-14
-3.580985586e-14
-4.406658419e-15
1.279923223e-14
-2.107355546e-14
-2.110676979e-14
-1.200018475e-14
-8.059799158e-15
-6.288394731e-15
-3.846471313e-15
-5.34234239e-15
-4.902540987e-15
-4.99580569e-15
-3.736581354e-15
3.15083989e-15
-9.361172012e-15
-8.547262116e-15
-5.537769665e-15
-3.376911868e-15
-8.217070813e-16
-1.790141723e-16
-2.389529223e-15
-3.820238534e-15
-2.346868297e-15
-1.874537122e-15
-1.609048814e-15
-9.697744784e-16
-8.896296139e-16
-8.859658233e-16
-1.036046322e-15
-1.169266064e-15
-1.270900862e-15
-1.401784772e-15
-1.574627894e-15
-1.780534004e-15
-2.043493442e-15
-2.387278588e-15
-2.781445953e-15
-2.80598889e-15
-3.169818521e-15
-3.3836254e-15
-3.693675989e-15
-3.94301077e-15
-4.234175489e-15
-4.617344399e-15
-4.968768294e-15
-5.325352828e-15
-5.644176658e-15
-5.96921973e-15
-6.302473707e-15
-6.502594083e-15
-6.702043387e-15
-6.856999073e-15
-6.976955378e-15
-7.058311126e-15
-7.423450228e-15
-8.306929417e-15
-9.128429649e-15
-9.204683604e-15
-8.898555971e-15
-8.651226059e-15
-8.675205193e-15
-8.910198929e-15
-9.01319816e-15
-9.187562727e-15
-9.62444395e-15
-9.912356853e-15
-1.000846105e-14
-9.84903774e-15
-9.597663342e-15
-9.60953877e-15
-1.013260067e-14
-1.059904558e-14
-1.092271062e-14
-1.11703202e-14
-1.158188639e-14
-1.253556473e-14
-1.566735813e-15
3.835777621e-14
-4.938837531e-14
-1.748741815e-13
-1.966029375e-13
-2.163968348e-13
-2.218572405e-13
)


101
(
9.412420808e-12
2.80676781e-14
-1.776172583e-13
-1.935319492e-13
-1.307025199e-13
-5.86973672e-15
-5.834090632e-14
-8.533947152e-15
-1.477073103e-15
9.988899857e-15
5.570231907e-15
3.098832081e-14
-1.128542403e-14
-2.341960868e-15
8.386935973e-15
3.121246155e-16
-2.270990644e-14
1.663629328e-14
-2.693349306e-14
-1.406648341e-14
4.194546561e-15
-1.697991112e-14
-2.352236508e-14
-1.733872289e-14
-1.220045383e-14
-9.364807716e-15
-6.692210572e-15
-6.632057397e-15
-6.334021877e-15
-6.056926514e-15
-5.106079079e-15
-2.848847514e-16
-5.887128618e-15
-8.728724354e-15
-7.017701473e-15
-4.797096427e-15
-2.385012628e-15
-1.042848215e-15
-1.946755941e-15
-3.396023394e-15
-3.142608134e-15
-2.494008956e-15
-2.141565738e-15
-1.658893741e-15
-1.415707672e-15
-1.411115082e-15
-1.555758109e-15
-1.764853439e-15
-1.970616479e-15
-2.179699683e-15
-2.420728302e-15
-2.70317015e-15
-3.03254018e-15
-3.422627353e-15
-3.874608565e-15
-4.211208321e-15
-4.5613385e-15
-4.958631557e-15
-5.353751503e-15
-5.766397162e-15
-6.174933138e-15
-6.636030082e-15
-7.120725181e-15
-7.606265874e-15
-8.077140588e-15
-8.530278496e-15
-8.980117164e-15
-9.375522997e-15
-9.712957382e-15
-1.001093625e-14
-1.027429345e-14
-1.057292096e-14
-1.105583712e-14
-1.188708241e-14
-1.281868151e-14
-1.334694608e-14
-1.3399518e-14
-1.332171418e-14
-1.336147854e-14
-1.350428897e-14
-1.360988929e-14
-1.384948007e-14
-1.436050696e-14
-1.48965226e-14
-1.531982823e-14
-1.55101155e-14
-1.536557855e-14
-1.521283583e-14
-1.556875254e-14
-1.632344157e-14
-1.717437074e-14
-1.778639028e-14
-1.862227034e-14
-1.990934387e-14
-3.915905652e-15
4.784921844e-14
-8.419748433e-14
-2.631598744e-13
-2.95737051e-13
-3.254502102e-13
-3.336750459e-13
)


101
(
9.270873078e-12
-1.550796611e-15
-1.872172756e-13
-1.974877339e-13
-1.332998564e-13
-1.136607207e-14
-5.536964313e-14
-1.265318939e-14
-4.086221572e-15
6.160464618e-15
2.646386378e-15
2.388122782e-14
-1.018979921e-14
-7.85988335e-15
1.897844222e-15
-3.167518341e-15
-2.279164109e-14
4.623663995e-15
-2.226021459e-14
-2.019193941e-14
-3.955505457e-15
-1.557798973e-14
-2.452342336e-14
-2.148395302e-14
-1.626173776e-14
-1.253071718e-14
-9.435867119e-15
-8.208605563e-15
-7.621786224e-15
-7.048076727e-15
-6.169624898e-15
-2.72356402e-15
-4.418454848e-15
-7.825364374e-15
-7.519146255e-15
-5.783396567e-15
-3.595583187e-15
-1.856680861e-15
-1.785003687e-15
-2.805604719e-15
-3.144733951e-15
-2.701333903e-15
-2.3105011e-15
-1.877936538e-15
-1.554799395e-15
-1.495912482e-15
-1.601729112e-15
-1.831349762e-15
-2.090428526e-15
-2.365276421e-15
-2.6614911e-15
-2.998495281e-15
-3.381954387e-15
-3.816451052e-15
-4.307317753e-15
-4.789083924e-15
-5.24112301e-15
-5.746100357e-15
-6.250448361e-15
-6.791406712e-15
-7.334016681e-15
-7.907972034e-15
-8.511427038e-15
-9.128916846e-15
-9.748954742e-15
-1.03604306e-14
-1.096586062e-14
-1.154319785e-14
-1.205894825e-14
-1.252689611e-14
-1.296301948e-14
-1.346631653e-14
-1.416034023e-14
-1.513200537e-14
-1.619193704e-14
-1.697944551e-14
-1.739604782e-14
-1.768093954e-14
-1.797501999e-14
-1.820253733e-14
-1.830259487e-14
-1.859999153e-14
-1.926089711e-14
-2.001199811e-14
-2.071577092e-14
-2.129470075e-14
-2.156219172e-14
-2.155729656e-14
-2.185476553e-14
-2.275795335e-14
-2.403582584e-14
-2.536892554e-14
-2.655553237e-14
-2.847016325e-14
-4.546251114e-15
5.405097618e-14
-1.209116306e-13
-3.510866585e-13
-3.943274151e-13
-4.336990006e-13
-4.446146748e-13
)


101
(
9.129630941e-12
-3.076146177e-14
-1.969081109e-13
-2.015479515e-13
-1.359805644e-13
-1.677543203e-14
-5.284067204e-14
-1.632885783e-14
-6.757526603e-15
2.480664486e-15
-2.886774656e-16
1.733797786e-14
-9.94986571e-15
-1.241745601e-14
-4.214906407e-15
-6.93619772e-15
-2.333953744e-14
-5.050241167e-15
-2.049779108e-14
-2.424389191e-14
-1.118357142e-14
-1.610430218e-14
-2.501508734e-14
-2.452934607e-14
-1.995922007e-14
-1.568761103e-14
-1.210243347e-14
-9.940020683e-15
-8.865097488e-15
-7.965055848e-15
-7.017142478e-15
-4.437135675e-15
-3.945209909e-15
-6.722233419e-15
-7.229834504e-15
-6.207526056e-15
-4.349607766e-15
-2.466638301e-15
-1.721846507e-15
-2.182882242e-15
-2.648100241e-15
-2.42171537e-15
-2.079738325e-15
-1.664295557e-15
-1.28753377e-15
-1.164884204e-15
-1.212237477e-15
-1.424776214e-15
-1.697570816e-15
-2.01147284e-15
-2.348815586e-15
-2.728786385e-15
-3.157709314e-15
-3.636857816e-15
-4.16836213e-15
-4.733576492e-15
-5.285014694e-15
-5.891020823e-15
-6.505637912e-15
-7.171447346e-15
-7.853303102e-15
-8.564662285e-15
-9.305766374e-15
-1.006723284e-14
-1.084678752e-14
-1.163709288e-14
-1.243136607e-14
-1.321108692e-14
-1.394301891e-14
-1.46295334e-14
-1.528745174e-14
-1.602525762e-14
-1.697690966e-14
-1.81970811e-14
-1.948338235e-14
-2.052529797e-14
-2.12699543e-14
-2.195113187e-14
-2.267015717e-14
-2.321793022e-14
-2.34676115e-14
-2.384847962e-14
-2.467550829e-14
-2.569647716e-14
-2.672883619e-14
-2.771744e-14
-2.850604345e-14
-2.889022832e-14
-2.938892995e-14
-3.03872499e-14
-3.214282898e-14
-3.422346343e-14
-3.614566152e-14
-3.896086183e-14
-1.137963584e-14
6.092260263e-14
-1.588533681e-13
-4.383189214e-13
-4.930156853e-13
-5.428514943e-13
-5.565608092e-13
)


101
(
8.988701697e-12
-5.954798622e-14
-2.066785879e-13
-2.057078643e-13
-1.387439388e-13
-2.210583429e-14
-5.073628077e-14
-1.961771881e-14
-9.46149754e-15
-1.071417495e-15
-3.231632693e-15
1.129053752e-14
-1.042004776e-14
-1.625705555e-14
-9.903394828e-15
-1.090584882e-14
-2.43281542e-14
-1.290004332e-14
-2.068271714e-14
-2.716416023e-14
-1.737409033e-14
-1.788558196e-14
-2.551416857e-14
-2.670528941e-14
-2.312304841e-14
-1.869226981e-14
-1.467047681e-14
-1.173144594e-14
-1.008714434e-14
-8.809454061e-15
-7.696626931e-15
-5.620476884e-15
-3.908970735e-15
-5.731525147e-15
-6.422632182e-15
-5.991604047e-15
-4.580736777e-15
-2.755809018e-15
-1.597451619e-15
-1.528277161e-15
-1.85015089e-15
-1.714408117e-15
-1.445241615e-15
-1.050637472e-15
-6.335183452e-16
-4.510401617e-16
-4.350336699e-16
-6.142416994e-16
-8.808324726e-16
-1.216586909e-15
-1.586827435e-15
-2.008387111e-15
-2.485060462e-15
-3.018212872e-15
-3.607963149e-15
-4.250625125e-15
-4.903007974e-15
-5.616857048e-15
-6.353429585e-15
-7.15593279e-15
-7.991877722e-15
-8.868176995e-15
-9.779741349e-15
-1.071352755e-14
-1.167464491e-14
-1.266309407e-14
-1.367580098e-14
-1.469277841e-14
-1.567724284e-14
-1.662565545e-14
-1.755049865e-14
-1.856484587e-14
-1.981349846e-14
-2.134840536e-14
-2.294856379e-14
-2.430247143e-14
-2.538265478e-14
-2.646529725e-14
-2.767144589e-14
-2.871429931e-14
-2.932120362e-14
-2.99054037e-14
-3.093259056e-14
-3.226612695e-14
-3.369682664e-14
-3.514976825e-14
-3.651897171e-14
-3.756455769e-14
-3.842435857e-14
-3.968150007e-14
-4.190831944e-14
-4.479897706e-14
-4.777683695e-14
-5.164946383e-14
-2.067982059e-14
6.458277137e-14
-1.989452361e-13
-5.259448598e-13
-5.913730955e-13
-6.509991792e-13
-6.674699461e-13
)


101
(
8.848091873e-12
-1.707896601e-12
-8.908753076e-13
-2.099621792e-13
-1.415886685e-13
-2.736534455e-14
-4.904222693e-14
-2.257728413e-14
-1.21754357e-14
-4.515271781e-15
-6.183144123e-15
5.670515914e-15
-1.147876026e-14
-1.957500592e-14
-1.514943539e-14
-1.498889927e-14
-2.571959059e-14
-1.933638777e-14
-2.212135668e-14
-2.951357303e-14
-2.258779187e-14
-2.041035525e-14
-2.62592585e-14
-2.827099486e-14
-2.570292506e-14
-2.142690952e-14
-1.710045857e-14
-1.351672728e-14
-1.128280877e-14
-9.583094572e-15
-8.237962571e-15
-6.416660349e-15
-4.015256583e-15
-4.917895604e-15
-5.355350991e-15
-5.249469636e-15
-4.266437557e-15
-2.631024305e-15
-1.281601664e-15
-8.003661971e-16
-8.639833377e-16
-6.876768443e-16
-4.609918867e-16
-9.31767123e-17
3.445258844e-16
5.685630429e-16
6.339281873e-16
4.78273711e-16
2.109822474e-16
-1.533211583e-16
-5.697480025e-16
-1.048921934e-15
-1.592561349e-15
-2.205923203e-15
-2.887010412e-15
-3.632511549e-15
-4.407722344e-15
-5.251529276e-15
-6.134905986e-15
-7.095310041e-15
-8.105680385e-15
-9.173567838e-15
-1.028660308e-14
-1.142514538e-14
-1.259174508e-14
-1.379449967e-14
-1.504063133e-14
-1.631627891e-14
-1.757992854e-14
-1.882201866e-14
-2.004646557e-14
-2.136717628e-14
-2.293497546e-14
-2.481530441e-14
-2.678287085e-14
-2.850552711e-14
-2.995858745e-14
-3.144980387e-14
-3.315154283e-14
-3.477104671e-14
-3.591605903e-14
-3.68881038e-14
-3.820698552e-14
-3.988340116e-14
-4.177655421e-14
-4.376477981e-14
-4.575618893e-14
-4.759333755e-14
-4.908343111e-14
-5.081725703e-14
-5.353514106e-14
-5.730805951e-14
-6.157792966e-14
-6.66629792e-14
-2.535295128e-14
6.450932486e-14
-2.409189596e-13
-6.132894248e-13
-6.890257823e-13
-7.616792861e-13
-7.774852166e-13
)


101
(
8.707808909e-12
-1.737130025e-12
-9.015956326e-13
-2.143051482e-13
-1.44512956e-13
-3.256015384e-14
-4.774206447e-14
-2.525806224e-14
-1.48801886e-14
-7.866170359e-15
-9.141303496e-15
4.180265445e-16
-1.302144831e-14
-2.253363071e-14
-1.997126155e-14
-1.911199197e-14
-2.747363118e-14
-2.469909652e-14
-2.433024699e-14
-3.163438563e-14
-2.69807524e-14
-2.330863723e-14
-2.733291841e-14
-2.948451223e-14
-2.77497441e-14
-2.382183546e-14
-1.934457511e-14
-1.52424913e-14
-1.244032978e-14
-1.02896278e-14
-8.659764492e-15
-6.916395715e-15
-4.10402457e-15
-4.248652356e-15
-4.199650226e-15
-4.136579524e-15
-3.465954384e-15
-2.078964666e-15
-7.000771681e-16
5.14185792e-17
2.496072769e-16
5.453886619e-16
7.649299376e-16
1.096935899e-15
1.527435179e-15
1.760324995e-15
1.843529752e-15
1.682418267e-15
1.385314333e-15
9.627236316e-16
4.734145336e-16
-8.774621456e-17
-7.248488966e-16
-1.443096851e-15
-2.240309958e-15
-3.113227328e-15
-4.031780838e-15
-5.021926763e-15
-6.061183214e-15
-7.183343127e-15
-8.370798417e-15
-9.631292675e-15
-1.094918527e-14
-1.229963124e-14
-1.36762394e-14
-1.508896792e-14
-1.655478969e-14
-1.807700876e-14
-1.961647361e-14
-2.115549492e-14
-2.268543803e-14
-2.431371897e-14
-2.619895519e-14
-2.842344337e-14
-3.07718626e-14
-3.2895726e-14
-3.475802872e-14
-3.667443361e-14
-3.88669401e-14
-4.108767596e-14
-4.288381601e-14
-4.441445059e-14
-4.615420536e-14
-4.82228797e-14
-5.062912742e-14
-5.323562557e-14
-5.595318757e-14
-5.865620761e-14
-6.104790696e-14
-6.343402588e-14
-6.678459007e-14
-7.160037143e-14
-7.737389236e-14
-8.388577225e-14
-4.022741747e-14
5.764630029e-14
-2.842017904e-13
-7.016651389e-13
-7.864048699e-13
-8.761701192e-13
-8.842849093e-13
)


101
(
8.567860281e-12
-1.433014378e-13
-2.363536985e-13
-6.43568933e-13
-1.475146217e-13
-3.769530591e-14
-4.681575819e-14
-2.76997144e-14
-1.755983967e-14
-1.1136448e-14
-1.210478741e-14
-4.516092977e-15
-1.49548788e-14
-2.525086474e-14
-2.439795009e-14
-2.321213146e-14
-2.954002862e-14
-2.925749778e-14
-2.696379511e-14
-3.37074022e-14
-3.071683533e-14
-2.633151291e-14
-2.873355055e-14
-3.053912141e-14
-2.934794442e-14
-2.584217604e-14
-2.135831353e-14
-1.686343857e-14
-1.353567811e-14
-1.092239832e-14
-8.97417668e-15
-7.18804772e-15
-4.10382197e-15
-3.661096602e-15
-3.058304632e-15
-2.81768681e-15
-2.295016142e-15
-1.130511821e-15
1.724787667e-16
1.048004856e-15
1.444040183e-15
1.876755395e-15
2.105204132e-15
2.39459115e-15
2.787579597e-15
2.990107493e-15
3.054960618e-15
2.858640808e-15
2.505713093e-15
2.004273642e-15
1.427988504e-15
7.737713739e-16
3.989816573e-17
-7.799932779e-16
-1.687333357e-15
-2.676606096e-15
-3.722894141e-15
-4.839215425e-15
-6.007933402e-15
-7.260571111e-15
-8.588146382e-15
-9.999774667e-15
-1.148377171e-14
-1.301444338e-14
-1.457383994e-14
-1.616508309e-14
-1.780705496e-14
-1.9524846e-14
-2.129121173e-14
-2.309309054e-14
-2.490765136e-14
-2.682725695e-14
-2.900125274e-14
-2.225179091e-14
-3.423515569e-14
-3.676619141e-14
-3.905874807e-14
-4.140340105e-14
-4.407388055e-14
-4.688663371e-14
-4.937141375e-14
-5.157802357e-14
-5.386699427e-14
-5.640751809e-14
-5.937981453e-14
-6.267604927e-14
-6.619958449e-14
-6.984958721e-14
-7.333723895e-14
-7.661241293e-14
-8.084771925e-14
-8.680869166e-14
-9.422144125e-14
-1.025198555e-13
-5.698387533e-14
5.19081078e-14
-3.279133586e-13
-7.929796819e-13
-8.847308588e-13
-9.80117239e-13
-9.832595058e-13
)


101
(
8.428256296e-12
-1.703172129e-13
-2.463246879e-13
-6.478185034e-13
-1.505909769e-13
-4.277611839e-14
-4.624509596e-14
-2.993984487e-14
-2.02047829e-14
-1.433942096e-14
-1.507687381e-14
-9.176604299e-15
-1.720518422e-14
-2.780904562e-14
-2.846309687e-14
-2.724401404e-14
-3.186867357e-14
-3.321600244e-14
-2.980864002e-14
-3.579972708e-14
-3.39522088e-14
-2.93436571e-14
-3.041448305e-14
-3.157889533e-14
-3.062055222e-14
-2.750013544e-14
-2.311443914e-14
-1.834662488e-14
-1.455067174e-14
-1.147572804e-14
-9.182800473e-15
-7.272225858e-15
-3.977142277e-15
-3.101236302e-15
-1.966652429e-15
-1.414016832e-15
-8.840945785e-16
1.152803817e-16
1.286772171e-15
2.182339102e-15
2.693029354e-15
3.235026737e-15
3.479456685e-15
3.719184235e-15
4.053445823e-15
4.204403578e-15
4.23591555e-15
3.997857778e-15
3.595880422e-15
3.026778419e-15
2.380167915e-15
1.656020117e-15
8.575710671e-16
-2.379964255e-17
-9.925566569e-16
-2.043934152e-15
-3.163091286e-15
-4.348787124e-15
-5.588132489e-15
-6.906892921e-15
-8.306107564e-15
-9.796441388e-15
-1.137469287e-14
-1.302160557e-14
-1.470916206e-14
-1.642317163e-14
-1.818344867e-14
-2.002393529e-14
-2.19456878e-14
-2.395026458e-14
-2.60019687e-14
-2.816881575e-14
-3.058400525e-14
-2.401027492e-14
-2.715855015e-14
-3.928739551e-14
-4.198407789e-14
-4.474413052e-14
-4.787575323e-14
-5.122947923e-14
-5.436795579e-14
-5.73017684e-14
-6.023373448e-14
-6.329955263e-14
-6.688372656e-14
-7.091306618e-14
-7.527393766e-14
-7.990490083e-14
-8.455689549e-14
-8.901171404e-14
-9.427940316e-14
-1.014260412e-13
-1.10652476e-13
-1.211098241e-13
-7.035434604e-14
4.51322129e-14
-3.699642919e-13
-8.776326875e-13
-9.655946098e-13
-1.07270809e-12
-1.078752768e-12
)


101
(
8.289007783e-12
-1.968700867e-13
-2.563126512e-13
-2.277970966e-13
-1.537374852e-13
-4.780532863e-14
-4.6010699e-14
-3.201256323e-14
-2.280612315e-14
-1.74808238e-14
-1.805456811e-14
-1.360051652e-14
-1.971210904e-14
-3.027868528e-14
-3.221294331e-14
-3.117819868e-14
-3.44092539e-14
-3.675032459e-14
-3.272148485e-14
-3.794357805e-14
-3.68220961e-14
-3.224168951e-14
-3.229632749e-14
-3.268256006e-14
-3.167675456e-14
-2.882843038e-14
-2.459443821e-14
-1.966095407e-14
-1.546757503e-14
-1.194420804e-14
-9.286421467e-15
-7.196888678e-15
-3.720639867e-15
-2.52826134e-15
-9.294515419e-16
-1.406287348e-17
6.341273788e-16
1.555842049e-15
2.600809034e-15
3.440403363e-15
3.989762811e-15
4.615930137e-15
4.892061748e-15
5.092759699e-15
5.372779759e-15
5.473167752e-15
5.482862805e-15
5.235811654e-15
4.827374807e-15
4.238005255e-15
3.57129999e-15
2.832289128e-15
2.031191247e-15
1.156758524e-15
2.025798677e-16
-8.3282231e-16
-1.946463227e-15
-3.126077876e-15
-4.359578181e-15
-5.66702791e-15
-7.057465704e-15
-8.543770834e-15
-1.013248129e-14
-1.181197811e-14
-1.355667116e-14
-1.5334056e-14
-1.715393393e-14
-1.904556072e-14
-2.10413668e-14
-3.323681195e-14
-3.528805528e-14
-2.774151638e-14
-3.03583104e-14
-3.334847171e-14
-2.729527084e-14
-3.979261196e-14
-4.282926873e-14
-4.598705576e-14
-4.953230938e-14
-5.333582477e-14
-5.705531353e-14
-6.068983659e-14
-6.429445388e-14
-6.793209554e-14
-7.211015493e-14
-7.683157017e-14
-8.201217989e-14
-8.756263241e-14
-9.341157639e-14
-9.920979638e-14
-1.055456943e-13
-1.139039391e-13
-1.250343998e-13
-1.378632539e-13
-8.222345256e-14
3.921874374e-14
-4.082658964e-13
-9.571513402e-13
-1.041275582e-12
-1.158431522e-12
-1.160481341e-12
)


101
(
8.150114507e-12
-1.8497808e-12
-2.663027641e-13
-2.324218136e-13
-1.569490932e-13
-5.278510861e-14
-4.609271949e-14
-3.394812943e-14
-2.536146044e-14
-2.056883141e-14
-2.103358681e-14
-1.782327381e-14
-2.242218996e-14
-3.271464529e-14
-3.570008678e-14
-3.499066827e-14
-3.712067616e-14
-4.00017702e-14
-3.562632253e-14
-4.013888781e-14
-3.942211966e-14
-3.498719035e-14
-3.429938676e-14
-3.387720889e-14
-3.260972081e-14
-2.989514942e-14
-2.581218893e-14
-2.079183061e-14
-1.627169186e-14
-1.232297927e-14
-9.290327539e-15
-6.982940553e-15
-3.33043956e-15
-1.903978497e-15
6.826374169e-17
1.344704764e-15
2.189293523e-15
3.120492874e-15
4.061720336e-15
4.824748624e-15
5.38912731e-15
6.092891622e-15
6.419577433e-15
6.620618245e-15
6.880036157e-15
6.964254769e-15
6.994390389e-15
6.78726555e-15
6.436886458e-15
5.904339703e-15
5.291482136e-15
4.609528449e-15
3.87910864e-15
3.089418407e-15
2.231207054e-15
1.294220836e-15
2.722144742e-16
-8.205341788e-16
-1.969591009e-15
-3.191625707e-15
-4.495441062e-15
-5.901447608e-15
-7.421931178e-15
-9.056397087e-15
-1.077344466e-14
-1.254936099e-14
-1.438058473e-14
-1.626806236e-14
-1.827320185e-14
-3.060015067e-14
-3.272559119e-14
-2.520856079e-14
-2.798017521e-14
-3.111603012e-14
-3.452742112e-14
-3.793422037e-14
-5.036172499e-14
-4.471320746e-14
-4.860978081e-14
-5.280647695e-14
-6.562798223e-14
-6.121777661e-14
-6.550195319e-14
-6.971112927e-14
-7.436652058e-14
-7.971596382e-14
-8.568473274e-14
-9.602453002e-14
-9.902063939e-14
-1.100272737e-13
-1.174027027e-13
-1.230103773e-13
-1.360556312e-13
-1.512816694e-13
-9.09988363e-14
3.597460849e-14
-4.461555637e-13
-1.042255468e-12
-1.128041607e-12
-1.244150084e-12
-1.23649291e-12
)


101
(
8.011582005e-12
-1.876823202e-12
-2.762800727e-13
-2.370950198e-13
-1.602200304e-13
-5.771717208e-14
-4.647259245e-14
-3.577453226e-14
-2.786955903e-14
-2.361082803e-14
-2.400949375e-14
-2.187298329e-14
-2.529484862e-14
-3.51558923e-14
-3.897076942e-14
-3.866847424e-14
-3.996977841e-14
-4.307086761e-14
-3.850268649e-14
-4.237347231e-14
-4.182897382e-14
-3.757193549e-14
-3.635440664e-14
-3.517068021e-14
-3.349403281e-14
-3.076590621e-14
-2.67882128e-14
-2.173342978e-14
-1.69577197e-14
-1.261727549e-14
-9.203468363e-15
-6.642522743e-15
-2.813527114e-15
-1.209880564e-15
1.058769401e-15
2.667437734e-15
3.748705113e-15
4.76180643e-15
5.675824085e-15
6.39116766e-15
6.962773479e-15
7.759897582e-15
8.189580609e-15
8.468526896e-15
8.773249986e-15
8.888281576e-15
8.98522883e-15
8.882240734e-15
8.665402236e-15
8.269822527e-15
7.793737181e-15
7.246497866e-15
6.659066218e-15
6.024187124e-15
5.333012021e-15
4.574865452e-15
3.723879749e-15
2.797103838e-15
1.79903054e-15
7.274886233e-16
-4.279757641e-16
-1.693281536e-15
-3.082783004e-15
-4.592838545e-15
-6.209471554e-15
-7.938573619e-15
-9.727162429e-15
-3.289052654e-14
-3.4467094e-14
-1.564445125e-14
-1.794044829e-14
-2.048551834e-14
-2.335578875e-14
-2.65947325e-14
-3.012443493e-14
-4.300963244e-14
-4.635036706e-14
-4.087447749e-14
-4.507538586e-14
-4.958530853e-14
-6.284615577e-14
-5.886448685e-14
-6.377254135e-14
-7.689025649e-14
-8.186605683e-14
-7.947183712e-14
-8.610001357e-14
-9.71952212e-14
-1.050706381e-13
-1.132690199e-13
-1.217604964e-13
-1.283571412e-13
-1.470039928e-13
-1.645186224e-13
-9.59296957e-14
3.267111711e-14
-4.813414683e-13
-1.100094237e-12
-1.178598604e-12
-1.304898826e-12
-1.304514879e-12
)


101
(
7.87342438e-12
-2.736075315e-13
-9.669416356e-13
-2.418065927e-13
-1.635436514e-13
-6.260189466e-14
-4.713345681e-14
-3.751812887e-14
-3.03282017e-14
-2.66088886e-14
-2.69834522e-14
-2.577383879e-14
-2.829771179e-14
-3.763359674e-14
-4.206799238e-14
-4.221914011e-14
-4.29189197e-14
-4.603504233e-14
-4.132830694e-14
-4.463422316e-14
-4.408915637e-14
-3.999349918e-14
-3.842304975e-14
-3.656509098e-14
-3.438116664e-14
-3.149700042e-14
-2.755760772e-14
-2.249786933e-14
-1.752932364e-14
-1.283423303e-14
-9.037786731e-15
-6.194099901e-15
-2.172567594e-15
-4.177719669e-16
2.092208523e-15
3.997614107e-15
5.342194663e-15
6.513934907e-15
7.484164293e-15
8.19227214e-15
8.814121065e-15
9.745312268e-15
1.034763175e-14
1.078974538e-14
1.1227598e-14
1.144848134e-14
1.166718517e-14
1.171702003e-14
1.169783427e-14
1.152021433e-14
1.126023957e-14
1.092295901e-14
1.054366185e-14
1.012226079e-14
9.658666196e-15
9.140870087e-15
8.525541441e-15
7.828923384e-15
7.037324896e-15
6.171306002e-15
5.204688361e-15
4.121345797e-15
2.910833944e-15
1.587223232e-15
1.153595526e-16
-1.508911993e-15
-3.229213924e-15
-5.032374898e-15
-2.805038298e-14
-8.937308241e-15
-1.118019678e-14
-2.375205307e-14
-1.662255641e-14
-1.993029548e-14
-2.356300095e-14
-3.664757305e-14
-4.012772061e-14
-4.391585763e-14
-3.91884251e-14
-4.402844429e-14
-4.895477504e-14
-6.268813743e-14
-5.950555861e-14
-7.328056534e-14
-7.865263816e-14
-7.657554934e-14
-8.379351118e-14
-9.56368242e-14
-1.042772089e-13
-1.0962724e-13
-1.231377093e-13
-1.345995788e-13
-1.509462036e-13
-1.70643447e-13
-9.749841101e-14
3.971630495e-14
-4.934473711e-13
-1.133194786e-12
-1.216365721e-12
-1.329914292e-12
-1.365310891e-12
)


101
(
7.735650341e-12
-2.981733315e-13
-9.77870677e-13
-2.465458326e-13
-1.669128613e-13
-6.743928195e-14
-4.805922291e-14
-3.920309562e-14
-3.273812301e-14
-2.956488037e-14
-2.996050592e-14
-2.954620113e-14
-3.140289797e-14
-4.0172687e-14
-4.504085279e-14
-4.5660435e-14
-4.594094957e-14
-4.894199741e-14
-4.410866982e-14
-4.689533536e-14
-4.623418267e-14
-4.227420172e-14
-4.047950433e-14
-3.805580428e-14
-3.531413234e-14
-3.214374613e-14
-2.815516867e-14
-2.308582947e-14
-1.79794621e-14
-1.297799604e-14
-8.803084433e-15
-5.641572311e-15
-1.39161304e-15
5.08351976e-16
3.229872961e-15
5.40684698e-15
7.03517021e-15
8.438815785e-15
9.549039327e-15
1.033336097e-14
1.10501782e-14
1.215316411e-14
1.300561657e-14
1.371660887e-14
1.439723106e-14
1.480188175e-14
1.519329372e-14
1.544516519e-14
1.567282634e-14
1.576886681e-14
1.579994973e-14
1.574380559e-14
1.562955045e-14
1.547279948e-14
1.527641589e-14
1.503449511e-14
1.470158484e-14
1.428398796e-14
1.374684253e-14
-1.243236711e-14
1.237113068e-14
1.150218604e-14
1.050905924e-14
9.39806027e-15
8.085864657e-15
6.610466524e-15
4.988623217e-15
2.504759983e-14
1.448906951e-15
-1.104865913e-14
-2.713501831e-15
-1.535619127e-14
1.853107935e-15
-1.665022533e-15
-1.5246787e-14
-1.908633944e-14
-3.227306564e-14
-3.619244735e-14
-3.162197088e-14
-3.683435921e-14
-5.0936233e-14
-5.634115462e-14
-5.365814813e-14
-5.961247142e-14
-7.402736312e-14
-8.059768995e-14
-8.009258829e-14
-9.274363845e-14
-1.022329662e-13
-1.087005706e-13
-1.272090803e-13
-1.358285601e-13
-1.496827627e-13
-1.716398211e-13
-9.789802114e-14
4.748744685e-14
-5.089906015e-13
-1.164990333e-12
-1.273351258e-12
-1.367100902e-12
-1.441750811e-12
)


101
(
7.598269299e-12
-1.955089797e-12
-3.059513469e-13
-2.513013197e-13
-1.703202378e-13
-7.22298069e-14
-4.923531132e-14
-4.085156854e-14
-3.509826754e-14
-3.247857784e-14
-3.294227206e-14
-3.320866114e-14
-3.459208389e-14
-4.279097902e-14
-4.793551459e-14
-4.899732686e-14
-4.901949189e-14
-5.182933781e-14
-4.686592028e-14
-4.91586422e-14
-4.830425432e-14
-4.441770525e-14
-4.249883345e-14
-3.961940039e-14
-3.63197561e-14
-3.275779164e-14
-2.862025834e-14
-2.351225901e-14
-1.830934383e-14
-1.305550159e-14
-8.518208631e-15
-5.009028654e-15
-4.782156563e-16
1.602526189e-15
4.526590369e-15
6.972570603e-15
8.920345172e-15
1.062307527e-14
1.194978075e-14
1.289402534e-14
1.37565629e-14
1.509626517e-14
1.626277404e-14
1.733226895e-14
1.835795767e-14
1.90490162e-14
1.968808082e-14
2.017284363e-14
2.067406158e-14
2.108620759e-14
2.14593212e-14
2.174321734e-14
2.195319096e-14
2.210104661e-14
2.219708481e-14
2.225139209e-14
2.222601019e-14
2.211397425e-14
2.186263939e-14
-4.376633133e-15
-4.325896215e-15
2.035648036e-14
1.959182514e-14
1.867015335e-14
1.753937953e-14
1.623308921e-14
1.469157185e-14
1.301077124e-14
1.120178042e-14
-1.380890526e-15
-3.34009268e-15
4.580129525e-15
1.172839256e-14
8.113650983e-15
3.984291793e-15
-3.132121767e-16
-1.400846206e-14
-2.762470606e-14
-2.332334517e-14
-2.891580032e-14
-4.359892871e-14
-4.0910023e-14
-5.62186815e-14
-5.429606634e-14
-6.959822061e-14
-8.513493164e-14
-8.518899988e-14
-8.25096555e-14
-1.052651021e-13
-1.129151023e-13
-1.248133638e-13
-1.38650384e-13
-1.539543224e-13
-1.783311428e-13
-9.665211294e-14
5.311907464e-14
-5.248489737e-13
-1.186070881e-12
-1.33390478e-12
-1.428709592e-12
-1.519876182e-12
)


101
(
7.461290244e-12
-1.980180342e-12
-3.15690816e-13
-2.560615819e-13
-4.963292543e-13
-7.697207699e-14
-5.06462214e-14
-4.248181935e-14
-3.740103121e-14
-3.533772956e-14
-3.592617625e-14
-3.678016476e-14
-3.784925766e-14
-4.549449886e-14
-5.078065246e-14
-5.22294284e-14
-5.212442321e-14
-5.472197695e-14
-4.961765412e-14
-5.14468738e-14
-5.034029457e-14
-4.646021951e-14
-4.446682891e-14