/*--------------------------------*- C++ -*----------------------------------*\
| =========                 |                                                 |
| \\      /  F ield         | OpenFOAM: The Open Source CFD Toolbox           |
|  \\    /   O peration     | Version:  2.3.1                                 |
|   \\  /    A nd           | Web:      www.OpenFOAM.org                      |
|    \\/     M anipulation  |                                                 |
\*---------------------------------------------------------------------------*/
FoamFile
{
    version     2.0;
    format      ascii;
    class       dictionary;
    location    "constant";
    object      PM16;
}
// * * * * * * * * * * * * * * * * * * * * * * * * * * * * * * * * * * * * * //

PM16_table
101
(

101
(
8263.333941
198.2054653
82.32768039
52.63745023
41.80442729
37.00264578
34.40505193
32.9471693
31.7823456
30.76847781
29.77706748
28.78401075
27.74956778
26.73585184
25.69206703
24.64722102
23.61566955
22.60024291
21.60835322
20.63247128
19.70183434
18.81162034
17.93753778
17.1135748
16.33776457
15.60363459
14.91109001
14.26112066
13.64512713
13.0694405
12.52855431
12.02529469
11.57043775
11.09134444
10.67352245
10.2805339
9.914171955
9.576960434
9.250176579
8.931438127
8.633240951
8.369486633
8.109278128
7.864910587
7.64152858
7.423535268
7.221622437
7.025627991
6.842815638
6.666442628
6.502025425
6.345058197
6.195898022
6.05464844
5.921193601
5.794526346
5.669257123
5.555942082
5.443953171
5.339386011
5.238219413
5.142515237
5.05150046
4.96416793
4.88098465
4.80133669
4.725669786
4.653554188
4.584043691
4.51837337
4.455468016
4.395383502
4.337329115
4.282709587
4.231247055
4.182598301
4.135207112
4.090448275
4.048526208
4.009038061
3.971890042
3.936312037
3.903329194
3.872394253
3.843443325
3.816664009
3.792169269
3.769612268
3.749116445
3.730378917
3.713621631
3.698566577
3.685376396
3.673661443
3.663505732
3.650223949
3.632138108
3.58974579
3.548156917
3.507551074
3.467672784
)


101
(
8263.333974
198.2755378
82.3682683
52.6072419
41.72788406
36.90065308
34.29291617
32.82794642
31.66915794
30.66356668
29.68408312
28.70406717
27.68452853
26.68348402
25.65455991
24.62308166
23.60394467
22.60061684
21.61834566
20.65452673
19.73042053
18.84654979
17.98197122
17.1623167
16.38947255
15.65830037
14.96797964
14.31917374
13.70485967
13.1292131
12.58837478
12.08409417
11.62529227
11.15503503
10.73213935
10.33717016
9.968702223
9.628391557
9.301898886
8.984802501
8.685698454
8.41672795
8.156728483
7.911120057
7.6845434
7.466278905
7.262257992
7.065919141
6.881396904
6.704435483
6.53825437
6.380127242
6.229793321
6.087213371
5.952288684
5.82427424
5.699142399
5.583513006
5.471158455
5.365202159
5.263322501
5.166524977
5.074417143
4.986232873
4.90209413
4.821603098
4.744960061
4.671900546
4.601711419
4.535077611
4.471372383
4.410552684
4.352031501
4.296577246
4.244132405
4.194485741
4.146620648
4.101176467
4.058451246
4.018189114
3.980297604
3.944249138
3.910573206
3.879021545
3.849508207
3.82205755
3.796926534
3.773839009
3.752841568
3.733579576
3.716427762
3.700809159
3.687153815
3.675066841
3.66438665
3.650682001
3.631895974
3.589477175
3.547861484
3.507216602
3.46730069
)


101
(
8263.333973
198.4171349
82.45088798
52.54846235
41.57608236
36.69741528
34.06876252
32.58913349
31.44143233
30.45185307
29.49560676
28.54122033
27.5510831
26.57517073
25.57562525
24.57089932
23.57653314
22.5972746
21.63498561
20.69432315
19.78480458
18.91381415
18.06731135
17.257658
16.49140721
15.76630584
15.08073856
14.43471422
13.82374386
13.24876067
12.70814667
12.2022182
11.73667939
11.27975163
10.85097637
10.45200112
10.07938291
9.733279393
9.406064171
9.091316842
8.79123476
8.513970631
8.25266486
8.004749288
7.772750947
7.552898987
7.345198104
7.147495932
6.95998493
6.781432407
6.612171377
6.451595085
6.29889965
6.153754055
6.016007991
5.885281348
5.759615478
5.640365498
5.526604126
5.418162169
5.314594007
5.215718098
5.12147567
5.031479274
4.945447675
4.863211475
4.78466713
4.709726347
4.638029762
4.569570945
4.504201994
4.441821487
4.382137187
4.325127743
4.270888522
4.219372454
4.170298705
4.123468917
4.079166221
4.037348856
3.997966026
3.960800774
3.925787459
3.89296815
3.862286564
3.833563554
3.807106
3.782846879
3.760806975
3.740488077
3.722429692
3.70577434
3.691063426
3.678116189
3.66641557
3.651672123
3.631469479
3.589018213
3.547370609
3.506687683
3.466734361
)


101
(
8263.333974
198.5618265
82.53651395
52.492987
41.42697583
36.49601792
33.84548366
32.3506682
31.21246899
30.23818833
29.30427339
28.37489551
27.41345835
26.46256796
25.49166221
24.51364386
23.54394321
22.58849306
21.64698063
20.72816129
19.83514098
18.97738989
18.14735331
17.34953099
16.59100039
15.87219667
15.1917465
14.54915431
13.94146026
13.36799563
12.8278686
12.32091366
11.85058913
11.39998256
10.97105082
10.56881459
10.19247391
9.841381898
9.511488906
9.197151144
8.896949363
8.614958686
8.350339685
8.100046264
7.864135842
7.641392507
7.430629312
7.230641142
7.040642678
6.859957432
6.688196984
6.525086023
6.370006483
6.222449519
6.082121533
5.948747877
5.821385133
5.699774746
5.583872742
5.473264571
5.367686988
5.266833097
5.170550309
5.078620222
4.990713043
4.906662477
4.826285884
4.749492719
4.676090478
4.605920965
4.538838319
4.474791467
4.413618164
4.355129737
4.299306848
4.246123124
4.195547585
4.147285431
4.101457655
4.058068594
4.017163392
3.978638989
3.942309369
3.908178018
3.876237167
3.84629443
3.818524937
3.79291111
3.76968634
3.748267964
3.729137668
3.711463431
3.695589583
3.681590635
3.668849527
3.652794669
3.631097511
3.588648253
3.547004695
3.50634334
3.46641282
)


101
(
8263.333192
198.7096479
82.62518307
52.44086313
41.28062269
36.29651735
33.62314113
32.11260944
30.98236896
30.02262275
29.11013977
28.20512748
27.2716876
26.34567638
25.40270191
24.45127386
23.50614786
22.57426612
21.65406664
20.75630664
19.88091168
19.03709658
18.22246319
17.4374256
16.68780795
15.975804
15.30083002
14.66221962
14.05794559
13.48661432
12.94742093
12.4399902
11.96630059
11.51816157
11.09068222
10.68688529
10.30759694
9.952304977
9.618967253
9.303438297
9.002814407
8.718066728
8.450150876
8.197128742
7.957988707
7.732141296
7.518368339
7.315757643
7.123273543
6.940278898
6.766137172
6.600555003
6.443059686
6.29313511
6.150376612
6.014491686
5.884991863
5.761227585
5.643153119
5.530383525
5.422708317
5.319819796
5.221513274
5.127610259
5.037798383
4.951900008
4.869692344
4.791058456
4.715870362
4.643965699
4.575165943
4.509421645
4.446622626
4.386563597
4.329163221
4.274377238
4.222253352
4.172502688
4.12516908
4.080204965
4.037712926
3.997704962
3.959982248
3.924499975
3.891227708
3.859994855
3.830954189
3.803966194
3.779365541
3.756737046
3.736450841
3.717632062
3.700603631
3.685387714
3.671502738
3.654025509
3.630762161
3.5883386
3.546717097
3.506059534
3.46613032
)


101
(
8263.333929
198.8606972
82.71696697
52.39215808
41.13709523
36.09898649
33.40180988
31.87502953
30.75124598
29.80522514
28.91327726
28.03196503
27.12581719
26.22450741
25.30878601
24.38376454
23.46312454
22.5545931
21.65604238
20.77890451
19.9217815
19.09268459
18.29286606
17.52106423
16.78140548
16.07688517
15.40781276
14.77367215
14.17307536
13.60436979
13.06662385
12.55927337
12.08330925
11.6356301
11.20952311
10.80547924
10.42420023
10.06558226
9.728754877
9.411020771
9.109274445
8.8225663
8.551864372
8.296073418
8.053991739
7.825128423
7.608372534
7.402993626
7.207935233
7.022532839
6.846011928
6.677997426
6.518071201
6.365762625
6.220627227
6.082328671
5.950564489
5.824626904
5.704400203
5.589478236
5.479673107
5.374695783
5.27432925
5.178409791
5.086648475
4.998868122
4.914814539
4.834337217
4.757322359
4.683630419
4.613080723
4.5456131
4.481130707
4.419429941
4.360404815
4.303995317
4.250283423
4.198998108
4.150150754
4.103636469
4.059531231
4.017936436
3.978719533
3.941816694
3.907163131
3.874570135
3.84419506
3.815864818
3.789809233
3.765822334
3.744279458
3.724233343
3.705991058
3.689442724
3.674313826
3.655368339
3.630489344
3.588076807
3.546464862
3.505812144
3.465888614
)


101
(
8263.333973
199.0150249
82.8118926
52.34691153
40.99644365
35.90347728
33.18154373
31.63798063
30.51919694
29.58605413
28.71374394
27.85544855
26.97588085
26.0990616
25.20994631
24.31108748
23.41484032
22.529463
21.65274403
20.7960071
19.95751968
19.14387569
18.35865203
17.60028508
16.87141733
16.17513931
15.51248514
14.88328554
14.28667798
13.72102026
13.18524097
12.67855726
12.2012399
11.75310242
11.32773576
10.92396736
10.5416615
10.18065297
9.840731647
9.520349627
9.216834288
8.928296488
8.655212814
8.396811047
8.151976698
7.920242726
7.700570787
7.492371758
7.294658482
7.106772656
6.927854712
6.757429872
6.59506972
6.440346339
6.292822684
6.152135032
6.018059508
5.889910746
5.767528602
5.65046777
5.538531488
5.431438016
5.328971311
5.230982881
5.137210688
5.047497573
4.96157143
4.879243542
4.800381818
4.724858356
4.652511774
4.583280666
4.51707283
4.453682907
4.392990199
4.334917603
4.279564881
4.226686604
4.176289104
4.128227749
4.082527914
4.039293285
3.99847975
3.960057616
3.923947609
3.889936058
3.858172318
3.828451129
3.800957631
3.77548026
3.752572595
3.731210955
3.711668916
3.693736074
3.677262673
3.656837527
3.630232546
3.587824904
3.546223466
3.50562792
3.465768551
)


101
(
8263.333973
199.1727138
82.91001814
52.3051845
40.85873548
35.71005608
32.96240739
31.40152327
30.2863289
29.36518211
28.51160916
27.67562792
26.82192306
25.96934852
25.10622419
24.23323007
23.36126786
22.49886807
21.64405035
20.80761579
19.98796553
19.19040913
18.41981463
17.67498872
16.95754017
16.27025332
15.61460972
14.99084348
14.39857402
13.83634189
13.30300956
12.79758313
12.31976137
11.87092942
11.44567854
11.04219672
10.65947683
10.29693404
9.954556216
9.631549142
9.325863878
9.035358123
8.760069501
8.499227486
8.251807905
8.017363867
7.794882272
7.583871881
7.383441205
7.19298861
7.011639335
6.838826562
6.674053571
6.516901626
6.366962646
6.223869482
6.087434323
5.95701917
5.832450218
5.713250172
5.5991934
5.489981664
5.385396792
5.285296683
5.189449226
5.097732699
5.00988617
4.925691068
4.844975872
4.767595618
4.693406113
4.622363171
4.554384644
4.489265666
4.426871427
4.367104585
4.31006488
4.255534492
4.203529725
4.153886978
4.106591701
4.061715395
4.019244938
3.979214983
3.9415585
3.906046435
3.872840331
3.841670018
3.812730727
3.785698001
3.761325513
3.738551623
3.71761979
3.698262593
3.680330795
3.658340048
3.630011244
3.587633935
3.546076805
3.505609938
3.465892989
)


101
(
8263.332422
199.3337788
83.01138309
52.26702514
40.72402896
35.51878307
32.74446099
31.16571295
30.05274189
29.14267853
28.30693943
27.49254959
26.66398483
25.83537142
24.99765236
24.15018096
23.30237301
22.46279003
21.62986169
20.81369329
20.01299005
19.23203878
18.47627016
17.74508884
17.03952417
16.36191191
15.71391088
15.09610775
14.50856831
13.95012097
13.41967041
12.91606017
12.4385187
11.98918919
11.56367545
11.16024444
10.77736041
10.41392563
10.0697765
9.744478603
9.436523859
9.143892889
8.866423222
8.60324302
8.353359701
8.116348514
7.891188059
7.677432158
7.474268427
7.281172858
7.097315268
6.922100873
6.754955535
6.595402948
6.443044145
6.29753132
6.158695326
6.025941852
5.899125758
5.777757389
5.661578423
5.550260984
5.44356758
5.341343665
5.243373142
5.14957641
5.059735241
4.973629551
4.891052198
4.811812102
4.735753107
4.662852951
4.593051631
4.526157159
4.46202731
4.40054202
4.341780945
4.285543257
4.231872401
4.180602018
4.131679833
4.085150583
4.040999716
3.99930784
3.960030684
3.922929611
3.888196799
3.855523726
3.825078706
3.796483408
3.77053768
3.746270818
3.723854889
3.703025676
3.683536581
3.659884737
3.629847785
3.587559591
3.546120529
3.505929202
3.466549269
)


101
(
8263.332432
199.4984088
83.1160751
52.23251297
40.5924066
35.32974044
32.52778796
30.93062904
29.8185531
28.91863263
28.09981946
27.30628081
26.50212795
25.69715546
24.88427955
24.0619515
23.23813875
22.42122108
21.61011395
20.81419707
20.03249834
19.26855645
18.52789574
17.81049839
17.11716912
16.44982485
15.81010354
15.19883086
14.61645728
14.06215496
13.53497858
13.03369452
12.557159
12.10777585
11.68192867
11.27829959
10.89523642
10.53127107
10.18593648
9.858832267
9.548769702
9.253969943
8.974302555
8.708824956
8.456551691
8.217080678
7.989367806
7.772959987
7.567098375
7.371333669
7.184894438
7.007214474
6.837693271
6.675788078
6.521046522
6.373125537
6.231873102
6.096730447
5.967599122
5.84400463
5.725675103
5.612253204
5.503471185
5.399142659
5.299039307
5.203105445
5.111184038
5.023092897
4.93861699
4.857515766
4.779585874
4.704800238
4.633127426
4.564402705
4.498491868
4.435256212
4.374751277
4.316766094
4.261367578
4.208417815
4.157838825
4.109626936
4.063768846
4.020372212
3.979428987
3.940665056
3.904307661
3.870082803
3.838064305
3.807879973
3.780267774
3.754435013
3.730458455
3.708083454
3.686966505
3.6616266
3.629792157
3.587721196
3.546534827
3.506782213
3.467776323
)


101
(
8263.335759
199.6667202
83.22416857
52.20172039
40.46394563
35.14300506
32.31246635
30.6963458
29.5838734
28.69313059
27.89032982
27.11688651
26.33641005
25.55472693
24.76615132
23.96855463
23.16854671
22.37414734
21.58475408
20.80907309
20.04640407
19.29977778
18.57453776
17.87111269
17.1903066
16.53373023
15.90289777
15.29874746
14.72202221
14.17224322
13.64870217
13.15019155
12.67530489
12.22644457
11.80046213
11.3965243
11.01315986
10.64878627
10.30266915
9.974240391
9.662404579
9.36556193
9.083713713
8.815963802
8.561340282
8.319473255
8.089316418
7.870377515
7.661888102
7.463470404
7.27441415
7.094208148
6.922262984
6.758010587
6.60093726
6.450653223
6.307008217
6.169456957
6.037956459
5.912069837
5.791535717
5.675983071
5.565116058
5.458711175
5.356502699
5.258422766
5.164352557
5.074183093
4.987731554
4.90473674
4.82493884
4.748265813
4.674690534
4.604080441
4.536329339
4.47129789
4.40902666
4.349275886
4.292099298
4.237404586
4.185135392
4.135219695
4.087617849
4.042467237
3.999814229
3.95935489
3.921285073
3.885435234
3.851813658
3.819979238
3.79065618
3.763174651
3.737566877
3.713564857
3.690762153
3.663681505
3.630007586
3.588304613
3.547524958
3.508367681
3.469938133
)


101
(
8263.336594
199.8386319
83.33566482
52.17467381
40.33868944
34.95862513
32.09854697
30.46290979
29.34878773
28.4662392
27.67853139
26.92441114
26.16686611
25.40808823
24.64328792
23.86998589
23.09355961
22.32152903
21.55371874
20.7982448
20.05460993
19.32552176
18.61601429
17.92679374
17.25877481
16.61338798
15.99200074
15.39556526
14.82501154
14.28016778
13.76061052
13.26526694
12.79258621
12.34485432
11.91913346
11.51497557
11.13122556
10.76641436
10.41971046
10.09035048
9.777140934
9.478523422
9.194609646
8.924641962
8.667707446
8.423482716
8.190948022
7.969589156
7.75859085
7.557584928
7.365916155
7.183142946
7.00872166
6.842088809
6.682696486
6.530099871
6.384111352
6.244172115
6.110277529
5.982040409
5.859236696
5.741500356
5.628522349
5.520050516
5.41577179
5.315579719
5.219343648
5.127016528
5.038487588
4.953525404
4.871834954
4.793280859
4.717794329
4.645258745
4.575605476
4.508722493
4.444642535
4.383106615
4.324135284
4.267641286
4.213623372
4.161990479
4.112625401
4.065667737
4.021237712
3.97907388
3.939246266
3.901675156
3.866416226
3.832893468
3.801830447
3.772625496
3.745328053
3.719625323
3.695085989
3.666197431
3.630682658
3.589508638
3.549277533
3.510777807
3.472996924
)


101
(
8263.337149
200.0143416
83.45066126
52.15146041
40.21672905
34.77669061
31.88611999
30.23040443
29.11341193
28.23805874
27.46452112
26.72893264
25.99356586
25.25727417
24.51573662
23.76627515
23.01317034
22.26334689
21.51697382
20.78165996
20.05704735
19.34565362
18.65216432
17.97740569
17.32243298
16.68860167
16.07715343
15.48900135
14.92516676
14.38571193
13.87049964
13.37867141
12.90866368
12.46263634
12.0376914
11.63359635
11.24950335
10.88419607
10.53695278
10.206902
9.892680122
9.592640943
9.30690646
9.034836217
8.77565451
8.529114612
8.294242445
8.070539469
7.857144116
7.653651866
7.459431775
7.274091632
7.097149392
6.92808727
6.766353181
6.611459768
6.463172359
6.3208958
6.184618546
6.053997434
5.928865216
5.808874764
5.693726857
5.583160753
5.476829048
5.374566484
5.276196976
5.181683879
5.090989096
5.003957836
4.920305334
4.83985327
4.76246383
4.687991428
4.616387615
4.547582675
4.481632431
4.418274009
4.357495095
4.299174323
4.243343295
4.189961097
4.138835137
4.0900419
4.043762316
3.999852505
3.958269112
3.918904123
3.881923012
3.846717782
3.813880016
3.782896717
3.753856387
3.726398103
3.700084489
3.669354957
3.631998488
3.591464691
3.551858476
3.513925736
3.47665744
)


101
(
8263.334067
200.1938746
83.56919516
52.13213097
40.09812811
34.59726755
31.67525276
29.99889165
28.87784161
28.00867126
27.24837884
26.53051437
25.81656134
25.10230547
24.38352767
23.65743959
22.92736035
22.19956698
21.47447213
20.75925382
20.05363669
19.3600384
18.68281234
18.02278183
17.38111522
16.75916531
16.15809257
15.57875693
15.02219869
14.48862732
13.97815369
13.49017651
13.02323541
12.57941861
12.15579568
11.7521954
11.36797613
11.00219719
10.65437973
10.32372925
10.00876404
9.707662574
9.42044344
9.146480681
8.885159245
8.636369506
8.399199955
8.173199206
7.957493548
7.751619739
7.554929548
7.367071194
7.187606825
7.016068822
6.851953814
6.694749865
6.544183316
6.399609879
6.260986362
6.127982486
6.00048051
5.878172896
5.760779253
5.648054972
5.539644047
5.435330024
5.334875593
5.238200055
5.145300755
5.056103771
4.970389865
4.887979917
4.808683138
4.732285972
4.658713999
4.58792342
4.520026686
4.454783369
4.39216675
4.332004783
4.274310243
4.219111327
4.166217565
4.115599726
4.067416817
4.021676862
3.978344069
3.937163504
3.898371497
3.861465998
3.826839126
3.794036036
3.763201355
3.733940483
3.7058274
3.673255658
3.634034198
3.594113491
3.555074118
3.517527432
3.480790767
)


101
(
8263.33103
200.3773989
83.69136898
52.11677765
39.98298314
34.42045118
31.466037
29.76845616
28.64219683
27.77818625
27.03020441
26.32924451
25.6359274
24.94322328
24.2467087
23.54351439
22.83613657
22.13017594
21.42619245
20.73098796
20.04432331
19.36857138
18.70780203
18.0627579
17.43466051
16.82489227
16.23458217
15.66455051
15.11581543
14.58865261
14.08335241
13.59957193
13.13604683
12.69487319
12.27308745
11.87049137
11.48651819
11.12043487
10.7720409
10.44079315
10.12521337
9.82334206
9.53500127
9.259462484
8.996181444
8.745232419
8.505825952
8.277562617
8.059600495
7.851441392
7.652380284
7.462063546
7.280107155
7.106082964
6.93953776
6.779997108
6.627150123
6.480302026
6.339370728
6.204002956
6.074109615
5.949441116
5.829737442
5.714777473
5.604214184
5.497821488
5.395306342
5.296516956
5.201428532
5.110008417
5.022130607
4.93766606
4.856412691
4.778097027
4.70257376
4.629772382
4.559848706
4.492630454
4.428125757
4.366102552
4.306515517
4.249422834
4.194706686
4.142278112
4.092185458
4.044520163
3.999393801
3.956401821
3.915737721
3.877062688
3.840632788
3.805975755
3.773326916
3.7422188
3.712280198
3.677862311
3.636760339
3.59732286
3.558678399
3.521233659
3.484275438
)


101
(
8263.337193
200.5652696
83.81735157
52.10553391
39.87142272
34.24636466
31.25858956
29.53920586
28.40661831
27.54673734
26.81011881
26.12523514
25.4517632
24.78009099
24.1053433
23.42455379
22.73952814
22.05518156
21.37213164
20.6968468
20.02907551
19.37117928
18.72700448
18.097181
17.48291597
16.88561514
16.30641404
15.74611989
15.20572403
14.68550994
14.18586601
13.70666293
13.2468773
12.80871697
12.3892279
11.9881548
11.60490382
11.23883415
10.88998278
10.55812082
10.24195022
9.939485345
9.650343675
9.373597631
9.108638731
8.855678428
8.614112805
8.383636529
8.163449955
7.953067673
7.751734418
7.559048259
7.374642581
7.198144297
7.029141915
6.867214337
6.712071008
6.562965857
6.419758295
6.282054815
6.149773
6.022712233
5.900649706
5.783383991
5.670581443
5.562041357
5.457440639
5.356563904
5.259320804
5.165673588
5.075560182
4.988930777
4.905624053
4.825349323
4.74789243
4.673098357
4.601101732
4.531816426
4.465325445
4.401399953
4.339914726
4.280873967
4.224240371
4.169970236
4.117977043
4.068321157
4.021304295
3.976491482
3.933913832
3.893377048
3.855132357
3.818559891
3.784086611
3.751099942
3.719293089
3.682993639
3.640050599
3.600868736
3.562367851
3.524744195
3.487440169
)


101
(
8263.337193
200.7572305
83.94713125
52.09838068
39.76345885
34.07503039
31.05293513
29.31116169
28.17116516
27.3143809
26.58816855
25.91852384
25.26409481
24.61290365
23.9594247
23.30055109
22.63750049
21.97452756
21.31221977
20.65674624
20.00779929
19.36774035
18.74025031
18.12584693
17.52567217
16.9411206
16.37334745
15.82317629
15.29159114
14.7788593
14.28539373
13.81120676
13.35550506
12.92067907
12.50388007
12.10480752
11.72279155
11.35718295
11.00814744
10.67573095
10.35895481
10.0559351
9.766210841
9.488614448
9.222345021
8.967616246
8.724002206
8.491376274
8.269008042
8.056445348
7.852912217
7.657950468
7.47116603
7.292223247
7.120760182
6.956407562
6.798923277
6.647551308
6.502097564
6.362102914
6.227460074
6.097990947
5.973531938
5.853900809
5.7387851
5.62801105
5.521256278
5.418273172
5.318896293
5.223047597
5.130672275
5.041785098
4.956303117
4.873966056
4.794541776
4.717786368
4.643737841
4.572316216
4.503716886
4.437800223
4.374392288
4.313377625
4.254742979
4.198545192
4.144636808
4.09295424
4.043928206
3.997240963
3.952725267
3.910233973
3.870142875
3.831593085
3.795232402
3.760349165
3.726611438
3.688400997
3.643623885
3.60441076
3.565774888
3.52779941
3.49033642
)


101
(
8263.33103
200.9533965
84.08072397
52.0953988
39.65918152
33.90653891
30.84916012
29.0844021
27.93595601
27.08123701
26.36445652
25.70919922
25.07300059
24.44171081
23.80899744
23.17155241
22.53007603
21.88820505
21.24643032
20.61063446
19.98043333
19.35817467
18.74742008
18.14859358
17.56274713
16.99122373
16.43518094
15.89547802
15.37312255
14.86837638
14.38162833
13.91294708
13.46172166
13.03054481
12.61676686
12.22011104
11.83983159
11.47520011
11.12638667
10.7936195
10.47625145
10.17265168
9.882430884
9.604252585
9.337049842
9.080892519
8.835426414
8.600734952
8.376238049
8.161533188
7.955856685
7.758705325
7.569628565
7.388292312
7.214378731
7.047579943
6.887708402
6.734036471
6.586345339
6.44410088
6.30713653
6.17527453
6.048394664
5.926354573
5.808869769
5.695775932
5.586779202
5.481629557
5.380107666
5.282072306
5.187433623
5.096240733
5.008471119
4.923930439
4.842432648
4.763699177
4.687636518
4.61407202
4.543274231
4.475227629
4.409804465
4.346800851
4.286109088
4.227869989
4.171988368
4.118263505
4.06712008
4.018450603
3.971968944
3.927441257
3.885418642
3.844856909
3.806498295
3.769678022
3.733949489
3.693796211
3.64713855
3.607648373
3.568661171
3.530270983
3.492295065
)


101
(
8263.33716
201.1543558
84.21833856
52.09678747
39.55877197
33.74105931
30.6474254
28.8590705
27.70116723
26.84748708
26.13914819
25.49741226
24.87861859
24.26661978
23.65416026
23.03765251
22.41733412
21.79626273
21.174788
20.55851042
19.94696395
19.34245205
18.74845023
18.16531154
17.5939974
17.0357683
16.49175135
15.96283651
15.45008081
14.95377391
14.47427022
14.01162358
13.5653246
13.13814846
12.72768866
12.33379669
11.95569394
11.59255166
11.24446088
10.9117029
10.59387603
10.28968118
9.998937409
9.720307041
9.452495045
9.195299295
8.948284325
8.711676769
8.485115684
8.268308739
8.060530463
7.861263982
7.669994269
7.48633921
7.31000713
7.140744852
6.978440655
6.822420518
6.672473708
6.528009351
6.388770673
6.254552922
6.125245124
6.000764213
5.880864806
5.765383758
5.654062395
5.546660575
5.44294089
5.342701786
5.24580716
5.152291561
5.0621572
4.975275524
4.89154566
4.810728058
4.7326457
4.656981343
4.583947005
4.513637803
4.44605326
4.381002421
4.318214257
4.257818758
4.199862779
4.144065632
4.090733459
4.039941743
3.991443251
3.944804216
3.9007322
3.858115126
3.817668293
3.778831654
3.741051173
3.698890073
3.650306535
3.610396763
3.570961967
3.532212895
3.493909988
)


101
(
8263.337171
201.3598016
84.35994506
52.10251608
39.46223712
33.57861229
30.44775548
28.63518513
27.46684825
26.61318911
25.91230676
25.28320368
24.68098481
24.08763804
23.49490678
22.89884202
22.29925302
21.69865733
21.09723209
20.50029364
19.90729708
19.32046921
18.74320726
18.17582534
17.61920883
17.07451987
16.54282028
16.02500454
15.52218407
15.03471439
14.56294517
14.10687454
13.66601319
13.24324847
12.83641839
12.44558279
12.07002425
11.70883719
11.36199995
11.02972226
10.71172809
10.40701239
10.11570174
9.836624933
9.56839483
9.310527931
9.06235031
8.82408509
8.595562086
8.376703425
8.166860954
7.965536293
7.772173696
7.586308982
7.40762215
7.235907569
7.071122947
6.912684332
6.760427079
6.613741408
6.472283617
6.335759414
6.204047588
6.07710218
5.954744705
5.836826965
5.723109878
5.613366135
5.507369219
5.404885846
5.30573089
5.209883938
5.117346577
5.028025803
4.941896411
4.858818168
4.778629242
4.700872692
4.625614006
4.552969295
4.483077712
4.415846999
4.350913813
4.28827831
4.228112363
4.17017221
4.114610743
4.061561713
4.010962773
3.962141582
3.915902723
3.871168881
3.828567456
3.787623824
3.747715695
3.703495486
3.652925984
3.612597594
3.572766872
3.533810273
3.495407416
)


101
(
8263.337192
201.57003
84.50591928
52.11271502
39.36970591
33.41932402
30.25026787
28.41285341
27.23313236
26.37848368
25.68408101
25.06669555
24.48021667
23.90485734
23.33130819
22.75518422
22.17588202
21.59541761
21.01377021
20.43597368
19.86140321
19.2921854
18.73162547
18.18003089
17.63823168
17.10729546
16.58819114
16.08178086
15.58921429
15.11093329
14.64732941
14.19835895
13.76348046
13.34559894
12.94276837
12.55526772
12.18255639
11.82370884
11.47861274
11.14735076
10.82962451
10.52460925
10.232751
9.95316682
9.684562893
9.426288214
9.177347342
8.93778976
8.707506707
8.486660238
8.274786577
8.071449898
7.876073641
7.688122161
7.507199232
7.333083484
7.165807192
7.004872534
6.850217096
6.70125653
6.557600797
6.418828929
6.284768634
6.15537051
6.030513606
5.910107559
5.793930047
5.681765376
5.573402691
5.468604418
5.367145065
5.268959482
5.174014295
5.082206721
4.993550772
4.90801989
4.82554339
4.745618069
4.668152004
4.593158033
4.5208463
4.451273039
4.384107495
4.319180868
4.256670049
4.196479643
4.138653341
4.08324426
4.030435948
3.979374114
3.930864079
3.883937766
3.839120179
3.795988222
3.753882056
3.707549833
3.654962889
3.614329852
3.574265536
3.535328344
3.497000587
)


101
(
8263.338088
201.7868217
84.65614992
52.12747927
39.28128069
33.26329819
30.05506342
28.1921615
27.00012748
26.14348952
25.45459449
24.84800473
24.27641552
23.71835301
23.16342038
22.6067262
22.04725689
21.48655965
20.92439589
20.36552422
19.80923736
19.25754315
18.71363534
18.17782761
17.65091993
17.13390564
16.6276521
16.1329504
15.65095244
15.18218303
14.72711358
14.28571079
13.85736299
13.44489768
13.04650148
12.66265482
12.29305075
11.93686404
11.59392146
11.2641907
10.94725149
10.64232122
10.35007248
10.06994775
9.800916239
9.542332316
9.292961358
9.052524239
8.820812869
8.598127507
8.384256416
8.17892513
7.981584316
7.79165509
7.608642811
7.432252787
7.262524497
7.099055664
6.941903776
6.790575004
6.64467593
6.503693503
6.367342309
6.235540448
6.108173782
5.985229062
5.866521291
5.751866392
5.641052732
5.533843263
5.430004422
5.329444938
5.232090659
5.137790483
5.046546717
4.958410782
4.873443348
4.791195738
4.711464444
4.634121553
4.559331352
4.487284143
4.417763768
4.350497892
4.285551145
4.222973703
4.162834983
4.105002838
4.049868324
3.996522741
3.945669232
3.896461078
3.849366149
3.803993141
3.759636016
3.71116919
3.656552866
3.615806872
3.575728835
3.537055851
3.499016644
)


101
(
8263.332802
202.0086166
84.81046583
52.14686488
39.19703858
33.11061838
29.86222566
27.97317984
26.76792319
25.90830849
25.223955
24.6272438
24.06967458
23.52819075
22.99128725
22.45350286
21.91340421
21.37208775
20.82909559
20.28890577
19.7507394
19.21647153
18.68915925
18.16911593
17.65713382
17.15416285
16.66097985
16.17827781
15.70716293
15.2482164
14.80200932
14.3685735
13.94726025
13.54076786
13.14730889
12.76751387
12.40129786
12.04803839
11.70758038
11.37982095
11.06420096
10.75985592
10.46753817
10.18696098
9.917433556
9.65851575
9.408889842
9.167959769
8.935239843
8.710993315
8.495222615
8.28790219
8.088613562
7.896775859
7.711810204
7.533313724
7.361253116
7.195282991
7.035568665
6.881751681
6.733505502
6.590289684
6.451693924
6.317543075
6.187697278
6.062188565
5.940892816
5.82366868
5.710322559
5.600610924
5.494300931
5.391297021
5.291500113
5.194709878
5.100871547
5.010053495
4.922436274
4.83767744
4.755548742
4.675817496
4.598535335
4.523929337
4.451929884
4.382262213
4.31483736
4.249749474
4.187228208
4.126940707
4.069368096
4.013698433
3.960462532
3.908907047
3.859465406
3.811821104
3.765173781
3.714549983
3.657916111
3.617302509
3.577456682
3.539276159
3.502358553
)


101
(
8263.338943
202.2343567
84.96937424
52.1710869
39.117177
32.96147081
29.67192898
27.75606129
26.53668934
25.67312175
24.99234562
24.40459731
23.86016382
23.33451316
22.81502667
22.29561853
21.77441691
21.25207856
20.72792375
20.20615003
19.68591398
19.1689549
18.65817205
18.15385886
17.65680725
17.16795572
16.68801534
16.21757435
15.75765171
15.30883917
14.87179879
14.44666896
14.03282394
13.63283265
13.24486096
12.86958572
12.5071065
12.15703066
11.81933359
11.49390392
11.18007473
10.87684441
10.58491922
10.30415673
10.03415742
9.774816999
9.524949766
9.283798261
9.050491674
8.825088641
8.607634976
8.39836578
8.197120949
8.003397663
7.816576378
7.636136635
7.461927219
7.293555006
7.131290966
6.974894173
6.824172213
6.678624683
6.537781
6.401331167
6.269059175
6.140998397
6.017079264
5.897218404
5.781259084
5.668961516
5.560084494
5.454541459
5.352229868
5.252921811
5.156501887
5.062993618
4.972636846
4.88520705
4.800532266
4.718318181
4.638524221
4.561313406
4.486734694
4.414592694
4.344675159
4.277008486
4.2120159
4.149254488
4.089153887
4.031111585
3.975467773
3.92152675
3.869683087
3.819739323
3.770773921
3.71797424
3.659350845
3.619113848
3.579725692
3.542239325
3.505289406
)


101
(
8263.338965
202.4653519
85.13279483
52.20013268
39.04172173
32.81589725
29.48421837
27.54083559
26.30647696
25.43800047
24.75984068
24.18014086
23.64795196