/*--------------------------------*- C++ -*----------------------------------*\
| =========                 |                                                 |
| \\      /  F ield         | OpenFOAM: The Open Source CFD Toolbox           |
|  \\    /   O peration     | Version:  2.3.1                                 |
|   \\  /    A nd           | Web:      www.OpenFOAM.org                      |
|    \\/     M anipulation  |                                                 |
\*---------------------------------------------------------------------------*/
FoamFile
{
    version     2.0;
    format      ascii;
    class       dictionary;
    location    "constant";
    object      PM19;
}
// * * * * * * * * * * * * * * * * * * * * * * * * * * * * * * * * * * * * * //

PM19_table
101
(

101
(
2.044661741e-14
1.382430814e-15
-1.220231522e-15
-7.149044536e-16
-5.760522053e-17
5.959862278e-16
1.521739249e-16
4.853654375e-16
4.516705719e-16
6.492571064e-16
7.602812806e-16
1.086685165e-15
1.241588968e-15
1.579047855e-15
1.772495947e-15
1.856433111e-15
1.831697446e-15
1.618402743e-15
1.420003045e-15
1.167347122e-15
1.007858124e-15
8.76540111e-16
8.682285245e-16
9.155381807e-16
9.820167078e-16
1.041193674e-15
1.05652681e-15
1.058967694e-15
1.01017907e-15
9.435964703e-16
8.454628663e-16
7.071245911e-16
7.887678814e-16
6.214762997e-16
4.450995744e-16
-4.160920682e-16
-3.938518164e-16
2.495608981e-15
1.68426989e-15
8.154174689e-16
6.140503991e-16
5.832709783e-16
5.693517133e-16
5.499417662e-16
4.84558045e-16
4.208989309e-16
3.391968863e-16
2.794884724e-16
2.089317293e-16
1.603803642e-16
1.067173895e-16
5.326200457e-17
7.369757585e-18
-2.87252652e-17
-6.30738796e-17
-1.468950744e-16
-1.518146131e-16
-2.174412146e-16
-2.551286098e-16
-3.060958893e-16
-3.590286094e-16
-3.916612396e-16
-4.368821898e-16
-4.805614768e-16
-5.274926881e-16
-5.644097758e-16
-5.975709944e-16
-6.574244374e-16
-6.959379298e-16
-7.411592527e-16
-7.976628166e-16
-8.716403399e-16
-9.331001385e-16
-1.410090047e-15
-8.780487491e-16
-4.097521246e-17
-1.822148793e-16
-5.050160965e-16
-6.034271564e-16
-6.597932461e-16
-7.686215122e-16
-8.912570708e-16
-1.314978385e-15
-5.03157351e-16
-1.01843298e-16
-3.72801743e-16
-5.478458711e-16
-7.052734758e-16
-1.252022089e-15
-3.202641563e-16
-2.489601438e-16
-8.598694417e-16
-7.051038678e-16
-9.505988731e-16
-5.648417409e-16
-2.7389166e-16
2.79741898e-16
3.99290244e-22
-3.25517656e-32
-2.743136377e-33
6.334162571e-32
)


101
(
2.007713251e-14
1.210178468e-15
-1.239859587e-15
-5.711432341e-16
2.02235528e-16
9.285459103e-16
5.924702938e-16
9.481051764e-16
9.207240478e-16
1.056351833e-15
1.059236801e-15
1.202546489e-15
1.15808455e-15
1.250161645e-15
1.225459797e-15
1.141697967e-15
1.012034105e-15
7.798108219e-16
5.978991901e-16
3.932686773e-16
2.647293343e-16
1.43385722e-16
9.231014013e-17
6.121396521e-17
3.403511327e-17
1.1123448e-19
-5.636080924e-17
-1.07934375e-16
-1.771605095e-16
-2.393267804e-16
-3.05715657e-16
-3.800746589e-16
-3.073599566e-16
-3.766089098e-16
-4.321985893e-16
-9.092409364e-16
-9.05741796e-16
6.634057032e-16
2.530778409e-16
7.014460036e-17
-5.305624879e-17
-8.118492302e-17
-8.646719048e-17
-9.552189368e-17
-1.332955813e-16
-1.733478646e-16
-2.267206981e-16
-2.676317695e-16
-3.167949794e-16
-3.536243442e-16
-3.953937122e-16
-4.346009508e-16
-4.707565319e-16
-5.051178842e-16
-5.427404991e-16
-6.037434053e-16
-6.296645068e-16
-6.881288749e-16
-7.251032791e-16
-7.76476463e-16
-8.243942961e-16
-8.674736818e-16
-9.138832176e-16
-9.591058876e-16
-1.014662363e-15
-1.067419489e-15
-1.115507236e-15
-1.16941344e-15
-1.218002213e-15
-1.272258811e-15
-1.322569518e-15
-1.369103707e-15
-1.403528552e-15
-1.597874909e-15
-1.444297728e-15
-1.261163475e-15
-1.261906725e-15
-1.258104988e-15
-1.278596253e-15
-1.325266545e-15
-1.395152683e-15
-1.457832001e-15
-1.642947279e-15
-1.465008762e-15
-1.4214257e-15
-1.331791492e-15
-1.308666001e-15
-1.368793184e-15
-1.560682007e-15
-1.4271049e-15
-1.507870629e-15
-1.489732665e-15
-1.525685025e-15
-1.713549016e-15
-1.506621531e-15
-6.952870779e-16
6.394866862e-16
5.322604898e-16
5.609248676e-16
5.883999526e-16
5.871698777e-16
)


101
(
1.970810741e-14
1.063149082e-15
-1.29023457e-15
-6.621233108e-16
3.402457915e-17
6.616846096e-16
2.797703158e-16
4.871937941e-16
3.71924945e-16
3.802813462e-16
2.792526609e-16
2.932120627e-16
1.612878827e-16
1.304769793e-16
2.659805959e-17
-1.286025983e-16
-3.194010672e-16
-5.868141478e-16
-8.218945343e-16
-1.062587075e-15
-1.242246966e-15
-1.400526989e-15
-1.501427719e-15
-1.565255809e-15
-1.610535765e-15
-1.649240559e-15
-1.693879003e-15
-1.730411988e-15
-1.770188466e-15
-1.803711429e-15
-1.835802127e-15
-1.872943008e-15
-1.823364853e-15
-1.819372923e-15
-1.833894397e-15
-2.089138834e-15
-2.259457248e-15
-1.412604034e-15
-1.167146997e-15
-1.24866326e-15
-1.347941191e-15
-1.398222567e-15
-1.416446008e-15
-1.424676808e-15
-1.44762302e-15
-1.48400403e-15
-1.529371334e-15
-1.574297991e-15
-1.621105405e-15
-1.665620253e-15
-1.70993173e-15
-1.755503966e-15
-1.802135067e-15
-1.850576833e-15
-1.901160471e-15
-1.962624862e-15
-2.015593499e-15
-2.074452775e-15
-2.131846287e-15
-2.19070697e-15
-2.252464627e-15
-2.311820128e-15
-2.372872643e-15
-2.438933096e-15
-2.511429204e-15
-2.580424414e-15
-2.645584598e-15
-2.712306077e-15
-2.782465615e-15
-2.854201297e-15
-2.924898089e-15
-2.992360555e-15
-3.051039331e-15
-3.161141201e-15
-3.207700562e-15
-3.169178853e-15
-3.140406806e-15
-3.106918101e-15
-3.07070606e-15
-3.075263472e-15
-3.130886463e-15
-3.199630187e-15
-3.302920582e-15
-3.345961573e-15
-3.342420912e-15
-3.285160871e-15
-3.193425697e-15
-3.168587953e-15
-3.277025372e-15
-3.347340675e-15
-3.380998481e-15
-3.403457907e-15
-3.441922693e-15
-3.635333518e-15
-3.385543307e-15
-1.66097254e-15
4.063736256e-16
5.482913906e-16
5.346356095e-16
5.226654507e-16
5.242913577e-16
)


101
(
1.933957692e-14
9.18092356e-16
-1.341089234e-15
-7.507466409e-16
-1.28570856e-16
4.04498453e-16
-2.186650443e-17
4.832976964e-17
-1.524285057e-16
-2.607778096e-16
-4.594046909e-16
-5.625022944e-16
-7.764601923e-16
-9.152508142e-16
-1.093723298e-15
-1.312480697e-15
-1.557059934e-15
-1.856146112e-15
-2.132143396e-15
-2.402990616e-15
-2.621006023e-15
-2.808998362e-15
-2.94806623e-15
-3.040870705e-15
-3.102975804e-15
-3.146835988e-15
-3.182391617e-15
-3.203970723e-15
-3.218261011e-15
-3.22280617e-15
-3.220581745e-15
-3.220992268e-15
-3.16978712e-15
-3.123792513e-15
-3.086503201e-15
-3.244162263e-15
-3.399996899e-15
-2.953927239e-15
-2.56915357e-15
-2.45541426e-15
-2.465770452e-15
-2.497832984e-15
-2.514754398e-15
-2.520491165e-15
-2.534550315e-15
-2.563059714e-15
-2.599770564e-15
-2.640526384e-15
-2.682008536e-15
-2.72561964e-15
-2.76905435e-15
-2.815052711e-15
-2.862959534e-15
-2.913570936e-15
-2.968523322e-15
-3.027786951e-15
-3.089720761e-15
-3.153917343e-15
-3.219432135e-15
-3.284578862e-15
-3.352928743e-15
-3.422276346e-15
-3.493449452e-15
-3.568362859e-15
-3.64680313e-15
-3.724003632e-15
-3.799241479e-15
-3.876637924e-15
-3.958811387e-15
-4.043439658e-15
-4.125441969e-15
-4.208364764e-15
-4.283068157e-15
-4.37166856e-15
-4.459568946e-15
-4.516870154e-15
-4.546712076e-15
-4.541505854e-15
-4.499114272e-15
-4.464472818e-15
-4.480278412e-15
-4.539033081e-15
-4.624906242e-15
-4.709796629e-15
-4.773657379e-15
-4.789693253e-15
-4.714850222e-15
-4.62145027e-15
-4.627988025e-15
-4.71478747e-15
-4.829307522e-15
-4.884589176e-15
-4.939571113e-15
-5.082143894e-15
-4.524763555e-15
-2.200056761e-15
2.322815371e-16
3.714365304e-16
3.898559635e-16
3.940625377e-16
3.856773352e-16
)


101
(
1.897157705e-14
7.750416357e-16
-1.392408588e-15
-8.370879771e-16
-2.856970848e-16
1.56711174e-16
-3.127793394e-16
-3.698027692e-16
-6.537022903e-16
-8.696747754e-16
-1.16040927e-15
-1.370369814e-15
-1.661778594e-15
-1.896620001e-15
-2.145696117e-15
-2.42240681e-15
-2.715365265e-15
-3.044038311e-15
-3.353116569e-15
-3.649248654e-15
-3.896805304e-15
-4.108952017e-15
-4.277915393e-15
-4.396227209e-15
-4.475023139e-15
-4.525251513e-15
-4.555132281e-15
-4.564349514e-15
-4.557637678e-15
-4.535453855e-15
-4.503185835e-15
-4.466120547e-15
-4.398041544e-15
-4.323203365e-15
-4.259169355e-15
-4.340610598e-15
-4.408652668e-15
-4.187536482e-15
-3.843380243e-15
-3.608144236e-15
-3.510526939e-15
-3.484582036e-15
-3.476487131e-15
-3.470911865e-15
-3.473593333e-15
-3.489938134e-15
-3.51548164e-15
-3.547236478e-15
-3.582178595e-15
-3.620194224e-15
-3.659068342e-15
-3.700722e-15
-3.745790219e-15
-3.794858934e-15
-3.847877495e-15
-3.903880673e-15
-3.967157398e-15
-4.032192676e-15
-4.099942262e-15
-4.167637032e-15
-4.238564763e-15
-4.312768289e-15
-4.388862883e-15
-4.469162927e-15
-4.551587376e-15
-4.634575929e-15
-4.718600692e-15
-4.805158328e-15
-4.893382279e-15
-4.984490602e-15
-5.073849104e-15
-5.165735535e-15
-5.252110372e-15
-5.339332955e-15
-5.431741159e-15
-5.523311996e-15
-5.608707642e-15
-5.664185077e-15
-5.658792327e-15
-5.617315006e-15
-5.592936959e-15
-5.624384533e-15
-5.699648605e-15
-5.789943787e-15
-5.877572798e-15
-5.949669507e-15
-5.944120594e-15
-5.865314138e-15
-5.80795985e-15
-5.855449173e-15
-5.970593152e-15
-6.089988634e-15
-6.126559291e-15
-6.264974931e-15
-5.492085933e-15
-2.743584865e-15
-2.351434309e-17
2.708031651e-16
4.014334033e-16
5.279390946e-16
5.394320687e-16
)


101
(
1.860414436e-14
6.340223163e-16
-1.444172265e-15
-9.212190359e-16
-4.374919387e-16
-8.1934422e-17
-5.932826714e-16
-7.683843958e-16
-1.133120711e-15
-1.448871367e-15
-1.826907335e-15
-2.13541573e-15
-2.500233848e-15
-2.821792838e-15
-3.13800115e-15
-3.46855698e-15
-3.806362657e-15
-4.163483816e-15
-4.500243122e-15
-4.818094005e-15
-5.089148581e-15
-5.320964718e-15
-5.513295853e-15
-5.653614535e-15
-5.748076588e-15
-5.806078255e-15
-5.833985133e-15
-5.833860362e-15
-5.810121733e-15
-5.765233728e-15
-5.705727214e-15
-5.633751591e-15
-5.542167291e-15
-5.43842048e-15
-5.33816168e-15
-5.325711998e-15
-5.351437679e-15
-5.227774443e-15
-4.958898878e-15
-4.691066882e-15
-4.509468498e-15
-4.409318023e-15
-4.35335444e-15
-4.319489496e-15
-4.301760487e-15
-4.301282873e-15
-4.314183516e-15
-4.336931835e-15
-4.36427537e-15
-4.39382865e-15
-4.425199299e-15
-4.459607803e-15
-4.498873038e-15
-4.543596345e-15
-4.593329554e-15
-4.645908125e-15
-4.704722296e-15
-4.768307025e-15
-4.834540448e-15
-4.901194239e-15
-4.97330373e-15
-5.049594002e-15
-5.127932226e-15
-5.210778904e-15
-5.295827891e-15
-5.382813193e-15
-5.471355541e-15
-5.561571861e-15
-5.656409054e-15
-5.752825427e-15
-5.848342484e-15
-5.945608043e-15
-6.040327783e-15
-6.131884362e-15
-6.225363022e-15
-6.326885745e-15
-6.438215509e-15
-6.534718948e-15
-6.584133904e-15
-6.577413307e-15
-6.545109293e-15
-6.544166918e-15
-6.59524048e-15
-6.682686157e-15
-6.778693964e-15
-6.875291137e-15
-6.929399822e-15
-6.894059394e-15
-6.828890859e-15
-6.82357681e-15
-6.921017048e-15
-7.065450896e-15
-7.138020805e-15
-7.278713357e-15
-6.341650048e-15
-3.167476082e-15
-6.000341166e-17
4.099005622e-16
3.259466966e-16
2.48185668e-16
2.447718062e-16
)


101
(
1.823731701e-14
4.951105177e-16
-1.49635831e-15
-1.003209919e-15
-5.841523863e-16
-3.119034696e-16
-8.641105824e-16
-1.148972155e-15
-1.591847085e-15
-2.000290323e-15
-2.461317748e-15
-2.861067734e-15
-3.295759882e-15
-3.696106342e-15
-4.076173485e-15
-4.457326775e-15
-4.836919015e-15
-5.221578731e-15
-5.582428425e-15
-5.919218418e-15
-6.209322244e-15
-6.457095571e-15
-6.667233128e-15
-6.825548483e-15
-6.933735084e-15
-6.999900768e-15
-7.028862553e-15
-7.022894275e-15
-6.986244782e-15
-6.922380088e-15
-6.838008895e-15
-6.737633102e-15
-6.620529446e-15
-6.489535608e-15
-6.357259455e-15
-6.276377574e-15
-6.244860105e-15
-6.152323075e-15
-5.946614794e-15
-5.690248334e-15
-5.462904963e-15
-5.295787451e-15
-5.181496514e-15
-5.104307251e-15
-5.054892098e-15
-5.031167368e-15
-5.027918839e-15
-5.039033913e-15
-5.056362107e-15
-5.076427927e-15
-5.098659774e-15
-5.123611195e-15
-5.155123701e-15
-5.19414795e-15
-5.238512615e-15
-5.285850338e-15
-5.340268087e-15
-5.399728798e-15
-5.462144912e-15
-5.527010808e-15
-5.598259963e-15
-5.673305518e-15
-5.751392868e-15
-5.834392751e-15
-5.92082041e-15
-6.00956703e-15
-6.100065288e-15
-6.193191013e-15
-6.291288129e-15
-6.391483536e-15
-6.49413978e-15
-6.596281117e-15
-6.69636128e-15
-6.792488099e-15
-6.889299477e-15
-6.994487677e-15
-7.11179249e-15
-7.227912685e-15
-7.322169295e-15
-7.367021718e-15
-7.360090658e-15
-7.340462378e-15
-7.361958629e-15
-7.436173833e-15
-7.534650569e-15
-7.63670742e-15
-7.725215426e-15
-7.753712573e-15
-7.708632791e-15
-7.67204707e-15
-7.735671871e-15
-7.881002867e-15
-8.00093764e-15
-8.147876895e-15
-7.01665585e-15
-3.481034033e-15
-2.06536949e-16
3.43773989e-16
3.068547664e-16
2.786346041e-16
2.888112515e-16
)


101
(
1.787113378e-14
5.554484699e-15
1.504063641e-15
-1.08312759e-15
-7.258920185e-16
-5.33776818e-16
-1.126356682e-15
-1.513673744e-15
-2.031300201e-15
-2.526041871e-15
-3.066262096e-15
-3.551128244e-15
-4.052729419e-15
-4.525279734e-15
-4.966113329e-15
-5.395241983e-15
-5.813813563e-15
-6.225064531e-15
-6.607497443e-15
-6.961054473e-15
-7.266930297e-15
-7.527528023e-15
-7.750149148e-15
-7.922178677e-15
-8.041620979e-15
-8.115502326e-15
-8.147721933e-15
-8.139693341e-15
-8.094768838e-15
-8.016531371e-15
-7.911957361e-15
-7.787141202e-15
-7.645485126e-15
-7.489152858e-15
-7.328341521e-15
-7.195433761e-15
-7.106172606e-15
-7.005415665e-15
-6.83550463e-15
-6.603983269e-15
-6.361759627e-15
-6.149231502e-15
-5.980193883e-15
-5.8521027e-15
-5.760873862e-15
-5.705124727e-15
-5.67926835e-15
-5.674944907e-15
-5.681204146e-15
-5.691499387e-15
-5.702621429e-15
-5.717128313e-15
-5.739673369e-15
-5.770001344e-15
-5.806814614e-15
-5.848894104e-15
-5.897823045e-15
-5.951448789e-15
-6.00945742e-15
-6.070541683e-15
-6.138321084e-15
-6.210981124e-15
-6.287021582e-15
-6.368967576e-15
-6.45516627e-15
-6.544665313e-15
-6.637406302e-15
-6.732890513e-15
-6.832639608e-15
-6.935628502e-15
-7.041162279e-15
-7.145776814e-15
-7.249896849e-15
-7.351029257e-15
-7.451903194e-15
-7.560488241e-15
-7.679697417e-15
-7.802878693e-15
-7.919773644e-15
-8.006793083e-15
-8.043072073e-15
-8.034124893e-15
-8.033722424e-15
-8.084827012e-15
-8.180770715e-15
-8.284175975e-15
-8.386535444e-15
-8.460339632e-15
-8.454990398e-15
-8.421081231e-15
-8.44879962e-15
-8.570151935e-15
-8.722326931e-15
-8.876455654e-15
-7.612592994e-15
-3.843408132e-15
-3.524464594e-16
3.079946964e-16
2.718029376e-16
2.497438454e-16
2.702564636e-16
)


101
(
1.7505635e-14
5.415151847e-15
1.450371275e-15
-1.161074213e-15
-8.628862135e-16
-7.478897169e-16
-1.380603771e-15
-1.863908994e-15
-2.45256001e-15
-3.027803353e-15
-3.64373648e-15
-4.208687396e-15
-4.774578918e-15
-5.313990716e-15
-5.812561725e-15
-6.287511478e-15
-6.742759911e-15
-7.179678395e-15
-7.581911473e-15
-7.950683134e-15
-8.270069059e-15
-8.541156886e-15
-8.771837355e-15
-8.954157929e-15
-9.083130547e-15
-9.164752985e-15
-9.201897584e-15
-9.194577285e-15
-9.14488355e-15
-9.055975402e-15
-8.934977376e-15
-8.789165832e-15
-8.624621915e-15
-8.444535136e-15
-8.256894207e-15
-8.081773044e-15
-7.940290839e-15
-7.812074132e-15
-7.652277657e-15
-7.441939021e-15
-7.202676447e-15
-6.965797563e-15
-6.75352412e-15
-6.575928143e-15
-6.437674627e-15
-6.341923151e-15
-6.28594374e-15
-6.261716763e-15
-6.254526554e-15
-6.253512648e-15
-6.253917704e-15
-6.258853712e-15
-6.270741475e-15
-6.291105394e-15
-6.320182156e-15
-6.354490325e-15
-6.396006304e-15
-6.443009499e-15
-6.495974732e-15
-6.553156793e-15
-6.616817302e-15
-6.685607479e-15
-6.758555858e-15
-6.838349127e-15
-6.923767175e-15
-7.013426485e-15
-7.106679441e-15
-7.201755224e-15
-7.300418387e-15
-7.404015455e-15
-7.511851443e-15
-7.620924733e-15
-7.728703559e-15
-7.831958679e-15
-7.935443115e-15
-8.047831042e-15
-8.168478227e-15
-8.292974619e-15
-8.417221814e-15
-8.530357528e-15
-8.609158312e-15
-8.633560241e-15
-8.628765975e-15
-8.657722113e-15
-8.739190667e-15
-8.844157693e-15
-8.953882082e-15
-9.049649578e-15
-9.089198599e-15
-9.067311151e-15
-9.066886286e-15
-9.171916348e-15
-9.348206003e-15
-9.506076661e-15
-8.139732982e-15
-4.093084456e-15
-4.45805342e-16
2.377761791e-16
1.755738215e-16
1.162596295e-16
1.312617949e-16
)


101
(
1.714086166e-14
9.145221908e-17
-1.655218097e-15
7.380426102e-16
-9.954137658e-16
-9.545578498e-16
-1.627004049e-15
-2.200184512e-15
-2.856665099e-15
-3.507456313e-15
-4.195638767e-15
-4.835966036e-15
-5.463545198e-15
-6.065245609e-15
-6.618674615e-15
-7.137592235e-15
-7.62761339e-15
-8.089433551e-15
-8.510241724e-15
-8.893133612e-15
-9.224523275e-15
-9.50482612e-15
-9.741662099e-15
-9.931809557e-15
-1.006942288e-14
-1.015919181e-14
-1.020207955e-14
-1.019665363e-14
-1.014403792e-14
-1.004695507e-14
-9.912253503e-15
-9.747751221e-15
-9.56131742e-15
-9.35863299e-15
-9.14581238e-15
-8.936410079e-15
-8.75115227e-15
-8.588645945e-15
-8.419270901e-15
-8.217664407e-15
-7.985617759e-15
-7.739322572e-15
-7.499954319e-15
-7.282453092e-15
-7.098938052e-15
-6.958960513e-15
-6.865496662e-15
-6.8135406e-15
-6.787209304e-15
-6.773591553e-15
-6.764871946e-15
-6.760636439e-15
-6.762124743e-15
-6.772571635e-15
-6.791040058e-15
-6.816521767e-15
-6.85050734e-15
-6.890459098e-15
-6.938051244e-15
-6.99020897e-15
-7.048937508e-15
-7.113198572e-15
-7.182780987e-15
-7.259057663e-15
-7.341295672e-15
-7.428623613e-15
-7.520816318e-15
-7.615335374e-15
-7.714247344e-15
-7.818695059e-15
-7.927484586e-15
-8.037941813e-15
-8.147096567e-15
-8.25297585e-15
-8.359788927e-15
-8.473572295e-15
-8.59549326e-15
-8.722578969e-15
-8.848573754e-15
-8.971473049e-15
-9.080684372e-15
-9.145538098e-15
-9.157184386e-15
-9.172507908e-15
-9.232345145e-15
-9.335553652e-15
-9.447487651e-15
-9.553651031e-15
-9.62687011e-15
-9.630246834e-15
-9.621907486e-15
-9.708633349e-15
-9.887108424e-15
-1.005250087e-14
-8.604163324e-15
-4.363126779e-15
-5.800575951e-16
2.001484563e-16
9.649234923e-17
-2.462515883e-17
-3.791982605e-17
)


101
(
1.677685642e-14
-3.854611114e-17
-1.708863718e-15
6.685917379e-16
-1.123712178e-15
-1.154083874e-15
-1.865701259e-15
-2.522933432e-15
-3.244660831e-15
-3.967010751e-15
-4.723829664e-15
-5.435021374e-15
-6.121603668e-15
-6.781571981e-15
-7.387182555e-15
-7.948457508e-15
-8.471543852e-15
-8.957496786e-15
-9.396109389e-15
-9.792550582e-15
-1.013509161e-14
-1.042435436e-14
-1.066766381e-14
-1.086358923e-14
-1.100928451e-14
-1.110710187e-14
-1.115540059e-14
-1.115199227e-14
-1.109774139e-14
-1.099482974e-14
-1.084918956e-14
-1.066847413e-14
-1.046179904e-14
-1.023834116e-14
-1.000278896e-14
-9.76490111e-15
-9.542688334e-15
-9.34351811e-15
-9.151107906e-15
-8.945005879e-15
-8.717514288e-15
-8.470987308e-15
-8.218711241e-15
-7.974216857e-15
-7.752723396e-15
-7.568789002e-15
-7.43210313e-15
-7.343902265e-15
-7.292343643e-15
-7.263381349e-15
-7.244600625e-15
-7.23106933e-15
-7.222590131e-15
-7.221515958e-15
-7.228929918e-15
-7.24692469e-15
-7.272693222e-15
-7.305613628e-15
-7.346382197e-15
-7.392737118e-15
-7.445874962e-15
-7.505182833e-15
-7.570477963e-15
-7.64167358e-15
-7.719542372e-15
-7.804619304e-15
-7.895233371e-15
-7.98949451e-15
-8.088037545e-15
-8.191148678e-15
-8.29930762e-15
-8.410494118e-15
-8.521981255e-15
-8.630145794e-15
-8.737956038e-15
-8.852253267e-15
-8.976371112e-15
-9.105743387e-15
-9.231653165e-15
-9.357668193e-15
-9.484144459e-15
-9.581770611e-15
-9.623653903e-15
-9.639570134e-15
-9.678648816e-15
-9.770147273e-15
-9.883584121e-15
-9.996560165e-15
-1.00941169e-14
-1.01246857e-14
-1.011742141e-14
-1.018754202e-14
-1.035915725e-14
-1.053700242e-14
-9.015678036e-15
-4.611679087e-15
-7.301171708e-16
1.091074457e-16
1.79242842e-17
-4.4877226e-17
-2.871306439e-18
)


101
(
1.641366144e-14
-1.661832504e-16
-1.762812637e-15
-1.384395238e-15
-1.24787262e-15
-1.34658871e-15
-2.096727e-15
-2.832632897e-15
-3.617354585e-15
-4.407746004e-15
-5.229523709e-15
-6.007625087e-15
-6.750686584e-15
-7.465473307e-15
-8.120879736e-15
-8.723103769e-15
-9.277962518e-15
-9.787390188e-15
-1.024357299e-14
-1.065359022e-14
-1.100640995e-14
-1.130407022e-14
-1.15533975e-14
-1.175300517e-14
-1.190449827e-14
-1.200843081e-14
-1.206161328e-14
-1.206123402e-14
-1.200773135e-14
-1.190211496e-14
-1.174922888e-14
-1.155646784e-14
-1.133353715e-14
-1.109181876e-14
-1.083561945e-14
-1.057290983e-14
-1.031842086e-14
-1.008286542e-14
-9.860475463e-15
-9.639566356e-15
-9.409963943e-15
-9.165151021e-15
-8.908921085e-15
-8.649522194e-15
-8.399863577e-15
-8.176328261e-15
-7.994994364e-15
-7.865240989e-15
-7.782125071e-15
-7.732699009e-15
-7.701129538e-15
-7.677894966e-15
-7.659731661e-15
-7.647545092e-15
-7.645527946e-15
-7.654170558e-15
-7.670754687e-15
-7.69547111e-15
-7.729067253e-15
-7.769476868e-15
-7.816633794e-15
-7.870495655e-15
-7.930594144e-15
-7.997078703e-15
-8.070457004e-15
-8.152020955e-15
-8.240182652e-15
-8.333839956e-15
-8.43146455e-15
-8.533004642e-15
-8.640042779e-15
-8.751055909e-15
-8.862724346e-15
-8.972181223e-15
-9.081214848e-15
-9.197083416e-15
-9.323058888e-15
-9.452659134e-15
-9.579647676e-15
-9.707660218e-15
-9.840724803e-15
-9.959994414e-15
-1.003484189e-14
-1.006449777e-14
-1.009059224e-14
-1.016653018e-14
-1.027960467e-14
-1.039863717e-14
-1.050758294e-14
-1.056125987e-14
-1.056534696e-14
-1.062123056e-14
-1.07824706e-14
-1.097204715e-14
-9.396480311e-15
-4.876551911e-15
-8.828411092e-16
4.111577092e-17
-8.875252622e-17
-1.995502464e-16
-1.640635668e-16
)


101
(
1.605132625e-14
4.878910254e-15
-1.817038335e-15
-1.455574623e-15
-1.36798533e-15
-1.532165492e-15
-2.319922111e-15
-3.129504626e-15
-3.97590147e-15
-4.831182961e-15
-5.713590195e-15
-6.555240405e-15
-7.352428796e-15
-8.118793415e-15
-8.82176111e-15
-9.463786768e-15
-1.005016548e-14
-1.058333027e-14
-1.10573161e-14
-1.148088187e-14
-1.1842088e-14
-1.21460337e-14
-1.239903476e-14
-1.260040348e-14
-1.27550052e-14
-1.286314375e-14
-1.292152206e-14
-1.29260947e-14
-1.287634764e-14
-1.277150438e-14
-1.261540214e-14
-1.241545067e-14
-1.218126548e-14
-1.19243834e-14
-1.164944536e-14
-1.136425848e-14
-1.108099439e-14
-1.08111935e-14
-1.055662642e-14
-1.031389668e-14
-1.007416886e-14
-9.827581759e-15
-9.570712704e-15
-9.304904433e-15
-9.037256703e-15
-8.782498148e-15
-8.560126772e-15
-8.386667033e-15
-8.265975784e-15
-8.189827052e-15
-8.14117377e-15
-8.106853683e-15
-8.079606379e-15
-8.057750056e-15
-8.045565579e-15
-8.043094855e-15
-8.05078037e-15
-8.066866989e-15
-8.0935389e-15
-8.127357715e-15
-8.168578692e-15
-8.216676488e-15
-8.271311896e-15
-8.332578059e-15
-8.401822858e-15
-8.479396724e-15
-8.564085816e-15
-8.656051704e-15
-8.752200568e-15
-8.852536905e-15
-8.958413054e-15
-9.068057437e-15
-9.17853699e-15
-9.288552585e-15
-9.399202686e-15
-9.516351252e-15
-9.642619523e-15
-9.773281444e-15
-9.901767633e-15
-1.00302513e-14
-1.016547826e-14
-1.029715909e-14
-1.03977503e-14
-1.045063535e-14
-1.047714865e-14
-1.053588813e-14
-1.064153353e-14
-1.076598786e-14
-1.087996718e-14
-1.095388293e-14
-1.097352532e-14
-1.102353366e-14
-1.116937415e-14
-1.136612627e-14
-9.750249369e-15
-5.143982143e-15
-1.066611849e-15
-6.196658687e-17
-2.110613163e-16
-3.195253708e-16
-2.570943024e-16
)


101
(
1.568990044e-14
4.75039981e-15
-1.871496764e-15
-1.525200954e-15
-1.484116348e-15
-1.710921406e-15
-2.535224356e-15
-3.413810861e-15
-4.321214168e-15
-5.238724023e-15
-6.176868617e-15
-7.079185278e-15
-7.92832341e-15
-8.743169356e-15
-9.491649104e-15
-1.017263844e-14
-1.079110965e-14
-1.134917441e-14
-1.184141101e-14
-1.227862894e-14
-1.264585467e-14
-1.295324849e-14
-1.320726753e-14
-1.340947313e-14
-1.356627827e-14
-1.367769009e-14
-1.374101531e-14
-1.37511569e-14
-1.370655315e-14
-1.360490517e-14
-1.344925788e-14
-1.324652964e-14
-1.300528889e-14
-1.273651168e-14
-1.244509777e-14
-1.213977176e-14
-1.183129493e-14
-1.153100848e-14
-1.12453305e-14
-1.097642274e-14
-1.071936228e-14
-1.046506834e-14
-1.020648372e-14
-9.938710463e-15
-9.661958956e-15
-9.386190101e-15
-9.129892614e-15
-8.914143022e-15
-8.752007103e-15
-8.642039449e-15
-8.570148988e-15
-8.522142676e-15
-8.485826462e-15
-8.454898949e-15
-8.432372292e-15
-8.419873689e-15
-8.418350341e-15
-8.426009713e-15
-8.4447683e-15
-8.471816234e-15
-8.506908654e-15
-8.548856738e-15
-8.597740387e-15
-8.654396684e-15
-8.719418135e-15
-8.791467159e-15
-8.872375797e-15
-8.959673495e-15
-9.054596572e-15
-9.156053365e-15
-9.260536678e-15
-9.367964445e-15
-9.476561768e-15
-9.585923558e-15
-9.696988796e-15
-9.814845599e-15
-9.94268431e-15
-1.007350376e-14
-1.020208341e-14
-1.033182142e-14
-1.046769677e-14
-1.060451638e-14
-1.072220045e-14
-1.080123098e-14
-1.083801371e-14
-1.088313818e-14
-1.09774752e-14
-1.110371241e-14
-1.122308202e-14
-1.131250295e-14
-1.134728265e-14
-1.13977685e-14
-1.152548758e-14
-1.172635228e-14
-1.007993663e-14
-5.424706081e-15
-1.281558135e-15
-1.978083602e-16
-3.533419101e-16
-4.766192278e-16
-4.022477291e-16
)


101
(
1.532943006e-14
-5.341426338e-16
1.118596568e-15
-1.593310609e-15
-1.596296149e-15
-1.882903453e-15
-2.742746933e-15
-3.685949116e-15
-4.653702746e-15
-5.631199771e-15
-6.620952743e-15
-7.580515434e-15
-8.479844977e-15
-9.340821798e-15
-1.013321151e-14
-1.085253105e-14
-1.150314061e-14
-1.208671264e-14
-1.259730975e-14
-1.304688662e-14
-1.341868221e-14
-1.372830823e-14
-1.398282739e-14
-1.418550714e-14
-1.434403185e-14
-1.445831319e-14
-1.452576366e-14
-1.454059144e-14
-1.450091515e-14
-1.440395512e-14
-1.425205861e-14
-1.405036518e-14
-1.380530021e-14
-1.352796492e-14
-1.322303784e-14
-1.290053411e-14
-1.257060271e-14
-1.22440321e-14
-1.192958725e-14
-1.163268799e-14
-1.135325588e-14
-1.108483993e-14
-1.082007262e-14
-1.055069915e-14
-1.027098854e-14
-9.983987663e-15
-9.703172943e-15
-9.450603984e-15
-9.245996039e-15
-9.09627598e-15
-8.995029177e-15
-8.929047705e-15
-8.881572592e-15
-8.842028066e-15
-8.810530533e-15
-8.788579356e-15
-8.777332252e-15
-8.776025501e-15
-8.786000415e-15
-8.806209912e-15
-8.834527179e-15
-8.870111824e-15
-8.913351415e-15
-8.965847807e-15
-9.025843567e-15
-9.092730852e-15
-9.168678062e-15
-9.253303941e-15
-9.345497454e-15
-9.445402318e-15
-9.54870933e-15
-9.654265179e-15
-9.76148107e-15
-9.869368878e-15
-9.979525948e-15
-1.009766267e-14
-1.022598902e-14
-1.03562622e-14
-1.048625952e-14
-1.061537176e-14
-1.075080174e-14
-1.08902764e-14
-1.101790415e-14
-1.111751843e-14
-1.11717952e-14
-1.12133546e-14
-1.129384102e-14
-1.141630582e-14
-1.15413763e-14
-1.164050629e-14
-1.169143961e-14
-1.17419998e-14
-1.185181235e-14
-1.205422225e-14
-1.038975308e-14
-5.703343357e-15
-1.500306688e-15
-3.492746271e-16
-5.164713545e-16
-7.149251045e-16
-7.161392307e-16
)


101
(
1.496996628e-14
-6.515718159e-16
1.062030174e-15
-1.659925958e-15
-1.704572814e-15
-2.048176413e-15
-2.942601592e-15
-3.946275166e-15
-4.973752961e-15
-6.009373356e-15
-7.047632595e-15
-8.059985318e-15
-9.008213939e-15
-9.91401689e-15
-1.074923657e-14
-1.150640712e-14
-1.218825249e-14
-1.279652384e-14
-1.332452933e-14
-1.378330474e-14
-1.416016341e-14
-1.447305521e-14
-1.472987003e-14
-1.493309082e-14
-1.509289792e-14
-1.520973275e-14
-1.528004258e-14
-1.529820945e-14
-1.526306832e-14
-1.51718694e-14
-1.502581768e-14
-1.482765256e-14
-1.458174522e-14
-1.429918741e-14
-1.398411113e-14
-1.364784398e-14
-1.330019344e-14
-1.295132447e-14
-1.261090903e-14
-1.228652947e-14
-1.19814599e-14
-1.169300025e-14
-1.141637977e-14
-1.114268001e-14
-1.086207471e-14
-1.057095444e-14
-1.027587508e-14
-9.99533106e-15
-9.751218668e-15
-9.559507508e-15
-9.423191323e-15
-9.332841463e-15
-9.270354156e-15
-9.221736154e-15
-9.181793648e-15
-9.150339996e-15
-9.129665685e-15
-9.119032878e-15
-9.119956694e-15
-9.128907527e-15
-9.153438196e-15
-9.183037499e-15
-9.22127669e-15
-9.269260692e-15
-9.323441387e-15
-9.385641408e-15
-9.456485158e-15
-9.538797252e-15
-9.626973741e-15
-9.722180714e-15
-9.825368364e-15
-9.929559484e-15
-1.003620667e-14
-1.014253746e-14
-1.024969485e-14
-1.036649612e-14
-1.049317703e-14
-1.062514896e-14
-1.075553619e-14
-1.088319721e-14
-1.101899448e-14
-1.115837865e-14
-1.129039565e-14
-1.140640668e-14
-1.147940327e-14
-1.152442437e-14
-1.159287765e-14
-1.170691604e-14
-1.183410498e-14
-1.193932515e-14
-1.200690991e-14
-1.205644272e-14
-1.215306914e-14
-1.23514671e-14
-1.067692896e-14
-5.974650912e-15
-1.736377271e-15
-5.252686774e-16
-6.870004003e-16
-7.862142816e-16
-6.94716808e-16
)


101
(
1.461156288e-14
4.379225017e-15
-2.03602598e-15
-1.725055957e-15
-1.809006836e-15
-2.206896654e-15
-3.134920018e-15
-4.195132127e-15
-5.281245594e-15
-6.37352181e-15
-7.458168924e-15
-8.518659918e-15
-9.514611006e-15
-1.046451338e-14
-1.134169058e-14
-1.213627012e-14
-1.284826937e-14
-1.348008704e-14
-1.402452241e-14
-1.44896473e-14
-1.487319824e-14
-1.519105332e-14
-1.545161882e-14
-1.565538319e-14
-1.58156199e-14
-1.59339504e-14
-1.600583945e-14
-1.602664058e-14
-1.599629419e-14
-1.59116529e-14
-1.577203022e-14
-1.557850152e-14
-1.533449846e-14
-1.504996146e-14
-1.472845602e-14
-1.438221496e-14
-1.402057422e-14
-1.365305757e-14
-1.328958997e-14
-1.2939016e-14
-1.260695276e-14
-1.229488416e-14
-1.200080496e-14
-1.17174836e-14
-1.143424146e-14
-1.114287311e-14
-1.084233024e-14
-1.054363563e-14
-1.026721795e-14
-1.00354008e-14
-9.859867568e-15
-9.738316318e-15
-9.655671086e-15
-9.595384147e-15
-9.546514695e-15
-9.506363709e-15
-9.477010186e-15
-9.456646396e-15
-9.448021796e-15
-9.448194674e-15
-9.462994201e-15
-9.489596738e-15
-9.522959543e-15
-9.565122012e-15
-9.614279448e-15
-9.672331583e-15
-9.737175941e-15
-9.812356971e-15
-9.897487689e-15
-9.990264482e-15
-1.009129688e-14
-1.019525306e-14
-1.030075064e-14
-1.04053753e-14
-1.050987241e-14
-1.062279603e-14
-1.074819708e-14
-1.088045455e-14
-1.101053702e-14
-1.113916584e-14
-1.127430766e-14
-1.141019396e-14
-1.154447143e-14
-1.167112079e-14
-1.176089751e-14
-1.181498144e-14
-1.187486676e-14
-1.197637836e-14
-1.210158202e-14
-1.221272786e-14
-1.229439218e-14
-1.234319321e-14
-1.242904133e-14
-1.261843363e-14
-1.094122334e-14
-6.251420653e-15
-1.98316529e-15
-7.028004348e-16
-8.627316688e-16
-9.88499148e-16
-9.02050167e-16
)


101
(
1.4254274e-14
4.260530266e-15
-2.091149705e-15
-1.788706258e-15
-5.046261219e-16
-2.359210832e-15
-3.319831073e-15
-4.432860194e-15
-5.575299519e-15
-6.722559716e-15
-7.8535736e-15
-8.958124142e-15