/*--------------------------------*- C++ -*----------------------------------*\
| =========                 |                                                 |
| \\      /  F ield         | OpenFOAM: The Open Source CFD Toolbox           |
|  \\    /   O peration     | Version:  2.3.1                                 |
|   \\  /    A nd           | Web:      www.OpenFOAM.org                      |
|    \\/     M anipulation  |                                                 |
\*---------------------------------------------------------------------------*/
FoamFile
{
    version     2.0;
    format      ascii;
    class       dictionary;
    location    "constant";
    object      PM28;
}
// * * * * * * * * * * * * * * * * * * * * * * * * * * * * * * * * * * * * * //

PM28_table
101
(

101
(
-0.001738597614
-0.6469689344
-1.309486747
-2.277919108
-3.313727456
-4.230741192
-4.981417081
-5.683709901
-6.219441022
-6.642539378
-6.95499985
-7.17846886
-7.308431584
-7.396371984
-7.413591373
-7.382709082
-7.319926936
-7.234115278
-7.108021632
-6.987744477
-6.840877506
-6.687131325
-6.53577593
-6.379493723
-6.222543089
-6.067183561
-5.914311469
-5.764634079
-5.618536746
-5.4766554
-5.339136142
-5.20655196
-5.080196057
-4.952843802
-4.834077396
-4.719742798
-4.610275725
-4.506163795
-4.404558855
-4.305260114
-4.210361112
-4.122538453
-4.03609035
-3.953387761
-3.875548389
-3.799424783
-3.727279051
-3.656953409
-3.590064402
-3.525117818
-3.463392922
-3.403853064
-3.346591811
-3.291651303
-3.239020762
-3.188460253
-3.138573988
-3.092128478
-3.046330732
-3.002811755
-2.960490076
-2.919942381
-2.880959889
-2.843271454
-2.807000495
-2.771992037
-2.738375201
-2.706033978
-2.674692246
-2.644726166
-2.615800974
-2.58795681
-2.56095986
-2.535238597
-2.510739406
-2.487284781
-2.464436964
-2.442655338
-2.422035625
-2.402431485
-2.383830016
-2.365993984
-2.349263121
-2.333494687
-2.318605393
-2.304698879
-2.291892058
-2.280018851
-2.269179361
-2.259202246
-2.250226237
-2.242060715
-2.234869201
-2.228434438
-2.222772033
-2.215088464
-2.20444386
-2.189550005
-2.1747694
-2.160941636
-2.147091925
)


101
(
-0.00173859762
-0.6322847895
-1.28883684
-2.249025096
-3.276487255
-4.187406411
-4.934224766
-5.631776332
-6.167309199
-6.590665629
-6.904952599
-7.13087379
-7.264757129
-7.355200708
-7.377189844
-7.350634408
-7.291693898
-7.209518492
-7.088461086
-6.970315371
-6.827683795
-6.676853544
-6.527727393
-6.374033174
-6.219228747
-6.065720763
-5.914499813
-5.766266148
-5.621519967
-5.480740546
-5.344193782
-5.212347274
-5.086256112
-4.960830966
-4.842012518
-4.727969995
-4.618699661
-4.514547413
-4.41345437
-4.314875243
-4.220199712
-4.131669511
-4.045579312
-3.962917419
-3.884652579
-3.808715505
-3.736321291
-3.666129154
-3.599035558
-3.534132966
-3.472149026
-3.412480103
-3.355072491
-3.299929791
-3.247043473
-3.196243329
-3.146511483
-3.099542151
-3.053742508
-3.009928983
-2.967493156
-2.926713582
-2.887489942
-2.849622129
-2.813133452
-2.777933357
-2.744078244
-2.71150147
-2.679999396
-2.649781192
-2.620648959
-2.592612957
-2.565504396
-2.539551163
-2.514760714
-2.491024927
-2.468064645
-2.446082998
-2.425218311
-2.405378008
-2.386548722
-2.368572372
-2.351622323
-2.335653186
-2.320603104
-2.306481487
-2.293460517
-2.281412067
-2.270403675
-2.26023764
-2.251150647
-2.242785871
-2.235420087
-2.228861898
-2.223005784
-2.215198598
-2.204297815
-2.189387843
-2.174590645
-2.160738879
-2.146865782
)


101
(
-0.001738597624
-0.6031744036
-1.247814903
-2.191528688
-3.20229758
-4.100966036
-4.839969793
-5.527975898
-6.062780877
-6.486487083
-6.804181885
-7.034811357
-7.176292025
-7.271696519
-7.302899148
-7.284951424
-7.233653178
-7.158666071
-7.047566013
-6.93387238
-6.799560892
-6.654789236
-6.510096541
-6.361600374
-6.211238267
-6.061524417
-5.91368173
-5.768431836
-5.626424721
-5.487972772
-5.353450638
-5.223202971
-5.097906365
-4.975575871
-4.857398198
-4.744010329
-4.63521052
-4.53112379
-4.430835044
-4.333511117
-4.239464498
-4.150052577
-4.064336004
-3.981814326
-3.902967512
-3.827188644
-3.754454636
-3.684387269
-3.617014387
-3.552115072
-3.489749509
-3.429810843
-3.37212553
-3.316624087
-3.263280851
-3.212018726
-3.162379712
-3.114664321
-3.068685273
-3.024381326
-2.981654611
-2.940456585
-2.90077965
-2.862533324
-2.825627036
-2.790037247
-2.755732197
-2.722697231
-2.690837116
-2.660155129
-2.630597588
-2.602157649
-2.574759696
-2.548385723
-2.523078931
-2.498819254
-2.475549368
-2.453176178
-2.431841291
-2.411531043
-2.392249094
-2.373938757
-2.356573069
-2.340197439
-2.324800162
-2.310282366
-2.296824807
-2.284388819
-2.273035491
-2.262502589
-2.253132188
-2.244417897
-2.236669491
-2.229814325
-2.223595869
-2.21545221
-2.204041579
-2.189111373
-2.174294005
-2.160418882
-2.146522565
)


101
(
-0.001738597627
-0.5745656096
-1.207325539
-2.134604192
-3.128712475
-4.015075898
-4.746160802
-5.424649127
-5.958218153
-6.38210133
-6.70287891
-6.937985042
-7.086683001
-7.187144441
-7.226983034
-7.217576378
-7.173924887
-7.106064355
-7.004488333
-6.895906495
-6.769376462
-6.630992639
-6.490914627
-6.347500401
-6.201734763
-6.055946024
-5.911568832
-5.769402493
-5.630178522
-5.494187175
-5.361794572
-5.233298263
-5.109129984
-4.9889357
-4.872199136
-4.759666896
-4.651476773
-4.547663323
-4.447883625
-4.351485912
-4.258237407
-4.168709235
-4.083015118
-4.00064062
-3.921576681
-3.845712532
-3.772806934
-3.702683246
-3.635172011
-3.57017282
-3.507588449
-3.447383995
-3.389435953
-3.33363623
-3.27992239
-3.228241245
-3.178400975
-3.130294681
-3.083956854
-3.039266835
-2.996176124
-2.954603797
-2.914516452
-2.875871816
-2.838567539
-2.80258167
-2.767860423
-2.734388769
-2.702122234
-2.671021158
-2.641033302
-2.612167094
-2.584387651
-2.557625549
-2.531883843
-2.507159902
-2.483482279
-2.460716725
-2.43894425
-2.418167353
-2.39842785
-2.379710031
-2.361945038
-2.345159964
-2.329371521
-2.314481243
-2.300609335
-2.28772819
-2.275985591
-2.265088385
-2.255359732
-2.246313169
-2.238166257
-2.230941514
-2.224364042
-2.215765209
-2.203819873
-2.188890569
-2.174075316
-2.160212369
-2.146329089
)


101
(
-0.001738597471
-0.5464634556
-1.167374617
-2.078258114
-3.055737413
-3.929744023
-4.652809773
-5.321810359
-5.853661009
-6.277530314
-6.601075892
-6.840421893
-6.995969402
-7.101546884
-7.149506849
-7.148517099
-7.112508877
-7.051725449
-6.95926696
-6.856334616
-6.737176259
-6.605385062
-6.470164414
-6.331732116
-6.190657222
-6.048935643
-5.908124006
-5.769132772
-5.632754657
-5.499320771
-5.369170806
-5.242565553
-5.119781663
-5.001288098
-4.886161042
-4.774777808
-4.667387083
-4.564046583
-4.464710898
-4.368999181
-4.276506118
-4.187270172
-4.101661423
-4.019398412
-3.940291898
-3.864339631
-3.791306928
-3.721083721
-3.653460019
-3.588346418
-3.525594946
-3.465164995
-3.406968775
-3.350901625
-3.296876593
-3.244834861
-3.194699387
-3.14627247
-3.099586298
-3.054528923
-3.011066981
-2.96912082
-2.928643712
-2.889605008
-2.851908758
-2.815531001
-2.780407438
-2.74651567
-2.713830891
-2.682313941
-2.651904382
-2.622612095
-2.594418544
-2.567249646
-2.541087121
-2.515925181
-2.491823542
-2.468651131
-2.446458803
-2.42522633
-2.405015324
-2.385853497
-2.367670545
-2.350474157
-2.334273466
-2.318983481
-2.304718701
-2.291397821
-2.27920286
-2.267907857
-2.257798653
-2.248371381
-2.239840319
-2.232196166
-2.22522113
-2.216125315
-2.203620476
-2.188707348
-2.173906069
-2.160043673
-2.146159655
)


101
(
-0.001738597634
-0.5188738134
-1.127968356
-2.022498082
-2.983380604
-3.844980649
-4.559930166
-5.219475739
-5.749150945
-6.172800619
-6.498807719
-6.742151963
-6.904191962
-7.014910648
-7.070531276
-7.077788943
-7.049406304
-6.995660099
-6.911942518
-6.815078542
-6.702996799
-6.577903577
-6.447802277
-6.314299835
-6.17795975
-6.040436698
-5.903304018
-5.767580486
-5.634120401
-5.503322975
-5.375520069
-5.250937824
-5.129746907
-5.012802252
-4.899251204
-4.78920237
-4.682808418
-4.580143762
-4.481315376
-4.386174997
-4.294341648
-4.205568169
-4.120189833
-4.038073668
-3.959016615
-3.88303347
-3.809915191
-3.739593955
-3.671865969
-3.606642096
-3.543749148
-3.483128458
-3.424704867
-3.368387767
-3.314084887
-3.261728138
-3.211286231
-3.16255165
-3.115540378
-3.070135793
-3.02631119
-2.983993079
-2.943132401
-2.903703221
-2.865617273
-2.828852125
-2.793335797
-2.759036867
-2.725934817
-2.693998278
-2.663167494
-2.633450728
-2.60483444
-2.577246019
-2.550658865
-2.525061913
-2.500528177
-2.476936378
-2.454327487
-2.432658243
-2.411977248
-2.392343369
-2.373713414
-2.356089646
-2.339467875
-2.323757682
-2.309079169
-2.295338554
-2.282672832
-2.270931802
-2.260410426
-2.250579256
-2.241643735
-2.233545715
-2.226142615
-2.216535183
-2.203459012
-2.188551497
-2.173755025
-2.159895064
-2.146014071
)


101
(
-0.001738597636
-0.4918006236
-1.089112451
-1.967330748
-2.911648786
-3.760793881
-4.46753282
-5.117658263
-5.64472552
-6.067936863
-6.396105025
-6.643202143
-6.811384994
-6.927238549
-6.99010591
-7.00540494
-6.98461173
-6.93786844
-6.862550612
-6.772062906
-6.666854961
-6.548495381
-6.423763258
-6.295195601
-6.16360532
-6.030388249
-5.897053625
-5.764697255
-5.63423505
-5.506145513
-5.380780166
-5.258342466
-5.138924196
-5.023529536
-4.911497015
-4.802848836
-4.697613283
-4.595816536
-4.497625254
-4.403049753
-4.311809777
-4.223549484
-4.138514183
-4.056617663
-3.97768389
-3.901736406
-3.828583014
-3.758187093
-3.690367131
-3.625042837
-3.562029397
-3.501248424
-3.442622343
-3.386071593
-3.331509132
-3.278863477
-3.228123465
-3.179090233
-3.131770772
-3.086040007
-3.041869643
-2.999189056
-2.957950364
-2.918132352
-2.87965499
-2.842502846
-2.806600351
-2.771906181
-2.738394818
-2.706038798
-2.674784906
-2.644642354
-2.615600283
-2.587586885
-2.560571611
-2.534537791
-2.509564185
-2.48553967
-2.462506596
-2.440409026
-2.419274836
-2.399160859
-2.380055569
-2.361976652
-2.344915229
-2.328771722
-2.313664571
-2.299491404
-2.286369573
-2.274142931
-2.263173024
-2.252911072
-2.243546686
-2.234980979
-2.227117753
-2.217006762
-2.203310226
-2.188402755
-2.173610056
-2.159783562
-2.145940348
)


101
(
-0.001738597639
-0.465249205
-1.050813414
-1.912763827
-2.840550227
-3.677193603
-4.375630375
-5.016372845
-5.54042399
-5.962967345
-6.293001206
-6.543602114
-6.71758643
-6.838539539
-6.908281571
-6.931387878
-6.918124887
-6.878352454
-6.811128004
-6.727230321
-6.628759476
-6.517120933
-6.397978496
-6.274401185
-6.147567795
-6.018736903
-5.889315042
-5.760432146
-5.633056336
-5.507745812
-5.384896166
-5.264708793
-5.147220184
-5.033457887
-4.92292847
-4.815693422
-4.711711092
-4.610938427
-4.513536085
-4.419595268
-4.328938171
-4.241204734
-4.156579397
-4.074973369
-3.996231954
-3.920387771
-3.847256901
-3.776823245
-3.708929763
-3.643514543
-3.58039735
-3.519485109
-3.460686325
-3.403923371
-3.349117687
-3.296200085
-3.245169972
-3.195842976
-3.148225182
-3.102185569
-3.057689477
-3.014662917
-2.973058257
-2.93285655
-2.89398633
-2.85644303
-2.820155784
-2.785076199
-2.751168198
-2.71839961
-2.686722727
-2.656152646
-2.626682684
-2.598242511
-2.570798548
-2.544328517
-2.518911055
-2.494443917
-2.470974692
-2.448443693
-2.426865025
-2.40628106
-2.386689114
-2.36813138
-2.350605801
-2.3340077
-2.318459254
-2.303837996
-2.29026396
-2.277537119
-2.266088189
-2.25536109
-2.245542033
-2.236499908
-2.228138157
-2.217487784
-2.203180777
-2.188290466
-2.173523667
-2.159773561
-2.146016327
)


101
(
-0.001738597319
-0.4392252818
-1.013077275
-1.858804748
-2.770092555
-3.594188659
-4.28423379
-4.915632152
-5.436283077
-5.857919599
-6.189528325
-6.443380145
-6.62283188
-6.748821197
-6.825101011
-6.85576171
-6.849944738
-6.817109857
-6.75770582
-6.680531891
-6.588708198
-6.483748507
-6.370376401
-6.251882193
-6.129822256
-6.005435634
-5.880029213
-5.75472868
-5.63053599
-5.508080419
-5.387817206
-5.269969537
-5.154543845
-5.042533159
-4.933546494
-4.827732086
-4.725049445
-4.625409003
-4.528934518
-4.435737142
-4.345706759
-4.258520746
-4.174347791
-4.093088312
-4.014598271
-3.938919626
-3.865871813
-3.795448684
-3.727511689
-3.662019233
-3.598807462
-3.537784362
-3.478845594
-3.421901601
-3.366876161
-3.313706264
-3.262397764
-3.212779562
-3.164867378
-3.118529859
-3.073725603
-3.030374291
-2.988424106
-2.947853373
-2.908595089
-2.870656588
-2.83398016
-2.798518569
-2.764226939
-2.731060482
-2.698968159
-2.667971789
-2.638071909
-2.609203244
-2.581331366
-2.554428369
-2.528567258
-2.503650939
-2.479736058
-2.456763894
-2.434738164
-2.413690724
-2.393614994
-2.374568522
-2.356559928
-2.339483309
-2.323471064
-2.308388403
-2.294346961
-2.281124794
-2.269165508
-2.257946479
-2.247639448
-2.238110094
-2.229216629
-2.217984349
-2.203082487
-2.188245871
-2.173550772
-2.159967163
-2.146416077
)


101
(
-0.001738597323
-0.4137334965
-0.9759111346
-1.805462594
-2.700285609
-3.511790234
-4.193356466
-4.815451004
-5.332341906
-5.752826282
-6.085722351
-6.34256863
-6.527160485
-6.658097666
-6.740606973
-6.778556291
-6.780076126
-6.7541397
-6.702316962
-6.631934208
-6.546695958
-6.448356222
-6.340892833
-6.227596868
-6.110346081
-5.990448364
-5.869143633
-5.747530925
-5.626624044
-5.507107102
-5.38949952
-5.274067124
-5.160814136
-5.050681997
-4.943321747
-4.838959836
-4.737603705
-4.639159914
-4.543720214
-4.451381297
-4.362058286
-4.27546474
-4.191784858
-4.11091834
-4.032730052
-3.957271925
-3.88436556
-3.814005828
-3.74606664
-3.680524209
-3.617231976
-3.556110121
-3.497054667
-3.439965142
-3.384753994
-3.33135997
-3.279794027
-3.229895607
-3.181693916
-3.13506441
-3.08996438
-3.04630779
-3.004036378
-2.963120871
-2.923491213
-2.885160971
-2.84808991
-2.812242626
-2.777573749
-2.74402554
-2.711533825
-2.680119082
-2.649790459
-2.62049142
-2.592191089
-2.564857274
-2.538557003
-2.513190619
-2.488821855
-2.465401552
-2.442927223
-2.421416073
-2.400858898
-2.381320113
-2.362821205
-2.345247471
-2.328744702
-2.313189429
-2.298662664
-2.284942905
-2.272447452
-2.260715484
-2.249891163
-2.239853672
-2.230406216
-2.218590523
-2.203050403
-2.188343447
-2.173801011
-2.160482659
-2.147161765
)


101
(
-0.001738582294
-0.3887792689
-0.9393219321
-1.752746118
-2.631138825
-3.430008774
-4.1030107
-4.715842633
-5.22863723
-5.647719955
-5.981618134
-6.241199629
-6.43060923
-6.566385953
-6.654839897
-6.699802628
-6.708525666
-6.68944007
-6.644986066
-6.581415182
-6.502714242
-6.410924175
-6.309467587
-6.201492323
-6.089108199
-5.973741146
-5.856608557
-5.738780325
-5.621264164
-5.504778266
-5.389899857
-5.276950531
-5.165958464
-5.057822882
-4.952196803
-4.849351928
-4.749355499
-4.652147769
-4.557815102
-4.466433021
-4.377913552
-4.291984876
-4.208849479
-4.128423397
-4.050583377
-3.975394104
-3.902684555
-3.832446476
-3.764554652
-3.699000825
-3.635654216
-3.574451049
-3.515295737
-3.458087473
-3.402728191
-3.349147433
-3.297356312
-3.247199116
-3.19871924
-3.151804355
-3.106416656
-3.062468732
-3.019896968
-2.978663803
-2.93869028
-2.89998635
-2.862521667
-2.826281924
-2.791232079
-2.7573102
-2.724437099
-2.692620589
-2.661871068
-2.632141565
-2.603410211
-2.575645704
-2.548912161
-2.523102507
-2.498276379
-2.474399149
-2.451475889
-2.42950375
-2.408464567
-2.388429595
-2.369436642
-2.351363037
-2.334347325
-2.318301809
-2.303285756
-2.289054316
-2.276015143
-2.263748147
-2.252382802
-2.241810652
-2.231792956
-2.219375726
-2.203180567
-2.188693567
-2.174396852
-2.161438437
-2.148470297
)


101
(
-0.001738527192
-0.3643682045
-0.903315916
-1.700662698
-2.562659521
-3.348851863
-4.013205133
-4.616815776
-5.125200093
-5.542628711
-5.877245765
-6.139300795
-6.33320928
-6.473697576
-6.567831574
-6.619528058
-6.635298229
-6.623002017
-6.585729975
-6.52895305
-6.456747489
-6.371433457
-6.276041185
-6.173502884
-6.066060415
-5.955270977
-5.842370514
-5.728412486
-5.614389814
-5.501034718
-5.388967435
-5.278568443
-5.169910854
-5.06387229
-4.960093622
-4.858856935
-4.760275268
-4.664338842
-4.571159983
-4.480810329
-4.393186988
-4.308011603
-4.22549028
-4.145561504
-4.068120045
-3.99324662
-3.920783725
-3.850724785
-3.782940159
-3.717424874
-3.654061216
-3.592802452
-3.533567371
-3.476261499
-3.420783999
-3.367054709
-3.315077023
-3.264693029
-3.215955418
-3.168765764
-3.123097717
-3.078867251
-3.036009455
-2.994481195
-2.954192808
-2.915145041
-2.87730304
-2.840669305
-2.805229493
-2.770931386
-2.737687705
-2.705489087
-2.674333644
-2.64417922
-2.615015261
-2.58681954
-2.559654605
-2.533408864
-2.508133729
-2.483795926
-2.460417737
-2.437991553
-2.416475732
-2.395940124
-2.376444934
-2.357880101
-2.340345084
-2.32378562
-2.308276694
-2.293528489
-2.279945413
-2.267126461
-2.255206761
-2.244073796
-2.233474889
-2.220428211
-2.203583625
-2.189413838
-2.175449427
-2.162888662
-2.150317283
)


101
(
-0.001738487769
-0.3405052763
-0.8679007441
-1.649221949
-2.494858346
-3.268331221
-3.923952926
-4.518383899
-5.022066673
-5.437587784
-5.772642691
-6.036906895
-6.235000404
-6.380052706
-6.479617918
-6.537769801
-6.560410358
-6.554825448
-6.524569661
-6.474541918
-6.408788287
-6.329872459
-6.24056726
-6.143567518
-6.041153156
-5.934997342
-5.826384775
-5.71637189
-5.605938835
-5.495817505
-5.386652575
-5.27887625
-5.172618748
-5.068759868
-4.966933958
-4.867410585
-4.770323363
-4.675707686
-4.583721912
-4.494458178
-4.407807744
-4.32347701
-4.24165716
-4.162295672
-4.085311281
-4.010804933
-3.938636934
-3.868809993
-3.801191459
-3.735772198
-3.672441084
-3.611163323
-3.551873563
-3.49449101
-3.438918988
-3.385071541
-3.332944593
-3.282372566
-3.233407091
-3.185960572
-3.140022531
-3.095515316
-3.05237855
-3.010569025
-2.969990314
-2.93062941
-2.89243958
-2.855425223
-2.819591183
-2.784908119
-2.751292727
-2.718725413
-2.687184605
-2.656620054
-2.627027027
-2.598396283
-2.570798069
-2.544120433
-2.518406223
-2.493613463
-2.469774175
-2.446897234
-2.424917669
-2.403885316
-2.383879211
-2.364824449
-2.346782643
-2.329694941
-2.313674704
-2.298421915
-2.284294452
-2.270915869
-2.258433622
-2.246722993
-2.235539325
-2.221857074
-2.204368451
-2.190582958
-2.176997793
-2.164779695
-2.152522497
)


101
(
-0.001738487122
-0.317195975
-0.8330833074
-1.598432396
-2.427744355
-3.188456392
-3.835264407
-4.420556769
-4.919268213
-5.332628859
-5.66784298
-5.934049958
-6.136017463
-6.285469709
-6.39022992
-6.454561787
-6.48387701
-6.484909519
-6.461514854
-6.418175103
-6.35882757
-6.286229816
-6.203004897
-6.111623495
-6.014329423
-5.912874925
-5.808606604
-5.702603875
-5.595845655
-5.489058749
-5.382894751
-5.2778224
-5.174030373
-5.072420582
-4.972638367
-4.874934819
-4.779441343
-4.686219625
-4.595473446
-4.507337727
-4.421719942
-4.338315912
-4.257291533
-4.178582121
-4.102123945
-4.028043088
-3.956220574
-3.886674761
-3.819277449
-3.754012108
-3.690766724
-3.62951642
-3.570207571
-3.51277222
-3.45712798
-3.403188087
-3.350943338
-3.300219549
-3.251061074
-3.203384268
-3.157191707
-3.112416763
-3.069004995
-3.026919853
-2.986064782
-2.946414791
-2.907910005
-2.870541678
-2.834324212
-2.799249975
-2.765254302
-2.732319701
-2.700410824
-2.669458271
-2.639449528
-2.610382683
-2.582346292
-2.555234633
-2.529087425
-2.503849844
-2.47954821
-2.456213402
-2.433781657
-2.412269707
-2.391748387
-2.372191685
-2.353661145
-2.336049302
-2.319499605
-2.303747761
-2.289082454
-2.27514458
-2.262091686
-2.249793579
-2.238027282
-2.223722076
-2.205582613
-2.192164816
-2.178923795
-2.166937538
-2.155003267
)


101
(
-0.001738486476
-0.2944464914
-0.798871282
-1.548304102
-2.361328845
-3.10923976
-3.747153077
-4.32334741
-4.816838283
-5.227788096
-5.562886249
-5.830767454
-6.036300804
-6.18997442
-6.299704772
-6.369943869
-6.405723258
-6.413258229
-6.396578852
-6.359847785
-6.30685879
-6.240502178
-6.163327488
-6.077618006
-5.985533371
-5.888858266
-5.788995591
-5.687061977
-5.584051792
-5.48069246
-5.377631436
-5.275354657
-5.174099599
-5.074802802
-4.977140946
-4.881355293
-4.787562992
-4.69583002
-4.606389785
-4.519427416
-4.434887687
-4.352476203
-4.272334999
-4.194373106
-4.118522785
-4.044932842
-3.973511846
-3.904295993
-3.837169682
-3.77211444
-3.709011463
-3.647837086
-3.588550497
-3.531094742
-3.475400507
-3.421392662
-3.36905763
-3.318214263
-3.268898011
-3.221021483
-3.174594151
-3.129565789
-3.085887454
-3.043530562
-3.002401804
-2.962475799
-2.923681281
-2.885991805
-2.849416134
-2.813955473
-2.779571228
-2.746261089
-2.713988245
-2.682667963
-2.652267226
-2.622775298
-2.594294192
-2.566738084
-2.540159778
-2.514485393
-2.489726869
-2.465924463
-2.443036615
-2.421063137
-2.40003837
-2.379962231
-2.360943719
-2.342822748
-2.325733442
-2.30946965
-2.294272443
-2.279777161
-2.266159428
-2.253266236
-2.240918174
-2.226000152
-2.207206109
-2.194077641
-2.181076236
-2.169147047
-2.157081454
)


101
(
-0.00173848777
-0.2722624121
-0.7652730036
-1.498848352
-2.295625158
-3.03069628
-3.659635198
-4.226771639
-4.714812614
-5.123105721
-5.457816741
-5.727101891
-5.93589609
-6.093599312
-6.208082728
-6.283961422
-6.325982659
-6.339884015
-6.32977422
-6.299560576
-6.252879273
-6.19268995
-6.121520218
-6.041508602
-5.95471082
-5.862899465
-5.767512123
-5.669707078
-5.570508916
-5.470659303
-5.370800169
-5.271418573
-5.172783279
-5.075865567
-4.980391474
-4.886608848
-4.794621786
-4.704484489
-4.616439044
-4.530709402
-4.447290873
-4.365921602
-4.286736018
-4.209614722
-4.134465573
-4.061442836
-3.990484539
-3.921651171
-3.85484273
-3.79004818
-3.727144117
-3.666099682
-3.60687896
-3.54943966
-3.49372287
-3.439666966
-3.38726716
-3.336335546
-3.286895808
-3.23885223
-3.19221654
-3.146951914
-3.103020229
-3.060398297
-3.01899599
-2.978798798
-2.939727467
-2.901742891
-2.864836653
-2.829008444
-2.794236904
-2.760539987
-2.72789439
-2.696212017
-2.665441813
-2.635548613
-2.606625585
-2.578615732
-2.551591672
-2.525482477
-2.500279709
-2.476006161
-2.45264412
-2.430211321
-2.408698247
-2.388094138
-2.368567707
-2.349948215
-2.332314288
-2.315515079
-2.299792037
-2.284726175
-2.270554184
-2.257063721
-2.244123368
-2.228582344
-2.209160624
-2.196184113
-2.183268995
-2.171220082
-2.158934198
)


101
(
-0.001738487772
-0.2506484676
-0.7323037764
-1.450071907
-2.230639894
-2.952832005
-3.572715856
-4.130832368
-4.613211334
-5.018606068
-5.352662772
-5.62308063
-5.834831326
-5.996360047
-6.115383664
-6.196644019
-6.244672688
-6.264786868
-6.261096986
-6.237298424
-6.196869687
-6.142781002
-6.077557651
-6.003243921
-5.921789756
-5.834925006
-5.744091852
-5.650481515
-5.555156337
-5.45888815
-5.36232163
-5.265937157
-5.170016869
-5.075554131
-4.982333442
-4.890627572
-4.800539125
-4.712106321
-4.625560799
-4.541143927
-4.458899797
-4.378613151
-4.30043747
-4.224236932
-4.149885748
-4.07751932
-4.007092806
-3.938698086
-3.872257038
-3.807771301
-3.74511819
-3.68425879
-3.625153665
-3.567771008
-3.512064311
-3.457984223
-3.405539861
-3.354545449
-3.305016465
-3.256842982
-3.210031954
-3.164552251
-3.120382979
-3.077505217
-3.035834972
-2.995367333
-2.956022413
-2.917756637
-2.880543466
-2.844374525
-2.809228136
-2.775138134
-2.742104558
-2.710047405
-2.678912986
-2.648644132
-2.619304365
-2.590835748
-2.563343833
-2.536787204
-2.511144595
-2.486401874
-2.462552108
-2.439641913
-2.417644164
-2.396509643
-2.376445478
-2.357319472
-2.339141005
-2.321780038
-2.305527534
-2.2898739
-2.275133332
-2.261048453
-2.247491306
-2.231317667
-2.211275836
-2.198275992
-2.185274524
-2.172990425
-2.160580299
)


101
(
-0.001738486479
-0.2296101977
-0.6999621019
-1.401984904
-2.166384795
-2.875659662
-3.48640766
-4.035540902
-4.512062421
-4.914322481
-5.247463976
-5.518743737
-5.733148358
-5.898286284
-6.021637769
-6.108030138
-6.16182595
-6.187980831
-6.190557871
-6.173065473
-6.138826354
-6.090775238
-6.031431809
-5.962793318
-5.886715172
-5.80486875
-5.718674419
-5.629334838
-5.537946432
-5.445323255
-5.352128932
-5.258840252
-5.165738363
-5.073819581
-4.98292323
-4.893361159
-4.805251858
-4.718624063
-4.633688871
-4.550684272
-4.46968536
-4.390527116
-4.313402191
-4.238182997
-4.164716534
-4.093103097
-4.023290591
-3.955396336
-3.889375389
-3.825246078
-3.762893463
-3.702273315
-3.643337357
-3.586056099
-3.530395421
-3.476320573
-3.423852879
-3.372816833
-3.32322847
-3.274962754
-3.228011357
-3.182346587
-3.137958018
-3.094837297
-3.052909983
-3.012172203
-2.972553781
-2.934011746
-2.896507861
-2.860020129
-2.824515142
-2.790038403
-2.75660439
-2.724150133
-2.692636551
-2.662000612
-2.632269249
-2.603353912
-2.575383019
-2.548349645
-2.522247219
-2.497039238
-2.472693016
-2.449277527
-2.42678161
-2.405117353
-2.384486045
-2.36482296
-2.346096217
-2.328147996
-2.31133657
-2.295085777
-2.27973881
-2.26504878
-2.250849365
-2.234031363
-2.213344684
-2.200166064
-2.186938896
-2.174367603
-2.161620114
)


101
(
-0.001738487777
-0.2091537552
-0.6682480955
-1.354600554
-2.10287668
-2.799198631
-3.400732503
-3.940917073
-4.411402737
-4.810298621
-5.142271169
-5.414144345
-5.630902659
-5.799422436
-5.926889468
-6.018169111
-6.077492224
-6.109499812
-6.118179576
-6.106879326
-6.078759491
-6.036684194
-5.983153424
-5.920148844
-5.849455451
-5.772681248
-5.691207304
-5.606222923
-5.518842519
-5.429925242
-5.340171685
-5.25006826
-5.159889521
-5.070615453
-4.98212617
-4.894775612
-4.808715265
-4.723979172
-4.640759845
-4.559277277
-4.479614749
-4.401646491
-4.32561136
-4.251416314
-4.178903709
-4.108135746
-4.039031377
-3.97171228
-3.906167837
-3.842443043
-3.78043788
-3.720109669
-3.661399841
-3.604270474
-3.548696039
-3.494656953
-3.44218904
-3.391131897
-3.341507787
-3.293183677
-3.246130603
-3.200316347
-3.155731437
-3.112383804
-3.070211907
-3.029209915
-2.989320475
-2.950501654
-2.912712401
-2.875916662
-2.840072083
-2.805221134
-2.771381674
-2.738508825
-2.706587758
-2.675566768
-2.645452066
-2.616116031
-2.587666612
-2.560127477
-2.533529649
-2.507846062
-2.482994278
-2.459041226
-2.43602025
-2.413817421
-2.392598612
-2.372354083
-2.353064209
-2.334503003
-2.317087231
-2.300221277
-2.284236
-2.268909249
-2.254039795
-2.236546638
-2.215189331
-2.201733201
-2.188209281
-2.175366946
-2.162375238
)


101
(
-0.001738487776
-0.1892842571
-0.6371777186
-1.307925881
-2.040122933
-2.723455803
-3.315696475
-3.846962881
-4.311248602
-4.706556977
-5.037110473
-5.309312382
-5.528124489
-5.699788586
-5.831157018
-5.92708569
-5.991697218
-6.029358562
-6.043966233
-6.038724726
-6.01664369
-5.980487267
-5.932707086
-5.875284968
-5.809962111
-5.738292019
-5.661608988
-5.581068585
-5.497779006
-5.412634211
-5.3263832
-5.239542398
-5.152385014
-5.065862817
-4.979877428
-4.89481476
-4.810869853
-4.728099547
-4.646688996
-4.566836802
-4.488616787
-4.411921406
-4.337028653
-4.263894378
-4.192383947
-4.122539451
-4.05424041
-3.987586627
-3.922583668
-3.859314296
-3.797702862
-3.737716264
-3.679291365
-3.622372852
-3.566932737
-3.512964461
-3.460519867
-3.409458642
-3.359815451
-3.311458772
-3.264345697
-3.21841957
-3.173670149
-3.130114651
-3.087711689
-3.046456333
-3.006299753
-2.96720279
-2.92912711
-2.892031323
-2.855863866
-2.820649857
-2.786408263
-2.75310498
-2.720744017
-2.689300374
-2.658788696
-2.629042661
-2.600126192
-2.572068933
-2.544942628
-2.518747647
-2.493377043
-2.468861106
-2.4452748
-2.42250987
-2.400689235
-2.379818371
-2.359936847
-2.34073636
-2.322671038
-2.305163246
-2.288512275
-2.272511622
-2.256934926
-2.238743949
-2.216678929
-2.202928511
-2.189121885
-2.176077467
-2.162943943
)


101
(
-0.001738487717
-0.1700088082
-0.6067874517
-1.261972821
-1.978138069
-2.648447537
-3.231315667
-3.753692689
-4.211629034
-4.603134718
-4.932023388
-5.204295386
-5.424862714
-5.599424616
-5.73447702
-5.834822116
-5.904485228
-5.94759435
-5.967944716
-5.968612473
-5.952475435
-5.922176324
-5.880092049
-5.828198856
-5.768215355
-5.701657989
-5.629818929
-5.55380704
-5.474698988
-5.393404253
-5.310718882
-5.227207006
-5.143158009
-5.059492544
-4.976116267
-4.89343024
-4.811671431
-4.730933886
-4.651410665
-4.573287752
-4.496620545
-4.421298887
-4.347621848
-4.275592243
-4.205119723
-4.136255968
-4.068849103
-4.002958575
-3.938578621
-3.875821769
-3.814650258
-3.755051909
-3.69696598
-3.640321769
-3.585077403
-3.531225409
-3.478835565
-3.427786205
-3.378135674
-3.329763447
-3.282621545
-3.236623654
-3.191750091
-3.148015111
-3.105393993
-3.063896015
-3.02347737
-2.984103321
-2.9457395
-2.908344703
-2.871857885
-2.836293536
-2.801663616
-2.767930583
-2.73510701
-2.703198898
-2.67224679
-2.642075011
-2.612705194
-2.584132786
-2.556451177
-2.529700157
-2.503786095
-2.478692455
-2.454496776
-2.431137128
-2.408700372
-2.387167616
-2.366656633
-2.346795151
-2.328039845
-2.309859166
-2.292514301
-2.275805217
-2.259486643
-2.240572111
-2.217777991
-2.203780856
-2.189769209
-2.176631269
-2.163444694
)


101
(
-0.001738443068
-0.1514030281
-0.5770576057
-1.216752161
-1.916935024
-2.574188143
-3.147604209
-3.661117682
-4.11256878
-4.500064713
-4.827048226
-5.099135306
-5.321163353
-5.49836837
-5.636883493
-5.741415662
-5.81589664
-5.86424334
-5.8901416
-5.896555576
-5.88625158
-5.861737809
-5.82529709
-5.778881736
-5.72419904
-5.662744781
-5.595779924
-5.524366493
-5.449531909
-5.372176897
-5.293130128
-5.213009609
-5.132143377
-5.051429001
-4.970768749
-4.890559967
-4.811068715
-4.732431981
-4.654865185
-4.578555854
-4.503544876
-4.429706894
-4.357339951
-4.286477887
-4.217081353
-4.149236486
-4.082788529
-4.017754231
-3.954095238
-3.891925171
-3.8312433
-3.772074887
-3.714373039
-3.658063361
-3.603083249
-3.549411499
-3.497120278
-3.446110379
-3.396464633
-3.348087358
-3.300932647
-3.254899222
-3.209941892
-3.166065966
-3.123245902
-3.081516711
-3.040840097
-3.001192384
-2.9625401
-2.92483888
-2.888028361
-2.852119286
-2.817114522
-2.782962877
-2.749672314
-2.717268795
-2.685828489
-2.655195721
-2.625361505
-2.596280018
-2.568029243
-2.540690395
-2.514199536
-2.488514332
-2.463679691
-2.439682231
-2.416613408
-2.394397013
-2.373217353
-2.35268086
-2.333208413
-2.314318414
-2.296254209
-2.278814937
-2.261729332
-2.24208174
-2.218548228
-2.204393694
-2.190284487
-2.177166083
-2.164033403
)


101
(
-0.001738397179
-0.1333987511
-0.5479683591
-1.172273727
-1.856525997
-2.500690987
-3.064574878
-3.569247163
-4.014089495
-4.397376877
-4.722220674
-4.993870003
-5.217070145
-5.396657808
-5.538408551
-5.646899823
-5.725968932