/*--------------------------------*- C++ -*----------------------------------*\
| =========                 |                                                 |
| \\      /  F ield         | OpenFOAM: The Open Source CFD Toolbox           |
|  \\    /   O peration     | Version:  2.3.1                                 |
|   \\  /    A nd           | Web:      www.OpenFOAM.org                      |
|    \\/     M anipulation  |                                                 |
\*---------------------------------------------------------------------------*/
FoamFile
{
    version     2.0;
    format      ascii;
    class       dictionary;
    location    "constant";
    object      PM29;
}
// * * * * * * * * * * * * * * * * * * * * * * * * * * * * * * * * * * * * * //

PM29_table
101
(

101
(
8.746229405e-19
-3.07760902e-18
-4.466616527e-19
3.0857028e-18
6.11731317e-20
-1.199437822e-17
-1.714280838e-17
-4.084747827e-17
-6.571700487e-17
-1.041691396e-16
-1.469221478e-16
-2.084934916e-16
-2.634746396e-16
-3.452637731e-16
-4.351498105e-16
-5.335822907e-16
-6.452161078e-16
-7.849170264e-16
-9.220959511e-16
-1.074504044e-15
-1.228437338e-15
-1.404895643e-15
-1.540700001e-15
-1.648542454e-15
-1.735645531e-15
-1.791242749e-15
-1.810791347e-15
-1.81458647e-15
-1.772440735e-15
-1.701899748e-15
-1.598756851e-15
-1.476729305e-15
-1.458154067e-15
-1.391603339e-15
-1.43118422e-15
1.072875338e-16
1.766578415e-16
-4.852836613e-15
-4.558053737e-15
-3.598724505e-15
-3.230009682e-15
-2.966437632e-15
-2.689816982e-15
-2.409927404e-15
-2.124126881e-15
-1.853928005e-15
-1.587111786e-15
-1.353062146e-15
-1.126588861e-15
-9.267117062e-16
-7.434450253e-16
-5.791505932e-16
-4.349284592e-16
-3.215053328e-16
-2.335711071e-16
-1.422514718e-16
-8.053455573e-17
-1.886615893e-17
2.594555029e-17
6.438738074e-17
8.45527833e-17
9.698138856e-17
1.064617349e-16
1.128814299e-16
1.038430616e-16
9.553681368e-17
8.798062971e-17
7.786706939e-17
6.485562795e-17
5.343428367e-17
4.256833719e-17
3.327877292e-17
2.570948199e-17
2.043129778e-17
1.257933108e-17
5.402989703e-18
2.964399172e-18
2.246204421e-18
1.562899418e-18
1.021338819e-18
6.542416386e-19
3.809878412e-19
2.354684892e-19
1.130112988e-19
3.070399189e-20
1.518587148e-20
1.708666007e-20
1.400895486e-20
1.103511645e-20
5.381256912e-21
2.317018212e-21
2.04153348e-21
1.619411117e-21
9.713875812e-22
5.33764122e-22
3.132956188e-22
2.979631483e-23
4.338074429e-29
-2.748220062e-39
-3.494850455e-39
-2.926476397e-40
)


101
(
7.311642355e-19
-3.182524818e-18
-1.188932853e-18
1.133664045e-18
-3.083630164e-18
-1.561144697e-17
-2.09384159e-17
-4.224979887e-17
-6.261473301e-17
-9.26320977e-17
-1.229207051e-16
-1.653259476e-16
-1.962467962e-16
-2.425087136e-16
-2.860467515e-16
-3.253881524e-16
-3.613204898e-16
-4.036676337e-16
-4.260338797e-16
-4.406879374e-16
-4.380692078e-16
-4.335057112e-16
-3.817811511e-16
-2.980130263e-16
-1.906763146e-16
-5.72216068e-17
1.008401857e-16
2.675304388e-16
4.604273034e-16
6.647390076e-16
8.814660321e-16
1.091489036e-15
1.215592508e-15
1.334292478e-15
1.32075161e-15
2.145114376e-15
2.131400162e-15
-5.911246505e-16
-3.895033067e-16
-2.260993959e-16
3.314705491e-17
2.426490939e-16
4.465293165e-16
6.342780258e-16
8.051446586e-16
9.530585895e-16
1.085836866e-15
1.183521775e-15
1.266561225e-15
1.320499983e-15
1.356573484e-15
1.370604982e-15
1.363586414e-15
1.33702149e-15
1.296927417e-15
1.252111411e-15
1.184985877e-15
1.117528595e-15
1.038823839e-15
9.590744631e-16
8.732795925e-16
7.879661218e-16
7.02407732e-16
6.209134468e-16
5.412769042e-16
4.682924249e-16
3.983760473e-16
3.337668932e-16
2.756569777e-16
2.241789556e-16
1.790776751e-16
1.40411856e-16
1.085912069e-16
8.22584436e-17
5.96975854e-17
4.218828977e-17
2.963368562e-17
2.050948512e-17
1.395785943e-17
9.239886869e-18
5.959840891e-18
3.694914251e-18
2.249124096e-18
1.29272719e-18
7.142133837e-19
3.901310881e-19
2.185261685e-19
1.313731637e-19
7.598931241e-20
4.293866259e-20
2.60365607e-20
1.611952841e-20
1.056092065e-20
6.613273997e-21
4.325297368e-21
2.592759669e-21
4.260212977e-22
1.79508672e-22
6.401665654e-22
1.564226104e-21
1.90459149e-21
)


101
(
5.948107031e-19
-2.926515166e-18
-8.088432396e-19
1.905275202e-18
-6.751786426e-19
-9.33053856e-18
-8.441310707e-18
-1.764771021e-17
-2.076281358e-17
-2.486274712e-17
-2.021637112e-17
-1.468696313e-17
1.354839027e-17
4.653422368e-17
9.917046697e-17
1.774038628e-16
2.840655067e-16
4.128638305e-16
5.846448927e-16
7.960552058e-16
1.04886134e-15
1.334170669e-15
1.678102775e-15
2.070067311e-15
2.496084756e-15
2.950869696e-15
3.425836804e-15
3.902720718e-15
4.384299192e-15
4.859056442e-15
5.322505338e-15
5.761905216e-15
6.12245439e-15
6.427921947e-15
6.594687753e-15
7.129257835e-15
7.690929661e-15
6.470225952e-15
5.948976431e-15
5.979005522e-15
6.104987864e-15
6.217853518e-15
6.311908293e-15
6.350584948e-15
6.343953439e-15
6.309459579e-15
6.237936831e-15
6.128637573e-15
5.984177751e-15
5.807516395e-15
5.599991982e-15
5.369610697e-15
5.121751409e-15
4.857586596e-15
4.577427238e-15
4.28907341e-15
3.986370603e-15
3.684090844e-15
3.380780445e-15
3.080531676e-15
2.789314949e-15
2.506555157e-15
2.235906638e-15
1.982583387e-15
1.74384222e-15
1.517329723e-15
1.307301448e-15
1.114770308e-15
9.431164556e-16
7.886020815e-16
6.510776964e-16
5.307276769e-16
4.285375274e-16
3.404272596e-16
2.659828002e-16
2.042463015e-16
1.540377927e-16
1.143218244e-16
8.344962963e-17
5.987216571e-17
4.216722457e-17
2.882030015e-17
1.930546481e-17
1.254212195e-17
7.882367479e-18
4.795539683e-18
2.821158828e-18
1.685719864e-18
9.885528209e-19
5.52981691e-19
3.002593754e-19
1.716693045e-19
1.030839213e-19
6.223869098e-20
3.94921651e-20
2.24826844e-20
4.739163222e-21
5.986665908e-21
2.182194992e-20
3.935409632e-20
3.046394876e-20
)


101
(
4.654081981e-19
-2.678756257e-18
-4.478957143e-19
2.616864649e-18
1.536285904e-18
-3.565588017e-18
2.974497516e-18
4.71594084e-18
1.715498044e-17
3.619509518e-17
7.189883009e-17
1.196225406e-16
1.996875123e-16
3.011640603e-16
4.368140866e-16
6.157461977e-16
8.437604525e-16
1.1179154e-15
1.454670953e-15
1.857286518e-15
2.323043252e-15
2.846713865e-15
3.443232756e-15
4.102309688e-15
4.807902927e-15
5.548781006e-15
6.30987169e-15
7.071126815e-15
7.825892537e-15
8.560917345e-15
9.265431829e-15
9.936281326e-15
1.052696766e-14
1.104662678e-14
1.138817634e-14
1.2061157e-14
1.271586965e-14
1.230392975e-14
1.187687352e-14
1.177452855e-14
1.180919901e-14
1.189023935e-14
1.194691922e-14
1.193268932e-14
1.185780089e-14
1.1739216e-14
1.156328702e-14
1.133865781e-14
1.105962547e-14
1.074184877e-14
1.037761032e-14
9.982077788e-15
9.55982116e-15
9.115797983e-15
8.654251189e-15
8.166441213e-15
7.671350473e-15
7.173404297e-15
6.671395778e-15
6.16454825e-15
5.670231231e-15
5.188677321e-15
4.721170967e-15
4.275159874e-15
3.846566219e-15
3.430721247e-15
3.036928916e-15
2.671270643e-15
2.336635774e-15
2.027102228e-15
1.736876722e-15
1.475979442e-15
1.243746168e-15
1.037506659e-15
8.553425312e-16
6.961714623e-16
5.573548492e-16
4.415467823e-16
3.451937664e-16
2.662502067e-16
2.021986516e-16
1.500813064e-16
1.095472315e-16
7.844267597e-17
5.473677841e-17
3.705755593e-17
2.432237897e-17
1.582480586e-17
1.013782891e-17
6.291586786e-18
3.663186994e-18
2.138704467e-18
1.225671346e-18
6.981795436e-19
4.180773182e-19
2.193296215e-19
6.791155793e-20
1.128226512e-19
5.582489803e-19
1.244365949e-18
1.401364686e-18
)


101
(
3.428047812e-19
-2.439092317e-18
-1.052294668e-19
3.271994112e-18
3.56262989e-18
1.714945048e-18
1.338086418e-17
2.501153237e-17
5.146442816e-17
9.116605014e-17
1.545126679e-16
2.394722879e-16
3.651062744e-16
5.260623698e-16
7.337743869e-16
9.995773721e-16
1.331733212e-15
1.730509048e-15
2.209394672e-15
2.775827379e-15
3.425604033e-15
4.15583099e-15
4.975238231e-15
5.872201066e-15
6.83084686e-15
7.834884834e-15
8.86443785e-15
9.898703709e-15
1.092410458e-14
1.192308502e-14
1.288724284e-14
1.37977517e-14
1.462825694e-14
1.539401209e-14
1.603016365e-14
1.689701763e-14
1.751663525e-14
1.768535213e-14
1.759595108e-14
1.753176354e-14
1.758439288e-14
1.769332702e-14
1.778702604e-14
1.781365868e-14
1.776088888e-14
1.764065369e-14
1.744699857e-14
1.719484868e-14
1.688446026e-14
1.651861693e-14
1.608618331e-14
1.56022827e-14
1.50805826e-14
1.45288335e-14
1.394405437e-14
1.331718162e-14
1.268032499e-14
1.202393117e-14
1.135622999e-14
1.066757031e-14
9.982086286e-15
9.310539658e-15
8.641433736e-15
7.993286296e-15
7.355625347e-15
6.7242001e-15
6.114395059e-15
5.531366521e-15
4.97505539e-15
4.453438931e-15
3.946707794e-15
3.476550774e-15
3.039243911e-15
2.638174612e-15
2.268509891e-15
1.930380071e-15
1.626710864e-15
1.358637513e-15
1.118336735e-15
9.119624908e-16
7.34162194e-16
5.845088137e-16
4.572690996e-16
3.532173892e-16
2.672832581e-16
1.981469584e-16
1.427110487e-16
1.017834469e-16
7.127863293e-17
4.904344323e-17
3.203106741e-17
2.056871576e-17
1.31299765e-17
8.008002996e-18
4.949701582e-18
2.66292971e-18
1.186108834e-18
2.03001084e-18
9.130215951e-18
1.477478828e-17
1.232442112e-17
)


101
(
2.268497818e-19
-2.207390192e-18
2.199715817e-19
3.874007098e-18
5.414911094e-18
6.540616957e-18
2.284463457e-17
4.339417372e-17
8.245952344e-17
1.40602825e-16
2.285710515e-16
3.464832569e-16
5.122797905e-16
7.251738487e-16
9.957836009e-16
1.337003628e-15
1.759411959e-15
2.265991541e-15
2.868420527e-15
3.577054887e-15
4.388016817e-15
5.300004861e-15
6.318730666e-15
7.43134832e-15
8.62232223e-15
9.873594308e-15
1.116158102e-14
1.246334429e-14
1.376095716e-14
1.503533841e-14
1.627558348e-14
1.744916405e-14
1.854659134e-14
1.957337692e-14
2.048068623e-14
2.145970313e-14
2.234027703e-14
2.291252116e-14
2.320357591e-14
2.338523335e-14
2.358277118e-14
2.380289961e-14
2.400759838e-14
2.415263786e-14
2.420496849e-14
2.417135042e-14
2.40567448e-14
2.388438602e-14
2.364654291e-14
2.332845025e-14
2.292731127e-14
2.244839761e-14
2.19173667e-14
2.134593465e-14
2.073024541e-14
2.00470095e-14
1.932761394e-14
1.858461978e-14
1.780266714e-14
1.697420929e-14
1.615031442e-14
1.532838526e-14
1.4487745e-14
1.365514141e-14
1.281864165e-14
1.19742444e-14
1.113332497e-14
1.030205305e-14
9.50065691e-15
8.721392417e-15
7.948060592e-15
7.2083529e-15
6.501179251e-15
5.829698389e-15
5.188534287e-15
4.583116102e-15
4.022209777e-15
3.493641005e-15
3.003312287e-15
2.563638718e-15
2.168249106e-15
1.819038437e-15
1.502919719e-15
1.229830573e-15
9.938167613e-16
7.881965032e-16
6.127990254e-16
4.697440166e-16
3.571650401e-16
2.679237694e-16
1.92965971e-16
1.354127084e-16
9.564575254e-17
6.506522766e-17
4.394442226e-17
2.554492739e-17
1.36795319e-17
2.314240607e-17
1.052376882e-16
1.775741635e-16
1.645002186e-16
)


101
(
1.173942177e-19
-1.983490431e-18
5.284735341e-19
4.426057058e-18
7.104228176e-18
1.094336793e-17
3.144126169e-17
6.002690823e-17
1.104081006e-16
1.849738202e-16
2.948592455e-16
4.419104771e-16
6.431336968e-16
9.014022587e-16
1.227002362e-15
1.633847816e-15
2.134593416e-15
2.73467371e-15
3.444951242e-15
4.277783679e-15
5.230750027e-15
6.303919342e-15
7.501652238e-15
8.810658253e-15
1.021569314e-14
1.169971178e-14
1.323773077e-14
1.480387244e-14
1.637658273e-14
1.793536584e-14
1.946495305e-14
2.093739948e-14
2.233425761e-14
2.365770058e-14
2.487549994e-14
2.608024768e-14
2.722573219e-14
2.817061484e-14
2.887275e-14
2.940586795e-14
2.987055528e-14
3.029837085e-14
3.07009904e-14
3.104547943e-14
3.129152496e-14
3.144443198e-14
3.15112596e-14
3.151477301e-14
3.144166447e-14
3.127700072e-14
3.101474584e-14
3.064299516e-14
3.021125077e-14
2.973634999e-14
2.919397449e-14
2.855300915e-14
2.78644494e-14
2.712573161e-14
2.63163797e-14
2.544201016e-14
2.455570934e-14
2.364337416e-14
2.268948925e-14
2.172973292e-14
2.075138074e-14
1.97399772e-14
1.869803018e-14
1.764857107e-14
1.660702221e-14
1.557246892e-14
1.454472302e-14
1.351390658e-14
1.249778635e-14
1.149905505e-14
1.052444837e-14
9.580057642e-15
8.675210309e-15
7.790427117e-15
6.949502329e-15
6.156167394e-15
5.415229879e-15
4.72533015e-15
4.085597763e-15
3.498149076e-15
2.972840636e-15
2.488533072e-15
2.051721161e-15
1.668236797e-15
1.355669494e-15
1.082222007e-15
8.433365501e-16
6.391704392e-16
4.907065939e-16
3.666685387e-16
2.656161863e-16
1.731910636e-16
1.307126256e-16
2.224226621e-16
7.473098384e-16
1.167569177e-15
1.06091419e-15
)


101
(
1.429061207e-20
-1.33641234e-18
1.859214809e-18
4.931110104e-18
8.641276533e-18
1.495564935e-17
3.925265402e-17
7.508882419e-17
1.355756998e-16
2.247341725e-16
3.541269565e-16
5.269689526e-16
7.595034984e-16
1.057488737e-15
1.431265033e-15
1.895372267e-15
2.464174761e-15
3.145463371e-15
3.950111064e-15
4.891899848e-15
5.970562166e-15
7.18732714e-15
8.545499369e-15
1.003338696e-14
1.163584863e-14
1.333859477e-14
1.51182111e-14
1.694684195e-14
1.879901101e-14
2.065242238e-14
2.2489472e-14
2.428508927e-14
2.601531223e-14
2.767545713e-14
2.924599695e-14
3.075996566e-14
3.221206119e-14
3.353019746e-14
3.466298625e-14
3.56129468e-14
3.644515664e-14
3.719823286e-14
3.789937602e-14
3.85295875e-14
3.905968225e-14
3.949699234e-14
3.984585252e-14
4.012765099e-14
4.033266076e-14
4.043746003e-14
4.041098453e-14
4.026589734e-14
4.006114294e-14
3.978621808e-14
3.943337018e-14
3.898232697e-14
3.844935818e-14
3.783066251e-14
3.712335437e-14
3.632041732e-14
3.548440186e-14
3.460286737e-14
3.364052335e-14
3.265892211e-14
3.163679623e-14
3.056338648e-14
2.944149627e-14
2.826795979e-14
2.705632891e-14
2.581520719e-14
2.455619794e-14
2.32551813e-14
2.197122905e-14
2.067665626e-14
1.935995174e-14
1.805374316e-14
1.677039017e-14
1.548682876e-14
1.42191872e-14
1.295650483e-14
1.175313647e-14
1.060371573e-14
9.513200187e-15
8.449946558e-15
7.474879508e-15
6.517364827e-15
5.636124628e-15
4.810235138e-15
4.105676997e-15
3.459985506e-15
2.850612393e-15
2.303800489e-15
1.891662082e-15
1.519764624e-15
1.174456119e-15
8.39580182e-16
7.734437275e-16
1.292896282e-15
3.605605004e-15
5.474835332e-15
5.020987619e-15
)


101
(
-8.260753435e-20
-1.154421656e-18
2.095306295e-18
5.392130136e-18
1.003572172e-17
1.860322796e-17
4.63399702e-17
8.871852958e-17
1.581890452e-16
2.602747633e-16
4.070025919e-16
6.026880119e-16
8.629063009e-16
1.195714664e-15
1.611709097e-15
2.125869778e-15
2.753895715e-15
3.505775182e-15
4.393081077e-15
5.430794419e-15
6.621224669e-15
7.966636573e-15
9.468871659e-15
1.112083809e-14
1.290741814e-14
1.481789796e-14
1.683165527e-14
1.891981375e-14
2.105324601e-14
2.320756693e-14
2.536401414e-14
2.750057986e-14
2.959120711e-14
3.162327755e-14
3.357960867e-14
3.545935746e-14
3.727259447e-14
3.899684722e-14
4.058868824e-14
4.201019818e-14
4.329750118e-14
4.447006798e-14
4.555784763e-14
4.656463398e-14
4.747574485e-14
4.829965959e-14
4.90392109e-14
4.972371124e-14
5.032163506e-14
5.079553115e-14
5.113075667e-14
5.136584181e-14
5.150985024e-14
5.157393668e-14
5.157315386e-14
5.143165301e-14
5.118981279e-14
5.083786444e-14
5.039422684e-14
4.983609053e-14
4.920954129e-14
4.850702025e-14
4.76945055e-14
4.685140285e-14
4.595139729e-14
4.497507406e-14
4.391413101e-14
4.273014061e-14
4.145331077e-14
4.013371341e-14
3.878081389e-14
3.738025796e-14
3.594054999e-14
3.440979301e-14
3.281559456e-14
3.121775609e-14
2.958466601e-14
2.792680594e-14
2.624959445e-14
2.451416281e-14
2.27817953e-14
2.113326614e-14
1.949916074e-14
1.788448659e-14
1.628251466e-14
1.469892627e-14
1.32130416e-14
1.172264246e-14
1.040324901e-14
9.141340831e-15
7.872417545e-15
6.742273436e-15
5.812499014e-15
4.926828549e-15
4.02353681e-15
3.010820878e-15
3.215487067e-15
5.197529016e-15
1.244802506e-14
1.910591115e-14
1.842158823e-14
)


101
(
-1.734458089e-19
-1.357398383e-18
1.360654506e-18
7.673924367e-18
1.129773788e-17
2.190994517e-17
5.274752633e-17
1.010069679e-16
1.784560493e-16
2.91977015e-16
4.540556386e-16
6.69901208e-16
9.545201679e-16
1.317806886e-15
1.770734878e-15
2.328615146e-15
3.008139373e-15
3.821351403e-15
4.780971679e-15
5.903139055e-15
7.193084655e-15
8.654423305e-15
1.028811874e-14
1.209178852e-14
1.405231242e-14
1.61622379e-14
1.84027205e-14
2.074466768e-14
2.315667302e-14
2.561307453e-14
2.809384607e-14
3.057893325e-14
3.304278811e-14
3.547045265e-14
3.784111708e-14
4.013953041e-14
4.237974637e-14
4.456356527e-14
4.664409509e-14
4.857221175e-14
5.036970456e-14
5.203796427e-14
5.361398436e-14
5.510546382e-14
5.650872695e-14
5.783128419e-14
5.907214182e-14
6.025787612e-14
6.133790894e-14
6.230333321e-14
6.315706387e-14
6.391508495e-14
6.456109721e-14
6.51298054e-14
6.558289038e-14
6.590869287e-14
6.613784813e-14
6.623488391e-14
6.625251378e-14
6.612045822e-14
6.589068549e-14
6.555641787e-14
6.510601894e-14
6.458651908e-14
6.397012833e-14
6.324930646e-14
6.244378122e-14
6.146791038e-14
6.038921325e-14
5.922877637e-14
5.797482406e-14
5.661584376e-14
5.518200194e-14
5.365481754e-14
5.199825465e-14
5.022562742e-14
4.836834788e-14
4.652080767e-14
4.455919246e-14
4.241914092e-14
4.024848995e-14
3.81754716e-14
3.604508437e-14
3.388929424e-14
3.158617862e-14
2.933845947e-14
2.713348004e-14
2.484265145e-14
2.271969093e-14
2.067450026e-14
1.848780449e-14
1.65113856e-14
1.47875149e-14
1.306478472e-14
1.11555505e-14
8.756560283e-15
1.024707256e-14
1.577965914e-14
3.261620216e-14
5.045684471e-14
5.204400676e-14
)


101
(
-2.583684531e-19
-1.163523501e-18
1.609019075e-18
7.994505952e-18
1.243657307e-17
2.489822829e-17
5.851667266e-17
1.120370932e-16
1.965716247e-16
3.202103764e-16
4.95812816e-16
7.293635855e-16
1.035381954e-15
1.425254434e-15
1.910402278e-15
2.506394948e-15
3.230552636e-15
4.09686386e-15
5.119581273e-15
6.316039373e-15
7.694581181e-15
9.261010478e-15
1.101685236e-14
1.296109635e-14
1.508710157e-14
1.738864928e-14
1.984683981e-14
2.24342779e-14
2.512014556e-14
2.78782467e-14
3.068602413e-14
3.352351787e-14
3.636834065e-14
3.921110418e-14
4.202611331e-14
4.478867033e-14
4.750860332e-14
5.019113469e-14
5.278485015e-14
5.525494955e-14
5.762094622e-14
5.987066762e-14
6.203164721e-14
6.411690273e-14
6.612803735e-14
6.805999872e-14
6.989805411e-14
7.16680386e-14
7.334352694e-14
7.493457669e-14
7.64365522e-14
7.784541982e-14
7.914277075e-14
8.032612746e-14
8.138982365e-14
8.242110717e-14
8.329184805e-14
8.404136278e-14
8.468602356e-14
8.518229494e-14
8.555677162e-14
8.581630308e-14
8.594733613e-14
8.594085901e-14
8.582642086e-14
8.564282698e-14
8.534144071e-14
8.486967871e-14
8.425105382e-14
8.347304587e-14
8.25709588e-14
8.154704236e-14
8.044525799e-14
7.918954634e-14
7.771304838e-14
7.600922093e-14
7.424316718e-14
7.246806679e-14
7.043992497e-14
6.81715826e-14
6.583165584e-14
6.348993281e-14
6.110212194e-14
5.859222627e-14
5.568735034e-14
5.281091212e-14
4.998449119e-14
4.700161826e-14
4.415073821e-14
4.117817636e-14
3.792410757e-14
3.502941142e-14
3.234567913e-14
2.954704812e-14
2.614551178e-14
2.130692003e-14
2.660860263e-14
3.925533203e-14
6.988491283e-14
9.639707929e-14
9.337843851e-14
)


101
(
-3.375194936e-19
-9.769025499e-19
1.843789824e-18
6.539175373e-18
1.345949193e-17
2.758614827e-17
6.368342481e-17
1.218894706e-16
2.127038197e-16
3.452647974e-16
5.327000279e-16
7.817447857e-16
1.106445418e-15
1.519430621e-15
2.032613039e-15
2.661752239e-15
3.424546505e-15
4.336704769e-15
5.41449297e-15
6.67643083e-15
8.133430671e-15
9.794493091e-15
1.16623668e-14
1.373560881e-14
1.601508252e-14
1.849571225e-14
2.116044371e-14
2.398521262e-14
2.69412962e-14
3.00012549e-14
3.314007395e-14
3.633871448e-14
3.957956403e-14
4.285484428e-14
4.613764706e-14
4.93974922e-14
5.263413884e-14
5.584724188e-14
5.89880396e-14
6.204558585e-14
6.503533536e-14
6.793871635e-14
7.07687401e-14
7.35422812e-14
7.625358653e-14
7.888336498e-14
8.141699103e-14
8.388840136e-14
8.628836829e-14
8.862871988e-14
9.089494237e-14
9.308381887e-14
9.517027037e-14
9.712193179e-14
9.90318306e-14
1.008949536e-13
1.02569533e-13
1.041299258e-13
1.056064074e-13
1.069587257e-13
1.081608878e-13
1.092407443e-13
1.101767806e-13
1.109709444e-13
1.116341607e-13
1.122401787e-13
1.127234062e-13
1.130713295e-13
1.132170142e-13
1.13140256e-13
1.129270167e-13
1.125864296e-13
1.120986664e-13
1.11431468e-13
1.105126092e-13
1.093352577e-13
1.080617526e-13
1.066317095e-13
1.049626515e-13
1.030256421e-13
1.008506534e-13
9.859047536e-14
9.634252825e-14
9.377997365e-14
9.062772855e-14
8.74612243e-14
8.434726449e-14
8.102377312e-14
7.754733659e-14
7.3725351e-14
6.970729673e-14
6.602404764e-14
6.244522199e-14
5.859240775e-14
5.342452837e-14
4.531560579e-14
5.725746812e-14
8.049777757e-14
1.306703965e-13
1.759518949e-13
1.729373354e-13
)


101
(
-4.110422889e-19
-4.934159867e-19
2.065455131e-18
6.850611838e-18
1.437340362e-17
2.999051159e-17
6.827664193e-17
1.306299831e-16
2.270287799e-16
3.674307524e-16
5.650793309e-16
8.276306437e-16
1.168548852e-15
1.601469549e-15
2.138894671e-15
2.796751409e-15
3.593151942e-15
4.545163075e-15
5.671134227e-15
6.990631864e-15
8.515788434e-15
1.025975149e-14
1.222680505e-14
1.441651185e-14
1.683523527e-14
1.948082724e-14
2.234138904e-14
2.539640651e-14
2.861968999e-14
3.198164305e-14
3.545562437e-14
3.902598755e-14
4.268054904e-14
4.640370199e-14
5.017018338e-14
5.394812291e-14
5.772730976e-14
6.1500274e-14
6.522885308e-14
6.89238187e-14
7.258820995e-14
7.620089026e-14
7.97637446e-14
8.32936666e-14
8.677680759e-14
9.01914354e-14
9.352852193e-14
9.681528452e-14
1.000593513e-13
1.032765285e-13
1.06422262e-13
1.095156921e-13
1.125426196e-13
1.154472778e-13
1.183334735e-13
1.211331556e-13
1.238259396e-13
1.263830342e-13
1.28926304e-13
1.313342886e-13
1.336108412e-13
1.35749426e-13
1.377386097e-13
1.395813019e-13
1.413551513e-13
1.430522339e-13
1.445974541e-13
1.460694484e-13
1.472860728e-13
1.482984146e-13
1.491697148e-13
1.498615359e-13
1.503408941e-13
1.506802588e-13
1.507658856e-13
1.505643971e-13
1.501413412e-13
1.496269833e-13
1.488104691e-13
1.476159831e-13
1.46083411e-13
1.44493017e-13
1.427675508e-13
1.407251082e-13
1.380046703e-13
1.349370575e-13
1.319091341e-13
1.287989607e-13
1.251711248e-13
1.210430858e-13
1.167458407e-13
1.12766962e-13
1.084948164e-13
1.040109191e-13
9.705358604e-14
8.520252402e-14
1.083702851e-13
1.460250165e-13
2.166052577e-13
2.769601815e-13
2.692674913e-13
)


101
(
-4.790796031e-19
-3.444607384e-19
2.274457987e-18
7.129959588e-18
1.51846655e-17
3.212766371e-17
7.232635174e-17
1.383227601e-16
2.396982527e-16
3.869741964e-16
5.932864745e-16
8.675520751e-16
1.222446548e-15
1.672380371e-15
2.230606977e-15
2.913233727e-15
3.739002042e-15
4.725984889e-15
5.894132791e-15
7.264199056e-15
8.847509633e-15
1.066236371e-14
1.271538343e-14
1.50102512e-14
1.755704877e-14
2.035587208e-14
2.340091499e-14
2.667575947e-14
3.015744294e-14
3.381628154e-14
3.76264394e-14
4.157496606e-14
4.565191438e-14
4.983133796e-14
5.408967504e-14
5.839850428e-14
6.274255179e-14
6.711012453e-14
7.14756983e-14
7.585023322e-14
8.023065183e-14
8.460015594e-14
8.895508988e-14
9.330281822e-14
9.762309733e-14
1.01901673e-13
1.061319663e-13
1.103326815e-13
1.145349056e-13
1.187210214e-13
1.228419129e-13
1.269761431e-13
1.310967078e-13
1.350944804e-13
1.390773247e-13
1.430369732e-13
1.469301784e-13
1.507092429e-13
1.54481273e-13
1.581624157e-13
1.617412288e-13
1.651648219e-13
1.684488496e-13
1.716657493e-13
1.748474811e-13
1.778470507e-13
1.808035165e-13
1.835913077e-13
1.862769778e-13
1.888810781e-13
1.912070315e-13
1.932944713e-13
1.951473027e-13
1.968998435e-13
1.98415591e-13
1.996205887e-13
2.007116258e-13
2.015294995e-13
2.020152982e-13
2.021830841e-13
2.018744312e-13
2.014362303e-13
2.007657246e-13
1.999255952e-13
1.982456736e-13
1.958480639e-13
1.935627272e-13
1.912574201e-13
1.883179035e-13
1.846463176e-13
1.805630387e-13
1.770219908e-13
1.725363181e-13
1.681555467e-13
1.596508723e-13
1.442892654e-13
1.824002706e-13
2.376617181e-13
3.268570967e-13
4.04115356e-13
3.936198305e-13
)


101
(
-5.41774225e-19
-4.59665337e-19
3.240698774e-18
7.379033963e-18
1.589902334e-17
3.401233707e-17
7.586603243e-17
1.450339164e-16
2.508258802e-16
4.041037575e-16
6.177092186e-16
9.019735907e-16
1.268842325e-15
1.733228555e-15
2.309236107e-15
3.013136998e-15
3.864290244e-15
4.881613749e-15
6.086207597e-15
7.499212478e-15
9.131637771e-15
1.100718364e-14
1.313575988e-14
1.552547813e-14
1.819018787e-14
2.113222756e-14
2.43497747e-14
2.783012777e-14
3.155568208e-14
3.550162384e-14
3.964601731e-14
4.397434992e-14
4.847282878e-14
5.311104256e-14
5.786669364e-14
6.271752788e-14
6.764720724e-14
7.264201057e-14
7.768271377e-14
8.276947028e-14
8.790999362e-14
9.307980737e-14
9.826979368e-14
1.034852502e-13
1.087115239e-13
1.139331259e-13
1.191308548e-13
1.24333777e-13
1.295742175e-13
1.348049129e-13
1.400266385e-13
1.453385232e-13
1.50664216e-13
1.559032496e-13
1.611662344e-13
1.66457803e-13
1.717056792e-13
1.768789686e-13
1.820359929e-13
1.872167964e-13
1.922819498e-13
1.972116674e-13
2.020540128e-13
2.069647411e-13
2.117771517e-13
2.164134604e-13
2.210258357e-13
2.255736333e-13
2.300898488e-13
2.344818525e-13
2.386442629e-13
2.42550773e-13
2.46240819e-13
2.498281911e-13
2.531785094e-13
2.562913852e-13
2.592803601e-13
2.618373597e-13
2.643335887e-13
2.662384665e-13
2.676819046e-13
2.690089762e-13
2.700064384e-13
2.707920534e-13
2.708741038e-13
2.700391568e-13
2.68988647e-13
2.680120401e-13
2.666560149e-13
2.640125772e-13
2.608988626e-13
2.582046298e-13
2.542627582e-13
2.509464868e-13
2.416167535e-13
2.220526925e-13
2.769340186e-13
3.515454365e-13
4.555944244e-13
5.544702962e-13
5.52907818e-13
)


101
(
-5.992687013e-19
-3.012235662e-19
3.390610906e-18
7.599506031e-18
1.652210367e-17
3.565889097e-17
7.892753166e-17
1.508247844e-16
2.605160148e-16
4.190113727e-16
6.387311226e-16
9.312915534e-16
1.308351116e-15
1.785015536e-15
2.376189103e-15
3.098277606e-15
3.970887577e-15
5.013660928e-15
6.248573911e-15
7.695579624e-15
9.369540333e-15
1.129786519e-14
1.349464554e-14
1.59696875e-14
1.874241385e-14
2.181829028e-14
2.519579584e-14
2.886644907e-14
3.282088146e-14
3.704249648e-14
4.151350088e-14
4.621538232e-14
5.113119749e-14
5.622698864e-14
6.148248052e-14
6.688409626e-14
7.241556849e-14
7.806120654e-14
8.380311359e-14
8.963823862e-14
9.556560021e-14
1.015585644e-13
1.076235718e-13
1.137599477e-13
1.199472048e-13
1.261672115e-13
1.324118923e-13
1.387100528e-13
1.450535439e-13
1.51429841e-13
1.578770096e-13
1.644637516e-13
1.710953418e-13
1.777295672e-13
1.84404945e-13
1.911287937e-13
1.979001481e-13
2.046294553e-13
2.11357845e-13
2.180906264e-13
2.249252077e-13
2.316221254e-13
2.3832998e-13
2.451730506e-13
2.518005973e-13
2.584052705e-13
2.649798253e-13
2.716649373e-13
2.782223482e-13
2.845919318e-13
2.910302499e-13
2.971312097e-13
3.031132252e-13
3.089606886e-13
3.144144379e-13
3.19780541e-13
3.24897596e-13
3.2992398e-13
3.347317381e-13
3.387646141e-13
3.425541776e-13
3.460881205e-13
3.491310938e-13
3.522435774e-13
3.544319006e-13
3.556367531e-13
3.564174315e-13
3.572187552e-13
3.578032188e-13
3.566953005e-13
3.553445841e-13
3.539150051e-13
3.514393686e-13
3.497221084e-13
3.39883705e-13
3.154437364e-13
3.888535116e-13
4.826952275e-13
5.939277329e-13
6.844372566e-13
6.67181736e-13
)


101
(
-6.517054515e-19
6.445778217e-20
2.829305568e-18
7.792912596e-18
1.705939417e-17
3.708251189e-17
8.154171731e-17
1.557537371e-16
2.688401201e-16
4.318430548e-16
6.566656137e-16
9.559166401e-16
1.341541509e-15
1.828582837e-15
2.432580114e-15
3.170077795e-15
4.060472529e-15
5.124052642e-15
6.383571594e-15
7.856271871e-15
9.565611001e-15
1.154001189e-14
1.379756639e-14
1.63482716e-14
1.921785641e-14
2.241588335e-14
2.594016598e-14
2.978760957e-14
3.395847904e-14
3.844355843e-14
4.322593928e-14
4.828587511e-14
5.36112998e-14
5.916022689e-14
6.491704574e-14
7.087803225e-14
7.702460143e-14
8.333649718e-14
8.979343126e-14
9.638833213e-14
1.031146483e-13
1.099658336e-13
1.16935397e-13
1.240170741e-13
1.312014148e-13
1.384825285e-13
1.458559691e-13
1.533066079e-13
1.608306865e-13
1.684660021e-13
1.7623067e-13
1.841694295e-13
1.922240511e-13
2.003611229e-13
2.085491038e-13
2.16842402e-13
2.253007011e-13
2.337099443e-13
2.421583468e-13
2.506811806e-13
2.593738553e-13
2.681236113e-13
2.769474094e-13
2.858293735e-13
2.945988127e-13
3.034847382e-13
3.121854017e-13
3.210387771e-13
3.299464663e-13
3.388091119e-13
3.477346442e-13
3.563826981e-13
3.649402102e-13
3.733219505e-13
3.812520666e-13
3.889983518e-13
3.967683331e-13
4.044625445e-13
4.117700338e-13
4.185628623e-13
4.250001559e-13
4.307196713e-13
4.36198837e-13
4.418718622e-13
4.464375262e-13
4.50023996e-13
4.528398457e-13
4.555986938e-13
4.581278658e-13
4.591272668e-13
4.599749809e-13
4.599395207e-13
4.592555768e-13
4.593852683e-13
4.492500088e-13
4.205001981e-13
5.109117148e-13
6.21147385e-13
7.348030881e-13
8.292127774e-13
8.093342783e-13
)


101
(
-6.992272741e-19
1.883330663e-19
2.991331147e-18
7.960706053e-18
1.974678552e-17
3.829753461e-17
8.373801705e-17
1.598771742e-16
2.7582732e-16
4.426418929e-16
6.717873253e-16
9.762969478e-16
1.369003417e-15
1.864603219e-15
2.479063344e-15
3.229095746e-15
4.133788359e-15
5.214100205e-15
6.493380397e-15
7.987157635e-15
9.726868501e-15
1.174106244e-14
1.40494598e-14
1.66654777e-14
1.961941096e-14
2.292638977e-14
2.658508458e-14
3.05974062e-14
3.497269084e-14
3.970605257e-14
4.478015828e-14
5.017919115e-14
5.590209862e-14
6.189618497e-14
6.815122672e-14
7.467221952e-14
8.143562685e-14
8.841477636e-14
9.55447999e-14
1.029056462e-13
1.104999013e-13
1.182230492e-13
1.261073665e-13
1.341621128e-13
1.423845293e-13
1.507707125e-13
1.593118843e-13
1.679725461e-13
1.7677873e-13
1.857570804e-13
1.949147353e-13
2.042851858e-13
2.138519613e-13
2.235807124e-13
2.334013655e-13
2.434246925e-13
2.536814172e-13
2.639158137e-13
2.742758741e-13
2.848562687e-13
2.954745946e-13
3.063503265e-13
3.175329364e-13
3.286181496e-13
3.397866216e-13
3.510127832e-13
3.620893605e-13
3.734179897e-13
3.849231442e-13
3.96550626e-13
4.079479517e-13
4.193385643e-13
4.306783334e-13
4.418149427e-13
4.525352082e-13
4.630927336e-13
4.734485907e-13
4.835797552e-13
4.93785229e-13
5.035679986e-13
5.125751407e-13
5.205962414e-13
5.287160913e-13
5.367933701e-13
5.436893426e-13
5.495580547e-13
5.545195561e-13
5.590653042e-13
5.6335246e-13
5.667541895e-13
5.693652634e-13
5.705653236e-13
5.716478147e-13
5.732902061e-13
5.626686663e-13
5.296688249e-13
6.352461628e-13
7.596930664e-13
8.731971699e-13
9.669583057e-13
9.452389323e-13
)


101
(