/*--------------------------------*- C++ -*----------------------------------*\
| =========                 |                                                 |
| \\      /  F ield         | OpenFOAM: The Open Source CFD Toolbox           |
|  \\    /   O peration     | Version:  2.3.1                                 |
|   \\  /    A nd           | Web:      www.OpenFOAM.org                      |
|    \\/     M anipulation  |                                                 |
\*---------------------------------------------------------------------------*/
FoamFile
{
    version     2.0;
    format      ascii;
    class       dictionary;
    location    "constant";
    object      PM2;
}
// * * * * * * * * * * * * * * * * * * * * * * * * * * * * * * * * * * * * * //

PM2_table
101
(

101
(
0.1032217758
0.003534571416
0.001817389853
0.001202563304
0.0008833084258
0.0006885441365
0.0005581602096
0.0004647998503
0.0003956783002
0.000342578565
0.000300747066
0.0002670595304
0.0002395106785
0.0002163330911
0.0001969497954
0.0001804376911
0.0001661291543
0.0001536074601
0.0001429895278
0.000133131716
0.0001247773075
0.0001173759915
0.0001104669709
0.0001043718246
9.893229131e-05
9.400051672e-05
8.951444131e-05
8.544238938e-05
8.168077685e-05
7.825020765e-05
7.508718819e-05
7.217477692e-05
6.964737763e-05
6.695974224e-05
6.464082095e-05
6.248080766e-05
6.04708447e-05
5.865332724e-05
5.691985956e-05
5.522133161e-05
5.360846131e-05
5.220148363e-05
5.081806982e-05
4.950426762e-05
4.831398313e-05
4.71481351e-05
4.607168156e-05
4.502270588e-05
4.404493637e-05
4.30962547e-05
4.220929546e-05
4.136183455e-05
4.055293742e-05
3.978316327e-05
3.905324745e-05
3.836664084e-05
3.767535003e-05
3.705072779e-05
3.643153033e-05
3.585059633e-05
3.528646184e-05
3.474878392e-05
3.4236648e-05
3.37430657e-05
3.327090073e-05
3.281634449e-05
3.238204791e-05
3.196780517e-05
3.156575681e-05
3.118378648e-05
3.081675085e-05
3.046554625e-05
3.012283313e-05
2.979572303e-05
2.948616961e-05
2.919745617e-05
2.891535384e-05
2.864413923e-05
2.838798378e-05
2.814535006e-05
2.791735356e-05
2.769721028e-05
2.749057711e-05
2.729739849e-05
2.711714612e-05
2.694814281e-05
2.679220796e-05
2.664764422e-05
2.651473581e-05
2.639363653e-05
2.628645838e-05
2.618706713e-05
2.609949204e-05
2.602154441e-05
2.59534991e-05
2.585366045e-05
1.285708713e-05
-8.771588223e-14
2.760662229e-23
8.912011727e-25
-5.404701075e-23
)


101
(
0.1022322955
0.003500208224
0.001799565718
0.001190632287
0.0008744297016
0.0006815317191
0.0005523671696
0.0004598764231
0.0003913938378
0.0003387833478
0.0002973327992
0.0002639621011
0.0002366483036
0.0002136937221
0.0001944963243
0.0001781315913
0.0001639434352
0.0001515845162
0.0001410076775
0.0001312871964
0.0001230366107
0.0001156603874
0.0001088367385
0.0001028288561
9.745096587e-05
9.25755803e-05
8.814749628e-05
8.411874649e-05
8.040846807e-05
7.702477943e-05
7.391228134e-05
7.107487907e-05
6.84956109e-05
6.587996662e-05
6.362499796e-05
6.149687698e-05
5.953289835e-05
5.772882559e-05
5.599208334e-05
5.432239279e-05
5.278226697e-05
5.138707912e-05
5.001641661e-05
4.874767002e-05
4.756864206e-05
4.642608996e-05
4.53634697e-05
4.433626481e-05
4.337412218e-05
4.244834762e-05
4.158104151e-05
4.074857253e-05
3.995769666e-05
3.920687728e-05
3.849369865e-05
3.780713816e-05
3.714301841e-05
3.652979374e-05
3.592324611e-05
3.535525046e-05
3.480385464e-05
3.428156385e-05
3.37801324e-05
3.3298076e-05
3.28371261e-05
3.239493056e-05
3.197302652e-05
3.156729413e-05
3.11773998e-05
3.080691776e-05
3.044946724e-05
3.010606829e-05
2.977592931e-05
2.946369771e-05
2.916684971e-05
2.888402143e-05
2.861054408e-05
2.835317517e-05
2.811003324e-05
2.787917713e-05
2.766002346e-05
2.745204707e-05
2.725835987e-05
2.707708508e-05
2.690977473e-05
2.6754213e-05
2.66114157e-05
2.648013918e-05
2.635998195e-05
2.62522425e-05
2.615874234e-05
2.607100596e-05
2.599555593e-05
2.592880976e-05
2.58478265e-05
2.570295671e-05
1.257140425e-05
-3.872338774e-07
-3.808007971e-07
-3.748996715e-07
-3.718429684e-07
)


101
(
0.1012424537
0.003465362278
0.001781452699
0.001178623779
0.0008656005338
0.0006746610605
0.0005467837224
0.0004552328012
0.0003874369454
0.0003353601849
0.0002943250758
0.0002613005772
0.0002342399763
0.0002115389507
0.0001925322418
0.0001763237464
0.0001622709462
0.000150080964
0.0001395329449
0.0001299832584
0.0001217995679
0.0001144551002
0.0001077366589
0.0001017947659
9.646554351e-05
9.163826286e-05
8.725704801e-05
8.326173974e-05
7.959437612e-05
7.624291993e-05
7.316697836e-05
7.037692796e-05
6.775583518e-05
6.522814758e-05
6.298960186e-05
6.088550063e-05
5.89457442e-05
5.714404756e-05
5.541368726e-05
5.37705383e-05
5.227174326e-05
5.087336693e-05
4.952087854e-05
4.827399804e-05
4.709648537e-05
4.597249413e-05
4.491359683e-05
4.390274317e-05
4.294708676e-05
4.203692541e-05
4.117800639e-05
4.035523469e-05
3.957375757e-05
3.883224412e-05
3.812700712e-05
3.744144926e-05
3.679381883e-05
3.618130626e-05
3.558591962e-05
3.502198101e-05
3.447878761e-05
3.396314891e-05
3.346733607e-05
3.299149257e-05
3.253580725e-05
3.209994533e-05
3.168373495e-05
3.128258259e-05
3.089923411e-05
3.053379565e-05
3.01819708e-05
2.984356282e-05
2.952064787e-05
2.921473277e-05
2.892379443e-05
2.864480031e-05
2.83775848e-05
2.812700571e-05
2.789103878e-05
2.76672173e-05
2.745447625e-05
2.725477325e-05
2.706862679e-05
2.689573702e-05
2.673664384e-05
2.659013239e-05
2.645716015e-05
2.633605908e-05
2.622524784e-05
2.612784893e-05
2.604412257e-05
2.596469424e-05
2.589896037e-05
2.5839674e-05
2.574190084e-05
2.554606242e-05
1.227897945e-05
-7.747233879e-07
-7.619260353e-07
-7.501834832e-07
-7.440620879e-07
)


101
(
0.1002522459
0.00343051106
0.001763341053
0.001166615778
0.0008567717918
0.0006677902295
0.0005412013228
0.000450588399
0.0003834804381
0.0003319368149
0.0002913176372
0.0002586377453
0.0002318345788
0.0002093811216
0.0001905680722
0.0001745172524
0.0001606001108
0.0001485683414
0.0001380737929
0.0001286647554
0.0001205637272
0.0001132606895
0.0001066285786
0.0001007573966
9.54807408e-05
9.070101897e-05
8.636559845e-05
8.240669779e-05
7.87787003e-05
7.546117726e-05
7.241948478e-05
6.967082874e-05
6.703994792e-05
6.455816467e-05
6.235189115e-05
6.027185017e-05
5.835584752e-05
5.656523853e-05
5.484205273e-05
5.321650733e-05
5.174861122e-05
5.036367922e-05
4.902455777e-05
4.779555692e-05
4.66277896e-05
4.551658919e-05
4.446655841e-05
4.346727359e-05
4.252119247e-05
4.162271479e-05
4.077416437e-05
3.996091757e-05
3.918871647e-05
3.845630701e-05
3.775950874e-05
3.707901913e-05
3.644057223e-05
3.583449409e-05
3.524653577e-05
3.468894812e-05
3.415238839e-05
3.364345715e-05
3.315383098e-05
3.268391045e-05
3.223382119e-05
3.180376165e-05
3.139328811e-05
3.099741614e-05
3.061971763e-05
3.025967749e-05
2.991326174e-05
2.958027159e-05
2.926314987e-05
2.896313218e-05
2.867808246e-05
2.840466255e-05
2.814307537e-05
2.789861999e-05
2.766945944e-05
2.745268085e-05
2.72471405e-05
2.705488293e-05
2.687635232e-05
2.671169019e-05
2.656059549e-05
2.642271594e-05
2.629931157e-05
2.618843026e-05
2.608690968e-05
2.599965632e-05
2.592518103e-05
2.585343849e-05
2.579656165e-05
2.574424695e-05
2.562819338e-05
2.537777714e-05
1.198020005e-05
-1.16226049e-06
-1.14307889e-06
-1.125483917e-06
-1.116307901e-06
)


101
(
0.09926165771
0.003395654187
0.001745230571
0.001154608165
0.0008479433732
0.0006609191866
0.0005356198593
0.0004459432985
0.0003795242108
0.0003285132847
0.0002883104495
0.0002559738126
0.0002294316162
0.0002072210647
0.000188603481
0.0001727118737
0.000158930882
0.0001470487432
0.0001366254513
0.0001273377112
0.0001193263584
0.0001120744092
0.0001055169461
9.971623327e-05
9.449535023e-05
8.976376637e-05
8.547341568e-05
8.155266423e-05
7.796238367e-05
7.467920524e-05
7.16706003e-05
6.895902306e-05
6.633644395e-05
6.388328767e-05
6.170874095e-05
5.965539059e-05
5.776356983e-05
5.598875526e-05
5.427572889e-05
5.266385707e-05
5.121870108e-05
4.985214271e-05
4.852775802e-05
4.73142431e-05
4.61590471e-05
4.505987258e-05
4.402016482e-05
4.303142645e-05
4.209533315e-05
4.120729007e-05
4.036894834e-05
3.956534091e-05
3.880230641e-05
3.807879753e-05
3.739051971e-05
3.671700514e-05
3.608596369e-05
3.548693638e-05
3.490597482e-05
3.435492105e-05
3.38247468e-05
3.332216476e-05
3.283879881e-05
3.237478113e-05
3.193033806e-05
3.150591196e-05
3.110099587e-05
3.071056189e-05
3.033831598e-05
2.998356039e-05
2.964247595e-05
2.931501599e-05
2.90032925e-05
2.870861171e-05
2.842906681e-05
2.816156746e-05
2.790571721e-05
2.766705014e-05
2.744428108e-05
2.723426402e-05
2.703606921e-05
2.685120283e-05
2.668014285e-05
2.652352562e-05
2.638022586e-05
2.625072181e-05
2.61363144e-05
2.603533889e-05
2.594310769e-05
2.586593069e-05
2.58002502e-05
2.573524412e-05
2.568706637e-05
2.564086933e-05
2.550470096e-05
2.519695156e-05
1.167468868e-05
-1.549743209e-06
-1.524099931e-06
-1.500564665e-06
-1.488318628e-06
)


101
(
0.09827071145
0.003360792592
0.001727121675
0.001142601255
0.0008391155067
0.000654048134
0.0005300394221
0.0004412977337
0.0003755683101
0.0003250897411
0.0002853035827
0.0002533090452
0.0002270307516
0.000205059502
0.0001866383619
0.0001709074313
0.0001572632223
0.0001455239067
0.0001351845279
0.0001260060398
0.0001180864836
0.0001108938181
0.0001044044726
9.867189952e-05
9.350864177e-05
8.882625248e-05
8.458068804e-05
8.069909918e-05
7.714587152e-05
7.389700586e-05
7.092085553e-05
6.82433762e-05
6.563896545e-05
6.320861283e-05
6.106198569e-05
5.903606356e-05
5.716840536e-05
5.541241648e-05
5.371278958e-05
5.21137733e-05
5.068614734e-05
4.933784654e-05
4.802956677e-05
4.683091164e-05
4.568912369e-05
4.460223951e-05
4.357352962e-05
4.259528973e-05
4.16692548e-05
4.079118345e-05
3.996260662e-05
3.916847023e-05
3.841446458e-05
3.769963004e-05
3.701973779e-05
3.635395562e-05
3.573014318e-05
3.513808061e-05
3.456399812e-05
3.401942298e-05
3.349551879e-05
3.299903366e-05
3.252176566e-05
3.206357769e-05
3.162475845e-05
3.120587303e-05
3.080633068e-05
3.042124001e-05
3.005432538e-05
2.970468908e-05
2.936878336e-05
2.904678842e-05
2.874031515e-05
2.845064263e-05
2.817622986e-05
2.791454174e-05
2.766442277e-05
2.743136401e-05
2.721462289e-05
2.701098684e-05
2.681999552e-05
2.664251582e-05
2.647886596e-05
2.633011975e-05
2.619437042e-05
2.607294666e-05
2.596714938e-05
2.587553201e-05
2.57922144e-05
2.572526864e-05
2.566805556e-05
2.560930264e-05
2.556893616e-05
2.552791988e-05
2.537030026e-05
2.500315617e-05
1.136236625e-05
-1.937112392e-06
-1.905145376e-06
-1.875821954e-06
-1.86053566e-06
)


101
(
0.09727937514
0.003325925037
0.001709013827
0.00113059472
0.0008302879534
0.000647176909
0.0005244598112
0.0004366516834
0.0003716125838
0.0003216661348
0.0002822969497
0.0002506435342
0.0002246315975
0.0002028969062
0.0001846726209
0.000169103689
0.0001555969922
0.0001439951779
0.0001337485387
0.0001246721356
0.0001168440099
0.0001097168844
0.0001032925841
9.762531323e-05
9.252028076e-05
8.788811211e-05
8.368743465e-05
7.984565215e-05
7.63292684e-05
7.311459669e-05
7.017052257e-05
6.752513211e-05
6.494415768e-05
6.253556504e-05
6.041336566e-05
5.841355098e-05
5.657028286e-05
5.483489617e-05
5.315134702e-05
5.156594059e-05
5.015321738e-05
4.882158278e-05
4.752963899e-05
4.634579003e-05
4.521767904e-05
4.414335929e-05
4.312605503e-05
4.215850843e-05
4.124264506e-05
4.037439458e-05
3.955528898e-05
3.877038896e-05
3.80252024e-05
3.731878385e-05
3.66470172e-05
3.59891277e-05
3.537257903e-05
3.478743764e-05
3.422015228e-05
3.368196835e-05
3.316422928e-05
3.267364045e-05
3.220225215e-05
3.174973636e-05
3.131645265e-05
3.090303298e-05
3.050872204e-05
3.012881813e-05
2.976706297e-05
2.942236329e-05
2.909146805e-05
2.877480345e-05
2.847344215e-05
2.818855574e-05
2.791897796e-05
2.766286116e-05
2.741833299e-05
2.719075012e-05
2.697979815e-05
2.678213866e-05
2.659799596e-05
2.642771202e-05
2.627142926e-05
2.613043063e-05
2.600202794e-05
2.588838872e-05
2.579083743e-05
2.570789122e-05
2.563326632e-05
2.557620895e-05
2.552746043e-05
2.547458137e-05
2.54409877e-05
2.540466097e-05
2.522428494e-05
2.479601316e-05
1.10427005e-05
-2.324488581e-06
-2.2860944e-06
-2.250874376e-06
-2.232538964e-06
)


101
(
0.0962876515
0.003291051716
0.001690907118
0.001118588648
0.0008214607773
0.0006403055844
0.0005188810221
0.0004320052776
0.0003676570247
0.0003182425262
0.0002792905682
0.0002479774456
0.000222233896
0.0002007336968
0.0001827062767
0.0001673004711
0.000153932076
0.0001424636341
0.0001323157848
0.0001233373975
0.0001155992898
0.0001085421698
0.0001021818983
9.657740328e-05
9.153032701e-05
8.69491167e-05
8.279363899e-05
7.899213312e-05
7.551258548e-05
7.233200479e-05
6.941975921e-05
6.680516075e-05
6.425035268e-05
6.186420384e-05
5.976433435e-05
5.7788835e-05
5.596937174e-05
5.425542402e-05
5.258994755e-05
5.101952978e-05
4.962079739e-05
4.830436464e-05
4.702821071e-05
4.585898732e-05
4.474461755e-05
4.368301637e-05
4.267734614e-05
4.172068357e-05
4.081511147e-05
3.995664544e-05
3.914685921e-05
3.837100381e-05
3.763444293e-05
3.693620295e-05
3.627226397e-05
3.562212772e-05
3.501281429e-05
3.44345592e-05
3.387395138e-05
3.334205736e-05
3.283037264e-05
3.234549563e-05
3.187976474e-05
3.143270579e-05
3.100482024e-05
3.059677881e-05
3.020760392e-05
2.983273842e-05
2.947595617e-05
2.913598957e-05
2.880988536e-05
2.849836821e-05
2.820198129e-05
2.792172326e-05
2.765673776e-05
2.740594229e-05
2.716681512e-05
2.694456676e-05
2.67391834e-05
2.654715032e-05
2.636940167e-05
2.620597444e-05
2.605688221e-05
2.592355274e-05
2.580233516e-05
2.569630146e-05
2.560673838e-05
2.553192234e-05
2.54653116e-05
2.54177877e-05
2.537756621e-05
2.533019e-05
2.530256398e-05
2.527033056e-05
2.506614872e-05
2.457437052e-05
1.071519207e-05
-2.711732926e-06
-2.666797952e-06
-2.625583694e-06
-2.604223882e-06
)


101
(
0.09529551817
0.003256172019
0.001672801179
0.001106582829
0.0008126338245
0.0006334340619
0.0005133029147
0.0004273585221
0.0003637015365
0.0003148188844
0.0002762843795
0.0002453108596
0.0002198373758
0.000198570158
0.0001807393693
0.000165497599
0.0001522683194
0.0001409300962
0.0001308850888
0.0001220026075
0.0001143528258
0.0001073686595
0.0001010725474
9.552895494e-05
9.053905719e-05
8.600914137e-05
8.189920497e-05
7.813837271e-05
7.469577853e-05
7.154923836e-05
6.866864841e-05
6.608397705e-05
6.355668571e-05
6.11941111e-05
5.911567361e-05
5.716289105e-05
5.536621629e-05
5.367385473e-05
5.202765092e-05
5.047353675e-05
4.908886157e-05
4.778672574e-05
4.652563538e-05
4.537067816e-05
4.426992531e-05
4.322105361e-05
4.222710865e-05
4.128142682e-05
4.038620383e-05
3.953752948e-05
3.873697787e-05
3.797001623e-05
3.724193596e-05
3.65517043e-05
3.589535985e-05
3.525277774e-05
3.465054631e-05
3.407903211e-05
3.3525003e-05
3.299930325e-05
3.24935432e-05
3.201422216e-05
3.155394929e-05
3.111211052e-05
3.06894139e-05
3.028661588e-05
2.990249904e-05
2.9532562e-05
2.918056885e-05
2.884510143e-05
2.852355873e-05
2.82170083e-05
2.792544159e-05
2.764966118e-05
2.738907149e-05
2.714334434e-05
2.690937226e-05
2.669225557e-05
2.649224107e-05
2.6305538e-05
2.613374942e-05
2.597676119e-05
2.583460754e-05
2.570885111e-05
2.559466396e-05
2.549606735e-05
2.541414689e-05
2.53471092e-05
2.528772502e-05
2.52493875e-05
2.521742518e-05
2.517532964e-05
2.515307768e-05
2.512424546e-05
2.489457941e-05
2.433798082e-05
1.03805378e-05
-3.098789761e-06
-3.046945381e-06
-2.999418324e-06
-2.975094213e-06
)


101
(
0.09430300404
0.00322128681
0.001654696545
0.001094577645
0.0008038073783
0.0006265625832
0.0005077256259
0.0004227116404
0.0003597462248
0.0003113953394
0.0002732784737
0.0002426439685
0.0002174419218
0.0001964065947
0.0001787720608
0.0001636950215
0.0001506056487
0.0001393952721
0.0001294557165
0.0001206682189
0.0001131051644
0.0001061957661
9.996448413e-05
9.448054666e-05
8.95468421e-05
8.506820494e-05
8.100409125e-05
7.728428474e-05
7.387880855e-05
7.076630849e-05
6.791727388e-05
6.536196821e-05
6.286280906e-05
6.052480687e-05
5.84677175e-05
5.653654786e-05
5.476152415e-05
5.309030809e-05
5.146391542e-05
4.992714209e-05
4.855698827e-05
4.726878049e-05
4.602217462e-05
4.48810028e-05
4.379361323e-05
4.275738978e-05
4.177517346e-05
4.084047055e-05
3.995559455e-05
3.911669686e-05
3.832531424e-05
3.756715896e-05
3.684743319e-05
3.616507199e-05
3.551614788e-05
3.488091147e-05
3.42855687e-05
3.372065367e-05
3.317309834e-05
3.265348645e-05
3.215354649e-05
3.167966562e-05
3.122467065e-05
3.078780446e-05
3.037003264e-05
2.997227503e-05
2.959310316e-05
2.922803064e-05
2.888072247e-05
2.854954635e-05
2.823229219e-05
2.793044398e-05
2.764351495e-05
2.737208204e-05
2.711572701e-05
2.687479743e-05
2.664568523e-05
2.643348001e-05
2.62386568e-05
2.605702666e-05
2.589081389e-05
2.573979634e-05
2.560426578e-05
2.548587495e-05
2.537853833e-05
2.528716112e-05
2.521265786e-05
2.515311988e-05
2.510029364e-05
2.507059046e-05
2.504638371e-05
2.500948503e-05
2.499217687e-05
2.496590934e-05
2.47095225e-05
2.40871449e-05
1.003860668e-05
-3.485175437e-06
-3.425881516e-06
-3.371345402e-06
-3.343841454e-06
)


101
(
0.09331011858
0.003186396577
0.001636593464
0.00108257329
0.0007949815826
0.0006196912817
0.0005021492093
0.0004180647774
0.0003557911425
0.0003079719649
0.000270272899
0.0002399769081
0.0002150474216
0.0001942432021
0.0001768044832
0.0001618926968
0.0001489439721
0.0001378596766
0.0001280272309
0.0001193343986
0.0001118567722
0.0001050231915
9.885754231e-05
9.343256769e-05
8.85541093e-05
8.412645603e-05
8.01083169e-05
7.642983399e-05
7.306165725e-05
6.998321994e-05
6.716565572e-05
6.463933867e-05
6.216852692e-05
5.985586854e-05
5.782039275e-05
5.591022998e-05
5.41558831e-05
5.250518578e-05
5.089867095e-05
4.937978369e-05
4.802464414e-05
4.675038407e-05
4.551785427e-05
4.439006628e-05
4.331576342e-05
4.229200375e-05
4.132141633e-05
4.039765988e-05
3.952308147e-05
3.869393318e-05
3.791165674e-05
3.716222366e-05
3.645076489e-05
3.577616703e-05
3.513452126e-05
3.450644587e-05
3.391782285e-05
3.335933144e-05
3.28181215e-05
3.230450351e-05
3.181029049e-05
3.134175039e-05
3.089189588e-05
3.045979155e-05
3.004665846e-05
2.965368086e-05
2.927927628e-05
2.891899115e-05
2.85762809e-05
2.824922383e-05
2.793599878e-05
2.763857655e-05
2.735605036e-05
2.708877652e-05
2.683647048e-05
2.660012276e-05
2.637561758e-05
2.61680299e-05
2.597816092e-05
2.58014366e-05
2.564050192e-05
2.549497387e-05
2.536561341e-05
2.525437261e-05
2.515365643e-05
2.506921727e-05
2.500197776e-05
2.494971655e-05
2.490302339e-05
2.488103841e-05
2.486433049e-05
2.483251142e-05
2.481969789e-05
2.479516689e-05
2.451105909e-05
2.382171861e-05
9.689761147e-06
-3.870197452e-06
-3.802927081e-06
-3.741625541e-06
-3.711751136e-06
)


101
(
0.09231678187
0.003151498832
0.001618490613
0.001070568923
0.0007861558218
0.0006128196969
0.0004965732397
0.0004134176704
0.0003518360056
0.0003045485338
0.0002672674394
0.0002373095677
0.000212653584
0.0001920799558
0.0001748366104
0.0001600904557
0.0001472830539
0.0001363235946
0.0001265992322
0.0001180011055
0.0001106079216
0.0001038506443
9.775143482e-05
9.238515889e-05
8.756117477e-05
8.318405979e-05
7.921189368e-05
7.55749518e-05
7.224425603e-05
6.919991808e-05
6.641374383e-05
6.391614683e-05
6.147372164e-05
5.918690228e-05
5.717341767e-05
5.528406103e-05
5.354972465e-05
5.191882761e-05
5.033188966e-05
4.883116865e-05
4.749145735e-05
4.623124902e-05
4.501253604e-05
4.389781032e-05
4.283630857e-05
4.182485209e-05
4.086581161e-05
3.995289246e-05
3.908854275e-05
3.826908538e-05
3.749587138e-05
3.675510719e-05
3.605183421e-05
3.538490996e-05
3.475042604e-05
3.41293567e-05
3.354724081e-05
3.299497142e-05
3.245995872e-05
3.19522119e-05
3.146364331e-05
3.100036854e-05
3.055555124e-05
3.012805363e-05
2.971930447e-05
2.933078304e-05
2.896086202e-05
2.860521231e-05
2.826703204e-05
2.794402015e-05
2.76346267e-05
2.734131786e-05
2.706285615e-05
2.679948444e-05
2.655103448e-05
2.631912107e-05
2.609900454e-05
2.589571336e-05
2.571050543e-05
2.553854003e-05
2.538266748e-05
2.524220145e-05
2.511848118e-05
2.501405658e-05
2.491977729e-05
2.484204934e-05
2.478181168e-05
2.473673695e-05
2.469579513e-05
2.46807567e-05
2.467121414e-05
2.464412242e-05
2.463549764e-05
2.461195319e-05
2.429922754e-05
2.354176068e-05
9.334574877e-06
-4.253221958e-06
-4.177356915e-06
-4.108192505e-06
-4.075519274e-06
)


101
(
0.0913230319
0.003116594456
0.001600388518
0.001058564926
0.0007773303808
0.0006059480699
0.0004909978637
0.0004087705244
0.0003478809397
0.0003011251679
0.0002642621852
0.0002346421026
0.0002102603789
0.0001899170198
0.0001728686235
0.0001582883273
0.0001456228472
0.0001347873635
0.0001251716029
0.0001166683609
0.0001093589045
0.0001026781238
9.664602854e-05
9.133844536e-05
8.656838557e-05
8.224133826e-05
7.831499249e-05
7.471969409e-05
7.142662236e-05
6.841642302e-05
6.566157238e-05
6.319248025e-05
6.077835513e-05
5.851764506e-05
5.652653788e-05
5.465800905e-05
5.294324936e-05
5.13315481e-05
4.976386273e-05
4.828130301e-05
4.695717037e-05
4.5711134e-05
4.450618993e-05
4.340427614e-05
4.235533835e-05
4.135598693e-05
4.040833966e-05
3.950620925e-05
3.865202761e-05
3.784212846e-05
3.707789272e-05
3.634573956e-05
3.565061113e-05
3.499128954e-05
3.436386497e-05
3.374965591e-05
3.317382826e-05
3.262757017e-05
3.209852999e-05
3.159650635e-05
3.111349361e-05
3.065538168e-05
3.021551017e-05
2.979248951e-05
2.93879388e-05
2.90035621e-05
2.863776958e-05
2.828647661e-05
2.795271657e-05
2.763371583e-05
2.732804162e-05
2.70385952e-05
2.676385434e-05
2.650405573e-05
2.625921521e-05
2.603151352e-05
2.581557727e-05
2.561635868e-05
2.543550838e-05
2.526802729e-05
2.511705729e-05
2.498138526e-05
2.486273459e-05
2.47646196e-05
2.467671635e-05
2.460551746e-05
2.455191187e-05
2.451387975e-05
2.447839529e-05
2.446979063e-05
2.446684951e-05
2.44442576e-05
2.4439453e-05
2.441623135e-05
2.407400447e-05
2.324768701e-05
8.973827594e-06
-4.633548127e-06
-4.54894116e-06
-4.472258635e-06
-4.437345672e-06
)


101
(
0.09032883217
0.003081682105
0.001582286502
0.001046560884
0.0007685049574
0.0005990761837
0.00048542286
0.0004041232301
0.0003439258114
0.0002977017606
0.0002612570264
0.0002319744752
0.0002078676417
0.0001877543813
0.0001709005532
0.0001564862396
0.0001439632139
0.0001332511249
0.0001237442469
0.0001153360762
0.000108109865
0.0001015056056
9.554112859e-05
9.029239733e-05
8.55759014e-05
8.129846706e-05
7.741769268e-05
7.386406149e-05
7.060873951e-05
6.763273147e-05
6.490913673e-05
6.246834772e-05
6.008240683e-05
5.784793294e-05
5.587948012e-05
5.403191337e-05
5.233654602e-05
5.074364189e-05
4.919475172e-05
4.773017731e-05
4.642176416e-05
4.519002033e-05
4.399878271e-05
4.290941853e-05
4.18727935e-05
4.088541545e-05
3.994908906e-05
3.905762054e-05
3.821348477e-05
3.741305664e-05
3.665766824e-05
3.593402117e-05
3.524697686e-05
3.459521683e-05
3.397480686e-05
3.336733035e-05
3.279762598e-05
3.22571084e-05
3.173375796e-05
3.123725848e-05
3.075963689e-05
3.030656578e-05
2.987153993e-05
2.945292526e-05
2.905242981e-05
2.867190527e-05
2.830986361e-05
2.796255363e-05
2.763300137e-05
2.731793917e-05
2.701596101e-05
2.673024386e-05
2.64589471e-05
2.620234673e-05
2.596073951e-05
2.573696116e-05
2.552503095e-05
2.532968462e-05
2.515289346e-05
2.498956833e-05
2.484329563e-05
2.471220164e-05
2.459816866e-05
2.450575889e-05
2.442401463e-05
2.435928297e-05
2.431205085e-05
2.428067256e-05
2.425056854e-05
2.42481153e-05
2.425098621e-05
2.423254933e-05
2.423124345e-05
2.42078419e-05
2.383550682e-05
2.29397594e-05
8.607666524e-06
-5.010849767e-06
-4.917748209e-06
-4.833312327e-06
-4.795957752e-06
)


101
(
0.08933420363
0.003046762772
0.001564185059
0.001034557159
0.0007596798217
0.0005922042661
0.0004798483711
0.0003994759736
0.0003399707454
0.0002942784228
0.0002582520488
0.0002293068124
0.0002054753774
0.0001855921423
0.0001689325346
0.0001546842612
0.000142304123
0.000131715081
0.0001223171822
0.0001140042865
0.000106860976
0.0001003331512
9.443666642e-05
8.924701684e-05
8.458386293e-05
8.035563309e-05
7.652015158e-05
7.300815107e-05
6.979066574e-05
6.684889467e-05
6.415649403e-05
6.174383675e-05
5.938592119e-05
5.717768983e-05
5.523206692e-05
5.340563388e-05
5.172960396e-05
5.015519996e-05
4.862474694e-05
4.717802466e-05
4.588528015e-05
4.466788962e-05
4.349031599e-05
4.241335103e-05
4.138879353e-05
4.041314867e-05
3.948801797e-05
3.860718159e-05
3.777301545e-05
3.698188045e-05
3.623519485e-05
3.551991458e-05
3.484083796e-05
3.419658909e-05
3.358313829e-05
3.298235504e-05
3.241862407e-05
3.188359627e-05
3.136565137e-05
3.087437364e-05
3.040189618e-05
2.995370855e-05
2.952340994e-05
2.910911292e-05
2.87125428e-05
2.833567844e-05
2.797703002e-05
2.763327353e-05
2.73075778e-05
2.699626636e-05
2.669795052e-05
2.641593891e-05
2.614793537e-05
2.589420972e-05
2.565540649e-05
2.543515063e-05
2.522692735e-05
2.503529708e-05
2.486240415e-05
2.470284844e-05
2.456090847e-05
2.443422037e-05
2.432451876e-05
2.423716951e-05
2.416112815e-05
2.410285121e-05
2.406184671e-05
2.403662968e-05
2.401177441e-05
2.401513234e-05
2.402314692e-05
2.400844225e-05
2.401035542e-05
2.398636941e-05
2.3583452e-05
2.261771541e-05
8.235746951e-06
-5.385562938e-06
-5.284370417e-06
-5.191682549e-06
-5.150590944e-06
)


101
(
0.08833923854
0.003011839539
0.00154608583
0.001022554871
0.0007508558014
0.0005853329795
0.0004742748945
0.0003948292304
0.0003360161207
0.0002908554817
0.0002552475313
0.0002266394026
0.0002030837525
0.0001834305261
0.0001669648277
0.0001528825867
0.0001406456706
0.0001301794761
0.0001208905814
0.0001126731069
0.0001056124574
9.9160945e-05
9.333267817e-05
8.820235908e-05
8.359244467e-05
7.941306994e-05
7.56225754e-05
7.215208027e-05
6.89724771e-05
6.606500283e-05
6.340375217e-05
6.101905777e-05
5.868897001e-05
5.650693478e-05
5.458423232e-05
5.277907978e-05
5.112241023e-05
4.956631914e-05
4.805405045e-05
4.662492404e-05
4.534783095e-05
4.414489558e-05
4.298095041e-05
4.191618786e-05
4.090339895e-05
3.993927909e-05
3.902523719e-05
3.815491842e-05
3.7330632e-05
3.654872437e-05
3.58105431e-05
3.510341128e-05
3.443213656e-05
3.379527013e-05
3.318873546e-05
3.259460631e-05
3.203677776e-05
3.150708661e-05
3.099423389e-05
3.050779813e-05
3.004018422e-05
2.959668111e-05
2.917095166e-05
2.876082704e-05
2.836805379e-05
2.799471239e-05
2.763919508e-05
2.729858076e-05
2.697624359e-05
2.666833206e-05
2.637353982e-05
2.609520875e-05
2.583045263e-05
2.557942027e-05
2.534302503e-05
2.512575523e-05
2.492078538e-05
2.473272098e-05
2.4563602e-05
2.440752507e-05
2.426951462e-05
2.414691577e-05
2.404134294e-05
2.395859452e-05
2.3887525e-05
2.383547066e-05
2.380066912e-05
2.378114615e-05
2.376116317e-05
2.377003827e-05
2.378268661e-05
2.377122126e-05
2.377614561e-05
2.375112437e-05
2.331727115e-05
2.228091615e-05
7.857568024e-06
-5.758283092e-06
-5.649817442e-06
-5.552116513e-06
-5.509862365e-06
)


101
(
0.08734376549
0.00297690656
0.001527985644
0.001010552084
0.0007420314787
0.0005784612359
0.0004687015131
0.0003901822909
0.0003320613123
0.0002874323953
0.0002522429888
0.0002239718481
0.0002006923425
0.0001812691966
0.0001649971881
0.0001510809369
0.0001389875522
0.000128644129
0.0001194642592
0.0001113423228
0.0001043641869
9.798881512e-05
9.222893406e-05
8.715818799e-05
8.260153624e-05
7.847076398e-05
7.472495371e-05
7.129578925e-05
6.815407214e-05
6.528096736e-05
6.265087397e-05
6.029402732e-05
5.799156643e-05
5.583558685e-05
5.39358478e-05
5.215206305e-05
5.051475861e-05
4.897688168e-05
4.748264577e-05
4.607092064e-05
4.480944809e-05
4.362091965e-05
4.247062403e-05
4.141797357e-05
4.04167434e-05
3.946382294e-05
3.856058944e-05
3.770072227e-05
3.688627494e-05
3.611348837e-05
3.53836849e-05
3.468448407e-05
3.402073669e-05
3.339106727e-05
3.279132249e-05
3.220382709e-05
3.165191155e-05
3.112742276e-05
3.061940908e-05
3.013749562e-05
2.967441436e-05
2.923529264e-05
2.88139295e-05
2.840777563e-05
2.801867609e-05
2.7648757e-05
2.729615869e-05
2.695831412e-05
2.663884214e-05
2.633386749e-05
2.60422642e-05
2.576746074e-05
2.55059187e-05
2.525750834e-05
2.502326325e-05
2.480845185e-05
2.460617406e-05
2.442126698e-05
2.425581039e-05
2.410314929e-05
2.396864809e-05
2.384961628e-05
2.374794077e-05
2.366944238e-05
2.360259081e-05
2.355627096e-05
2.35276059e-05
2.351342553e-05
2.349775123e-05
2.351194322e-05
2.352872486e-05
2.351994619e-05
2.352763546e-05
2.350108434e-05
2.303561774e-05
2.192864482e-05
7.47252157e-06
-6.129975122e-06
-6.014822207e-06
-5.910701498e-06
-5.865773955e-06
)


101
(
0.08634777647
0.002941963589
0.001509884566
0.0009985487543
0.0007332068267
0.0005715890298
0.0004631281884
0.0003855351708
0.000328106315
0.0002840091541
0.0002492384052
0.0002213041648
0.0001983010998
0.0001791081422
0.0001630296606
0.0001492793257
0.0001373297201
0.0001271090797
0.0001180382392
0.000110011925
0.0001031162004
9.681681179e-05
9.112540134e-05
8.611443516e-05
8.161114969e-05
7.752883877e-05
7.38274167e-05
7.043934756e-05
6.733545116e-05
6.449678562e-05
6.189790038e-05
5.956881679e-05
5.729380217e-05
5.516369758e-05
5.328686888e-05
5.152449875e-05
4.990664684e-05
4.838699213e-05
4.691059558e-05
4.551607489e-05
4.427008761e-05
4.309599811e-05
4.195945288e-05
4.091885843e-05
3.992890676e-05
3.898685673e-05
3.809415786e-05
3.724452233e-05
3.643986434e-05
3.567618702e-05
3.495462464e-05
3.426313434e-05
3.360666842e-05
3.298390912e-05
3.239076497e-05
3.180980597e-05
3.126375126e-05
3.074447965e-05
3.024119024e-05
2.976347865e-05
2.930450899e-05
2.886944337e-05
2.845217621e-05
2.804978157e-05
2.766421989e-05
2.729756621e-05
2.694774859e-05
2.661241598e-05
2.629537314e-05
2.599278938e-05
2.570385115e-05
2.543224151e-05
2.517374433e-05
2.49279042e-05
2.469574283e-05
2.448307479e-05
2.428277929e-05
2.410035831e-05
2.393834309e-05
2.378905403e-05
2.36577504e-05
2.354174466e-05
2.344354439e-05
2.336900769e-05
2.330570345e-05
2.326435755e-05
2.32416611e-05
2.323261482e-05
2.322064463e-05
2.323990024e-05
2.326021727e-05
2.325355426e-05
2.326367018e-05
2.323511383e-05
2.273755168e-05
2.156005087e-05
7.07946473e-06
-6.501525354e-06
-6.379943262e-06
-6.269931587e-06
-6.222170169e-06
)


101
(
0.08535145826
0.002907016964
0.00149178606
0.0009865470933
0.000724383475
0.0005647176475
0.0004575559287
0.0003808887563