/*--------------------------------*- C++ -*----------------------------------*\
| =========                 |                                                 |
| \\      /  F ield         | OpenFOAM: The Open Source CFD Toolbox           |
|  \\    /   O peration     | Version:  2.3.1                                 |
|   \\  /    A nd           | Web:      www.OpenFOAM.org                      |
|    \\/     M anipulation  |                                                 |
\*---------------------------------------------------------------------------*/
FoamFile
{
    version     2.0;
    format      ascii;
    class       dictionary;
    location    "constant";
    object      PM35;
}
// * * * * * * * * * * * * * * * * * * * * * * * * * * * * * * * * * * * * * //

PM35_table
101
(

101
(
2.705555232e-18
-2.844198556e-18
-1.154093014e-18
1.198494597e-18
1.562997939e-18
-1.359444301e-18
1.277896526e-17
1.751109476e-17
3.12849719e-17
4.773728276e-17
7.779309486e-17
9.135402007e-17
1.89363266e-16
2.479650449e-16
3.358430134e-16
5.063053617e-16
8.829870509e-16
7.595532574e-16
1.865298206e-15
1.836929724e-15
2.098574811e-15
3.536731447e-15
3.896052242e-15
4.018574312e-15
4.165345591e-15
4.088674817e-15
3.691635525e-15
3.297573966e-15
2.538268213e-15
1.737062575e-15
8.860902135e-16
2.758711157e-16
-5.634463306e-16
-1.31563041e-15
-1.701103079e-15
-1.049356937e-15
-1.231658206e-15
-5.660245932e-15
-5.466698238e-15
-4.861800033e-15
-4.033560853e-15
-4.802819772e-15
-5.347909577e-15
-5.063029219e-15
-5.640184276e-15
-5.604158619e-15
-6.061791256e-15
-6.055273404e-15
-6.37804392e-15
-6.217640989e-15
-6.189171786e-15
-6.193384491e-15
-6.059519723e-15
-5.841786503e-15
-5.65796495e-15
-6.177696498e-15
-5.414424325e-15
-5.457678957e-15
-5.130660098e-15
-4.978807466e-15
-4.577656735e-15
-4.144789274e-15
-3.860770698e-15
-3.491826812e-15
-3.133676962e-15
-2.708449628e-15
-2.288043835e-15
-1.963985886e-15
-1.478599711e-15
-1.043615579e-15
-6.190578626e-16
-2.630048444e-16
4.9529402e-16
3.981611495e-15
1.154240438e-15
-4.081049869e-15
-3.033237559e-15
-6.166352769e-16
3.511098808e-16
9.960621324e-16
1.651420451e-15
2.703230425e-15
5.622113638e-15
4.992714893e-16
-1.625539966e-15
4.778482442e-16
1.788977323e-15
3.016520684e-15
6.913921355e-15
4.806052788e-16
3.958909133e-16
4.886508625e-15
3.587737803e-15
5.657464002e-15
2.447906767e-15
-2.8398061e-16
-3.587727053e-15
-4.890667007e-21
-2.475537132e-31
-6.610447153e-32
4.3502991e-31
)


101
(
2.485024605e-18
-3.009408675e-18
-2.055179714e-18
-1.185686765e-18
-3.131304745e-18
-9.396067668e-18
-1.415141516e-18
-4.819919902e-18
-3.606326599e-18
-5.33529422e-18
-2.527666195e-18
-2.498523557e-17
1.017226233e-17
-9.613296519e-18
-3.199689825e-17
-2.281531192e-17
1.096427845e-16
-2.029593461e-16
4.000699833e-16
7.911051179e-17
-2.466904646e-17
7.068034267e-16
6.757073689e-16
5.630887836e-16
5.207631475e-16
4.25116676e-16
2.32902528e-16
1.526727088e-16
-7.512740753e-17
-2.496728487e-16
-4.232650107e-16
-4.26751838e-16
-5.731701954e-16
-6.524483303e-16
-5.250797397e-16
2.477534679e-16
5.811381879e-16
-1.464471013e-15
-1.100124135e-15
-9.526370392e-16
-3.332532468e-16
-5.435168175e-16
-5.661697029e-16
-2.842442084e-16
-3.965591206e-16
-1.367601689e-16
-2.05828251e-16
1.583598377e-17
2.379157694e-17
3.229220174e-16
5.253538888e-16
7.752429298e-16
1.059879411e-15
1.387280331e-15
1.722476969e-15
1.763993406e-15
2.348325575e-15
2.50181362e-15
2.969088374e-15
3.239295603e-15
3.682505429e-15
4.08840516e-15
4.461933367e-15
4.859653136e-15
5.265173371e-15
5.704010213e-15
6.102213353e-15
6.441409188e-15
6.841623142e-15
7.197750178e-15
7.544633126e-15
7.80569459e-15
8.200676326e-15
9.629175148e-15
8.902248298e-15
7.7202749e-15
7.695251653e-15
7.67818053e-15
7.889185044e-15
8.288968955e-15
8.712039385e-15
9.211697772e-15
1.046574523e-14
9.380756768e-15
9.161360912e-15
8.593947488e-15
8.519294053e-15
9.048664361e-15
1.052985785e-14
9.75770876e-15
1.041334322e-14
1.040193401e-14
1.089858874e-14
1.248372277e-14
1.023129361e-14
2.49135463e-15
5.008324655e-15
1.890937525e-14
1.899378722e-14
1.902630155e-14
1.878310938e-14
)


101
(
2.273005766e-18
-2.741430341e-18
-1.733786642e-18
-8.612320209e-19
-2.755299169e-18
-8.91713698e-18
-2.076152922e-18
-5.619366853e-18
-6.085746876e-18
-9.743896323e-18
-1.057448799e-17
-3.439438062e-17
-1.257129601e-17
-3.379316013e-17
-6.58149248e-17
-7.656579663e-17
1.100730912e-17
-2.428464275e-16
1.412551413e-16
-4.515979688e-17
-2.229990302e-16
2.317232216e-16
2.93777634e-16
1.62875467e-16
4.834607433e-17
-8.455252502e-17
-2.815053672e-16
-4.147597525e-16
-6.046586581e-16
-7.783219555e-16
-9.292143505e-16
-9.618203993e-16
-1.027812651e-15
-1.068578423e-15
-9.642358922e-16
-3.997173538e-16
8.728682851e-17
-8.593967634e-16
-1.163397764e-15
-1.03881714e-15
-5.335536767e-16
-2.477915237e-16
-4.325688874e-17
3.487201065e-16
6.656511285e-16
1.08348371e-15
1.443220862e-15
1.872818813e-15
2.283067974e-15
2.792194717e-15
3.34771022e-15
3.927394996e-15
4.545354249e-15
5.21029652e-15
5.904170646e-15
6.476079332e-15
7.175698302e-15
7.841267958e-15
8.538288322e-15
9.217008392e-15
9.919809187e-15
1.063768485e-14
1.134476591e-14
1.206386532e-14
1.279230555e-14
1.349682228e-14
1.417304853e-14
1.480750587e-14
1.544664772e-14
1.607073967e-14
1.666783555e-14
1.722410976e-14
1.779686054e-14
1.877473172e-14
1.936199443e-14
1.926771426e-14
1.911521334e-14
1.894440522e-14
1.883946935e-14
1.903981009e-14
1.951331327e-14
2.009030052e-14
2.09341541e-14
2.138671556e-14
2.150706013e-14
2.122463577e-14
2.075587995e-14
2.083463687e-14
2.190190126e-14
2.27380975e-14
2.328418829e-14
2.371459324e-14
2.435788426e-14
2.626711812e-14
2.383153852e-14
9.299433756e-15
1.76143664e-14
3.966512514e-14
4.052317012e-14
4.121920628e-14
4.072341112e-14
)


101
(
2.069364926e-18
-2.480642315e-18
-1.42257584e-18
-5.485113419e-19
-2.391417141e-18
-8.441929102e-18
-2.642726453e-18
-6.289565867e-18
-8.168267459e-18
-1.344533551e-17
-1.730031189e-17
-4.203713693e-17
-3.106134801e-17
-5.36190823e-17
-9.209894475e-17
-1.178936828e-16
-6.596652584e-17
-2.744378235e-16
-4.778575482e-17
-1.586473318e-16
-3.640680585e-16
-1.189743502e-16
-3.649490429e-17
-1.622603497e-16
-3.256650184e-16
-5.00260706e-16
-7.147713699e-16
-8.942157274e-16
-1.08448358e-15
-1.267259016e-15
-1.42225377e-15
-1.490808422e-15
-1.543834077e-15
-1.57127585e-15
-1.501993485e-15
-1.124074501e-15
-6.339930769e-16
-9.356111447e-16
-1.307231437e-15
-1.360480614e-15
-1.032689723e-15
-6.19222811e-16
-2.523300265e-16
2.117864946e-16
7.202978732e-16
1.278694428e-15
1.855697561e-15
2.459937065e-15
3.089284453e-15
3.772676777e-15
4.525248598e-15
5.322534216e-15
6.158608146e-15
7.038214993e-15
7.962539163e-15
8.85373606e-15
9.765945531e-15
1.071104078e-14
1.166185828e-14
1.261902444e-14
1.357917045e-14
1.455262731e-14
1.553132583e-14
1.651079995e-14
1.748824983e-14
1.844343921e-14
1.93709632e-14
2.027249435e-14
2.115948577e-14
2.203073724e-14
2.286540591e-14
2.369226364e-14
2.450315306e-14
2.546261231e-14
2.64178912e-14
2.70679476e-14
2.741285504e-14
2.750221393e-14
2.741034228e-14
2.740906769e-14
2.7711122e-14
2.830753821e-14
2.912906522e-14
2.994823001e-14
3.060385003e-14
3.088759575e-14
3.055278564e-14
3.018156392e-14
3.064482947e-14
3.174643976e-14
3.302810598e-14
3.379081066e-14
3.473886129e-14
3.653488544e-14
3.206442926e-14
1.348837617e-14
2.918696962e-14
6.064830206e-14
6.197988828e-14
6.312247273e-14
6.244894174e-14
)


101
(
1.873968718e-18
-2.227004989e-18
-1.121449394e-18
-2.473890079e-19
-2.039666396e-18
-7.972189224e-18
-3.124880284e-18
-6.848858876e-18
-9.909481413e-18
-1.654210245e-17
-2.291320475e-17
-4.824078346e-17
-4.607943576e-17
-6.994339447e-17
-1.126368264e-16
-1.496911429e-16
-1.260950533e-16
-3.000042167e-16
-1.854202981e-16
-2.588505826e-16
-4.678220838e-16
-3.76416081e-16
-3.158569518e-16
-4.350090524e-16
-6.298124031e-16
-8.45297337e-16
-1.088128762e-15
-1.313918395e-15
-1.530407807e-15
-1.739474058e-15
-1.922904557e-15
-2.040320957e-15
-2.126544314e-15
-2.176344674e-15
-2.169563266e-15
-1.954292982e-15
-1.549509191e-15
-1.54369994e-15
-1.800313749e-15
-1.960915859e-15
-1.837886366e-15
-1.502501773e-15
-1.115058696e-15
-6.439136879e-16
-8.482259242e-17
5.315823249e-16
1.199535029e-15
1.893417881e-15
2.627718653e-15
3.407097982e-15
4.260212025e-15
5.173684585e-15
6.137056553e-15
7.1466755e-15
8.205627445e-15
9.282277929e-15
1.037144531e-14
1.150219069e-14
1.264666983e-14
1.381521065e-14
1.499222271e-14
1.618272571e-14
1.73870653e-14
1.859797865e-14
1.980880445e-14
2.101167539e-14
2.219970377e-14
2.337100929e-14
2.451267923e-14
2.563013942e-14
2.671903337e-14
2.781219341e-14
2.890285946e-14
3.004493689e-14
3.121091008e-14
3.226685678e-14
3.314913586e-14
3.378530186e-14
3.405910848e-14
3.410915527e-14
3.424761568e-14
3.477343935e-14
3.564839583e-14
3.662568789e-14
3.756374459e-14
3.834360352e-14
3.854903811e-14
3.82815702e-14
3.832650693e-14
3.926872701e-14
4.074941326e-14
4.219437703e-14
4.309034787e-14
4.503976312e-14
3.933121817e-14
1.786563513e-14
4.09578313e-14
8.056461487e-14
8.208495493e-14
8.325224014e-14
8.226680957e-14
)


101
(
1.686683029e-18
-1.980497589e-18
-8.302997292e-19
4.226163524e-20
-1.700149423e-18
-7.509511638e-18
-3.531587533e-18
-7.313005134e-18
-1.135742294e-17
-1.912175245e-17
-2.758662093e-17
-5.327168301e-17
-5.825921077e-17
-8.343881882e-17
-1.287922511e-16
-1.741935586e-16
-1.731565783e-16
-3.211685319e-16
-2.853591418e-16
-3.45007666e-16
-5.469000004e-16
-5.647288909e-16
-5.473015375e-16
-6.672688662e-16
-8.826706458e-16
-1.135218682e-15
-1.413479331e-15
-1.688153593e-15
-1.947983832e-15
-2.200918178e-15
-2.432909259e-15
-2.615119571e-15
-2.769050748e-15
-2.875149181e-15
-2.950067172e-15
-2.880494977e-15
-2.636230569e-15
-2.542913797e-15
-2.694530477e-15
-2.904291214e-15
-2.965152847e-15
-2.807830632e-15
-2.530108317e-15
-2.145282234e-15
-1.644266474e-15
-1.064504726e-15
-4.092162924e-16
2.814429238e-16
1.021227472e-15
1.809157902e-15
2.673265873e-15
3.610630281e-15
4.609984668e-15
5.662727223e-15
6.770187035e-15
7.928653941e-15
9.111406057e-15
1.034807821e-14
1.161480132e-14
1.292753407e-14
1.426008347e-14
1.561466365e-14
1.699593769e-14
1.83946536e-14
1.980719606e-14
2.123261662e-14
2.265977869e-14
2.408066074e-14
2.548715992e-14
2.687194181e-14
2.823960465e-14
2.961369034e-14
3.100828185e-14
3.243104767e-14
3.385682466e-14
3.522930097e-14
3.653254035e-14
3.769659618e-14
3.856231328e-14
3.90300085e-14
3.92776787e-14
3.975476821e-14
4.066228372e-14
4.181624986e-14
4.300359744e-14
4.415304623e-14
4.494614267e-14
4.506970601e-14
4.510982909e-14
4.576431383e-14
4.732407968e-14
4.920763845e-14
5.05196691e-14
5.273491515e-14
4.61219036e-14
2.184313662e-14
5.151828762e-14
9.888985855e-14
1.021462855e-13
1.048838351e-13
1.037612853e-13
)


101
(
1.507373887e-18
-1.741046293e-18
-5.490210277e-19
3.205748094e-19
-1.372990958e-18
-7.055688601e-18
-3.872345376e-18
-7.697766252e-18
-1.255370959e-17
-2.125601825e-17
-3.145923092e-17
-5.732699081e-17
-6.808674425e-17
-9.457170401e-17
-1.415067956e-16
-1.92981955e-16
-2.098605295e-16
-3.387377443e-16
-3.575214992e-16
-4.17056797e-16
-6.086099641e-16
-7.018359769e-16
-7.347261998e-16
-8.648191532e-16
-1.095466862e-15
-1.380015434e-15
-1.696607952e-15
-2.022349248e-15
-2.336429823e-15
-2.647137713e-15
-2.943555532e-15
-3.206817818e-15
-3.453762131e-15
-3.647227614e-15
-3.828724514e-15
-3.914611971e-15
-3.857870354e-15
-3.82364272e-15
-3.955277865e-15
-4.205579622e-15
-4.422999479e-15
-4.478480843e-15
-4.400279142e-15
-4.194475476e-15
-3.849330012e-15
-3.402784144e-15
-2.858692158e-15
-2.263866699e-15
-1.61038273e-15
-9.040942995e-16
-1.189090875e-16
7.522480996e-16
1.693293788e-15
2.693273809e-15
3.757842487e-15
4.897199077e-15
6.075103245e-15
7.323303416e-15
8.622877327e-15
9.991936868e-15
1.139831889e-14
1.284367144e-14
1.433435332e-14
1.585206235e-14
1.740110068e-14
1.898617823e-14
2.060229929e-14
2.223244233e-14
2.386845677e-14
2.549821969e-14
2.712860042e-14
2.878467193e-14
3.048426424e-14
3.222719161e-14
3.397090758e-14
3.566884968e-14
3.732706053e-14
3.895712235e-14
4.044652349e-14
4.156471596e-14
4.225081744e-14
4.28710337e-14
4.386053875e-14
4.523113836e-14
4.673874648e-14
4.825048459e-14
4.960627225e-14
5.043975289e-14
5.076569757e-14
5.135986901e-14
5.293596861e-14
5.516920777e-14
5.714163375e-14
5.969362645e-14
5.20947909e-14
2.551797833e-14
6.257813846e-14
1.177259934e-13
1.211155142e-13
1.239482184e-13
1.226421383e-13
)


101
(
1.335907375e-18
-7.861784672e-19
1.184286622e-18
5.876725868e-19
-1.058328501e-18
-6.612588418e-18
-4.157023482e-18
-8.019951337e-18
-1.353693934e-17
-2.301009826e-17
-3.465380816e-17
-6.057922445e-17
-7.598306445e-17
-1.037488806e-16
-1.515493063e-16
-2.073491573e-16
-2.383993321e-16
-3.533871542e-16
-4.093655387e-16
-4.760088582e-16
-6.576563209e-16
-8.0126922e-16
-8.833650315e-16
-1.031269111e-15
-1.275338512e-15
-1.586758966e-15
-1.941158679e-15
-2.318533394e-15
-2.693122359e-15
-3.071431113e-15
-3.444673754e-15
-3.801019846e-15
-4.159376481e-15
-4.465853311e-15
-4.777403332e-15
-5.030503013e-15
-5.178230859e-15
-5.293646166e-15
-5.499889055e-15
-5.82433857e-15
-6.189664548e-15
-6.470538542e-15
-6.644375417e-15
-6.690463518e-15
-6.587328057e-15
-6.366044274e-15
-6.027259631e-15
-5.620398965e-15
-5.146700338e-15
-4.614097342e-15
-3.992311618e-15
-3.2817106e-15
-2.499962637e-15
-1.64501168e-15
-7.196704549e-16
2.864175152e-16
1.351382605e-15
2.5054267e-15
3.729795856e-15
5.046410627e-15
6.416835274e-15
7.846000722e-15
9.347643753e-15
1.088743733e-14
1.247546527e-14
1.411844179e-14
1.581625617e-14
1.756497453e-14
1.935213494e-14
2.116769303e-14
2.30037603e-14
2.489536065e-14
2.684144282e-14
2.886437309e-14
3.09232534e-14
3.294711391e-14
3.494083105e-14
3.696933319e-14
3.899792487e-14
4.081738926e-14
4.217483731e-14
4.32227915e-14
4.442452894e-14
4.6053272e-14
4.796266256e-14
4.995655795e-14
5.188609803e-14
5.352394715e-14
5.448639772e-14
5.540654303e-14
5.709865765e-14
5.969920486e-14
6.241098918e-14
6.546456533e-14
5.74146634e-14
2.942590995e-14
7.324001656e-14
1.353156551e-13
1.377793294e-13
1.398295215e-13
1.385869998e-13
)


101
(
1.17214905e-18
-5.940839408e-19
1.399166734e-18
8.436600804e-19
-7.561841462e-19
-6.181261933e-18
-4.392768555e-18
-8.291172934e-18
-1.433875861e-17
-2.443757307e-17
-3.726980289e-17
-6.31647977e-17
-8.228539971e-17
-1.112854731e-16
-1.594817229e-16
-2.182744035e-16
-2.604781097e-16
-3.655943461e-16
-4.463886211e-16
-5.232354245e-16
-6.969697407e-16
-8.731477691e-16
-9.988929899e-16
-1.169374195e-15
-1.427196838e-15
-1.761386647e-15
-2.151045313e-15
-2.578460333e-15
-3.01547924e-15
-3.466470273e-15
-3.923863389e-15
-4.380939064e-15
-4.861967358e-15
-5.299517088e-15
-5.758781031e-15
-6.188590925e-15
-6.55170425e-15
-6.873032554e-15
-7.235031871e-15
-7.689419132e-15
-8.219388207e-15
-8.729192851e-15
-9.177458017e-15
-9.524714048e-15
-9.734414423e-15
-9.82257512e-15
-9.780944124e-15
-9.659208075e-15
-9.455062904e-15
-9.177597629e-15
-8.810340632e-15
-8.366111866e-15
-7.84002565e-15
-7.236453043e-15
-6.56717358e-15
-5.79561666e-15
-4.955659445e-15
-4.011847283e-15
-2.991135573e-15
-1.863170672e-15
-6.585613215e-16
6.273258448e-16
2.007346099e-15
3.43439104e-15
4.922358761e-15
6.484625678e-15
8.129912118e-15
9.87740897e-15
1.170374088e-14
1.357780589e-14
1.549137921e-14
1.747427171e-14
1.955274392e-14
2.176801047e-14
2.405946425e-14
2.633302332e-14
2.860956645e-14
3.094871488e-14
3.337663937e-14
3.578438222e-14
3.787222407e-14
3.952772226e-14
4.111029675e-14
4.302054865e-14
4.536758527e-14
4.793543764e-14
5.050581814e-14
5.298183672e-14
5.486082112e-14
5.638700612e-14
5.847687325e-14
6.163108817e-14
6.5243466e-14
6.905319931e-14
6.10376798e-14
3.184578359e-14
8.207111718e-14
1.50190453e-13
1.489509738e-13
1.472642455e-13
1.459972018e-13
)


101
(
1.015964039e-18
-1.064704594e-18
2.364898665e-19
3.417308494e-18
-4.66735076e-19
-5.762589974e-18
-4.584726284e-18
-8.517678443e-18
-1.498671025e-17
-2.558754995e-17
-3.939189966e-17
-6.518727863e-17
-8.725564689e-17
-1.174150024e-16
-1.657017633e-16
-2.264694921e-16
-2.773816117e-16
-3.756558624e-16
-4.725990879e-16
-5.602119569e-16
-7.283910599e-16
-9.247985131e-16
-1.086890186e-15
-1.281964116e-15
-1.554782656e-15
-1.908687465e-15
-2.329714558e-15
-2.80339104e-15
-3.301098428e-15
-3.825295437e-15
-4.368919228e-15
-4.928917702e-15
-5.536033977e-15
-6.113930167e-15
-6.732095014e-15
-7.34765817e-15
-7.935370414e-15
-8.497115471e-15
-9.072729713e-15
-9.711240174e-15
-1.043300483e-14
-1.117966181e-14
-1.191844375e-14
-1.260120368e-14
-1.317948658e-14
-1.365033675e-14
-1.398998042e-14
-1.423574029e-14
-1.437712784e-14
-1.444128541e-14
-1.442855426e-14
-1.434744909e-14
-1.418115058e-14
-1.394256394e-14
-1.361464767e-14
-1.319205233e-14
-1.270426543e-14
-1.210414005e-14
-1.143301627e-14
-1.063435186e-14
-9.741761432e-15
-8.748401131e-15
-7.653521217e-15
-6.489149114e-15
-5.241482221e-15
-3.90299047e-15
-2.479153793e-15
-9.163898649e-16
7.389606374e-16
2.474607782e-15
4.292298427e-15
6.219526757e-15
8.266173663e-15
1.047160177e-14
1.278846186e-14
1.517960577e-14
1.760889087e-14
2.007747695e-14
2.27205691e-14
2.551987861e-14
2.816790681e-14
3.041081023e-14
3.244511939e-14
3.463835704e-14
3.738084658e-14
4.047207833e-14
4.369456854e-14
4.699939421e-14
4.989445574e-14
5.225661758e-14
5.50755503e-14
5.889146712e-14
6.350202883e-14
6.839229199e-14
6.093780217e-14
3.155061671e-14
8.699652755e-14
1.585493864e-13
1.496585493e-13
1.3874156e-13
1.352435126e-13
)


101
(
8.672180065e-19
-8.531291675e-19
4.791706602e-19
3.584778608e-18
-1.900481325e-19
-5.357227713e-18
-4.737414029e-18
-8.704515736e-18
-1.550486573e-17
-2.650442272e-17
-4.109269642e-17
-6.673293198e-17
-9.110846212e-17
-1.223337255e-16
-1.705170114e-16
-2.324777134e-16
-2.901032713e-16
-3.837814542e-16
-4.908360832e-16
-5.884734327e-16
-7.531296742e-16
-9.613584821e-16
-1.152393928e-15
-1.37160148e-15
-1.660372527e-15
-2.031680796e-15
-2.479421884e-15
-2.993862456e-15
-3.547834756e-15
-4.142412498e-15
-4.770515751e-15
-5.431425114e-15
-6.162813041e-15
-6.883656696e-15
-7.667011139e-15
-8.474217551e-15
-9.289871997e-15
-1.010562476e-14
-1.092870892e-14
-1.179700419e-14
-1.274768031e-14
-1.375407954e-14
-1.479777782e-14
-1.58391347e-14
-1.682602553e-14
-1.77343219e-14
-1.851893218e-14
-1.919947053e-14
-1.976788133e-14
-2.026224851e-14
-2.068812191e-14
-2.10526463e-14
-2.134105772e-14
-2.154648171e-14
-2.166462211e-14
-2.173977326e-14
-2.172162738e-14
-2.160266712e-14
-2.140325595e-14
-2.107965754e-14
-2.065057583e-14
-2.011536632e-14
-1.947077966e-14
-1.871747217e-14
-1.787686428e-14
-1.697152084e-14
-1.596452402e-14
-1.481759629e-14
-1.354642095e-14
-1.214230136e-14
-1.063373004e-14
-9.006517996e-15
-7.260188997e-15
-5.314983695e-15
-3.178459618e-15
-9.068265012e-16
1.401577517e-15
3.755696327e-15
6.378787576e-15
9.244162538e-15
1.210425993e-14
1.473978386e-14
1.709655495e-14
1.94626184e-14
2.245458225e-14
2.590230343e-14
2.960200643e-14
3.353552913e-14
3.725915197e-14
4.060044353e-14
4.426942264e-14
4.873127041e-14
5.434772019e-14
6.050349005e-14
5.408561771e-14
2.551288291e-14
8.375068905e-14
1.554181852e-13
1.355287068e-13
1.174054419e-13
1.170932691e-13
)


101
(
7.25775476e-19
-6.484485462e-19
7.123992895e-19
1.545538346e-18
7.398524377e-20
-4.965414393e-18
-4.854707163e-18
-8.856484456e-18
-1.591319991e-17
-2.722233307e-17
-4.243012292e-17
-6.787339614e-17
-9.402505083e-17
-1.262076336e-16
-1.741714098e-16
-2.367298573e-16
-2.994556605e-16
-3.901428275e-16
-5.03235244e-16
-6.094883646e-16
-7.721234523e-16
-9.866317228e-16
-1.199413875e-15
-1.440330936e-15
-1.74471496e-15
-2.130972714e-15
-2.600442985e-15
-3.14923039e-15
-3.753224427e-15
-4.412816863e-15
-5.120851971e-15
-5.878246859e-15
-6.729534559e-15
-7.590909508e-15
-8.539387442e-15
-9.538342578e-15
-1.057881988e-14
-1.164961112e-14
-1.273867671e-14
-1.387238855e-14
-1.508827682e-14
-1.638043908e-14
-1.774375448e-14
-1.915599422e-14
-2.056771539e-14
-2.194101206e-14
-2.321833271e-14
-2.44021249e-14
-2.54786416e-14
-2.648199979e-14
-2.741892406e-14
-2.830508959e-14
-2.912829544e-14
-2.986854061e-14
-3.056904708e-14
-3.122516395e-14
-3.177970762e-14
-3.224548298e-14
-3.265007881e-14
-3.294991465e-14
-3.313462604e-14
-3.321380156e-14
-3.317740238e-14
-3.303245318e-14
-3.27909293e-14
-3.249964684e-14
-3.211329626e-14
-3.161511545e-14
-3.096021625e-14
-3.013837176e-14
-2.919858006e-14
-2.813470042e-14
-2.692368699e-14
-2.551440686e-14
-2.387410911e-14
-2.208258325e-14
-2.023127477e-14
-1.824102886e-14
-1.600530192e-14
-1.350715439e-14
-1.083051282e-14
-8.195277979e-15
-5.842232901e-15
-3.502808761e-15
-5.708754573e-16
2.838382068e-15
6.618798248e-15
1.076934624e-14
1.506273239e-14
1.924960572e-14
2.349059411e-14
2.843122472e-14
3.477808886e-14
4.211047008e-14
3.6960818e-14
1.000456458e-14
6.837124278e-14
1.369254319e-13
1.024006446e-13
6.965906558e-14
6.855720425e-14
)


101
(
5.915005705e-19
1.113094107e-19
9.362360812e-19
1.757788933e-18
3.25484872e-19
-4.58725244e-18
-4.939526151e-18
-8.976690107e-18
-1.623099695e-17
-2.777298087e-17
-4.345150452e-17
-6.866543006e-17
-9.615557306e-17
-1.291666521e-16
-1.768350866e-16
-2.395462119e-16
-3.060764248e-16
-3.949175022e-16
-5.113673685e-16
-6.245902873e-16
-7.860747429e-16
-1.002976456e-15
-1.230885331e-15
-1.489861431e-15
-1.808226263e-15
-2.206697784e-15
-2.69314583e-15
-3.269669407e-15
-3.916364948e-15
-4.633705728e-15
-5.414663914e-15
-6.261776392e-15
-7.226049335e-15
-8.221177066e-15
-9.328186347e-15
-1.051240466e-14
-1.176899349e-14
-1.308799613e-14
-1.444974876e-14
-1.587159075e-14
-1.738076608e-14
-1.898095963e-14
-2.067582367e-14
-2.246045311e-14
-2.429624393e-14
-2.614531578e-14
-2.79476598e-14
-2.968573723e-14
-3.13355446e-14
-3.29196757e-14
-3.443285482e-14
-3.590668586e-14
-3.734212534e-14
-3.871272219e-14
-4.006590253e-14
-4.136298742e-14
-4.260786993e-14
-4.376463042e-14
-4.490716917e-14
-4.59493984e-14
-4.689645543e-14
-4.773785902e-14
-4.846727772e-14
-4.909053182e-14
-4.966021655e-14
-5.017791598e-14
-5.059629102e-14
-5.095297206e-14
-5.113027227e-14
-5.115562683e-14
-5.10628516e-14
-5.082076016e-14
-5.040539765e-14
-4.983616433e-14
-4.905635762e-14
-4.808777257e-14
-4.699396472e-14
-4.579521527e-14
-4.434232405e-14
-4.257615666e-14
-4.05564405e-14
-3.847759514e-14
-3.649674712e-14
-3.46012289e-14
-3.224947318e-14
-2.927997861e-14
-2.586341815e-14
-2.208120773e-14
-1.774952918e-14
-1.328553451e-14
-8.924081423e-15
-3.983695773e-15
2.6700975e-15
1.072046343e-14
6.736435935e-15
-1.823970657e-14
3.658498242e-14
9.90380064e-14
5.108915863e-14
7.900055867e-15
8.804896965e-15
)


101
(
4.642573451e-19
2.720691472e-19
1.150749957e-18
1.959359471e-18
5.64601193e-19
-4.222821673e-18
-4.994784202e-18
-9.067993302e-18
-1.64740024e-17
-2.818387251e-17
-4.419823415e-17
-6.915743187e-17
-9.762328165e-17
-1.313217e-16
-1.786446748e-16
-2.411760875e-16
-3.104604159e-16
-3.982615141e-16
-5.162935401e-16
-6.349105846e-16
-7.955940707e-16
-1.012162255e-15
-1.249587327e-15
-1.522512306e-15
-1.852735427e-15
-2.260862803e-15
-2.759767787e-15
-3.357031001e-15
-4.037742803e-15
-4.803578512e-15
-5.648254141e-15
-6.57558575e-15
-7.641398745e-15
-8.758489326e-15
-1.001153332e-14
-1.136837289e-14
-1.282779667e-14
-1.438394031e-14
-1.601719944e-14
-1.773392905e-14
-1.955088609e-14
-2.147519699e-14
-2.351326424e-14
-2.567070903e-14
-2.792313961e-14
-3.024434456e-14
-3.257980181e-14
-3.489700186e-14
-3.716554175e-14
-3.937540921e-14
-4.151232347e-14
-4.363628873e-14
-4.575110451e-14
-4.7813075e-14
-4.987122373e-14
-5.191547455e-14
-5.39380134e-14
-5.589696467e-14
-5.78567908e-14
-5.975327747e-14
-6.158137668e-14
-6.330652546e-14
-6.493632215e-14
-6.651336547e-14
-6.806439415e-14
-6.951204527e-14
-7.093696267e-14
-7.22640714e-14
-7.351814778e-14
-7.469538409e-14
-7.568621365e-14
-7.650284946e-14
-7.714462917e-14
-7.768400704e-14
-7.805072747e-14
-7.823287047e-14
-7.833991636e-14
-7.824079354e-14
-7.789322304e-14
-7.731736481e-14
-7.641769761e-14
-7.535623954e-14
-7.42241011e-14
-7.328810194e-14
-7.194456479e-14
-6.987160684e-14
-6.743228915e-14
-6.459720148e-14
-6.101938438e-14
-5.699834679e-14
-5.297053616e-14
-4.873831544e-14
-4.238006205e-14
-3.435799275e-14
-3.753802589e-14
-6.084229671e-14
-1.191670841e-14
4.275632011e-14
-1.422440083e-14
-6.625258945e-14
-6.535278174e-14
)


101
(
3.439090413e-19
-7.540281938e-20
2.505800211e-18
2.150343821e-18
7.915111044e-19
-3.872076152e-18
-5.023644107e-18
-9.133419097e-18
-1.665333551e-17
-2.847595372e-17
-4.471314957e-17
-6.938839737e-17
-9.853257948e-17
-1.327828022e-16
-1.797366863e-16
-2.418353374e-16
-3.129976254e-16
-4.002156647e-16
-5.186593815e-16
-6.410750424e-16
-8.010068204e-16
-1.015499319e-15
-1.2580079e-15
-1.540725057e-15
-1.880258328e-15
-2.295562524e-15
-2.802499715e-15
-3.413254613e-15
-4.118506167e-15
-4.922379839e-15
-5.819976456e-15
-6.815608998e-15
-7.968041009e-15
-9.191562143e-15
-1.057414318e-14
-1.208677989e-14
-1.373200225e-14
-1.550921666e-14
-1.740112073e-14
-1.940466207e-14
-2.153287791e-14
-2.378849645e-14
-2.617378483e-14
-2.870143476e-14
-3.136350881e-14
-3.414587089e-14
-3.700170408e-14
-3.990011617e-14
-4.279952023e-14
-4.565704939e-14
-4.846716761e-14
-5.129395732e-14
-5.412534844e-14
-5.6931114e-14
-5.976356968e-14
-6.262037261e-14
-6.547712294e-14
-6.830409035e-14
-7.114057197e-14
-7.398640369e-14
-7.677017498e-14
-7.947521095e-14
-8.212709813e-14
-8.481054315e-14
-8.744440188e-14
-8.998931592e-14
-9.253347967e-14
-9.505403899e-14
-9.75656865e-14
-9.999667067e-14
-1.022783117e-13
-1.043839789e-13
-1.063315988e-13
-1.082048221e-13
-1.09945585e-13
-1.115748959e-13
-1.131228172e-13
-1.143723201e-13
-1.155461605e-13
-1.163802894e-13
-1.169414937e-13
-1.173724843e-13
-1.175550904e-13
-1.178548347e-13
-1.179574268e-13
-1.173943138e-13
-1.163374692e-13
-1.149143717e-13
-1.128187108e-13
-1.097690275e-13
-1.066951129e-13
-1.03581606e-13
-9.818976728e-14
-9.112924667e-14
-9.421240485e-14
-1.154968887e-13
-7.242930596e-14
-2.536899757e-14
-8.506370957e-14
-1.438883952e-13
-1.491638247e-13
)


101
(
2.303184555e-19
1.020156956e-19
2.660409458e-18
2.330845543e-18
1.006372512e-18
-3.534954461e-18
-5.028948541e-18
-9.175412726e-18
-1.677835475e-17
-2.86674673e-17
-4.503528439e-17
-6.938866056e-17
-9.896853464e-17
-1.336464309e-16
-1.802217067e-16
-2.416991126e-16
-3.13986789e-16
-4.007789572e-16
-5.187581717e-16
-6.434195034e-16
-8.024583766e-16
-1.01378022e-15
-1.258094921e-15
-1.54665415e-15
-1.892595391e-15
-2.312564012e-15
-2.823386196e-15
-3.440909818e-15
-4.161403764e-15
-4.992372557e-15
-5.930846923e-15
-6.981138025e-15
-8.203837093e-15
-9.51574354e-15
-1.100830677e-14
-1.265632596e-14
-1.446602311e-14
-1.644210001e-14
-1.857018338e-14
-2.084413335e-14
-2.32702948e-14
-2.584786117e-14
-2.857755716e-14
-3.147244254e-14
-3.453208462e-14
-3.77526757e-14
-4.110843254e-14
-4.45745715e-14
-4.809143279e-14
-5.161213465e-14
-5.512867427e-14
-5.868120369e-14
-6.225147107e-14
-6.584200157e-14
-6.947900174e-14
-7.316327854e-14
-7.69004151e-14
-8.063799209e-14
-8.440617008e-14
-8.816176239e-14
-9.202751075e-14
-9.580347514e-14
-9.959161701e-14
-1.034574184e-13
-1.072279079e-13
-1.109989292e-13
-1.147767693e-13
-1.186437136e-13
-1.22459895e-13
-1.261899108e-13
-1.299482618e-13
-1.334919754e-13
-1.369361496e-13
-1.403053178e-13
-1.434975679e-13
-1.466961628e-13
-1.497666455e-13
-1.527226138e-13
-1.555070111e-13
-1.578833223e-13
-1.601982232e-13
-1.62316272e-13
-1.64039648e-13
-1.659534953e-13
-1.676161989e-13
-1.687492165e-13
-1.693897044e-13
-1.69657133e-13
-1.692765915e-13
-1.675431275e-13
-1.659571387e-13
-1.642291981e-13
-1.604413862e-13
-1.548765617e-13
-1.581611871e-13
-1.769988029e-13
-1.389111831e-13
-9.724965377e-14
-1.503284616e-13
-1.971259341e-13
-1.983021878e-13
)


101
(
1.233479723e-19
7.173330051e-19
1.738572228e-18
2.500986719e-18
1.209347154e-18
-3.21149176e-18
-5.013255313e-18
-9.196061164e-18
-1.685473691e-17
-2.877150505e-17
-4.519524316e-17
-6.918852268e-17
-9.900157314e-17
-1.339892384e-16
-1.801745601e-16
-2.408988608e-16
-3.136662368e-16
-4.000097633e-16
-5.168783666e-16
-6.424629063e-16
-8.003708395e-16
-1.007906585e-15
-1.25140619e-15
-1.54218968e-15
-1.891274068e-15
-2.31304173e-15
-2.823873057e-15
-3.442186688e-15
-4.169369192e-15
-5.016496934e-15
-5.98268553e-15
-7.072442505e-15
-8.348119526e-15
-9.729310854e-15
-1.131027578e-14
-1.307110627e-14
-1.50211124e-14
-1.7168896e-14
-1.950299144e-14
-2.20168048e-14
-2.47133684e-14
-2.759663239e-14
-3.065636616e-14
-3.390165535e-14
-3.73390974e-14
-4.097618819e-14
-4.480588315e-14
-4.880060682e-14
-5.290856384e-14
-5.709089355e-14
-6.131532513e-14
-6.559478133e-14
-6.992064366e-14
-7.430299127e-14
-7.874521058e-14
-8.3272503e-14
-8.791466917e-14
-9.256919198e-14
-9.728457374e-14
-1.020303176e-13
-1.069102516e-13
-1.11855815e-13
-1.168300111e-13
-1.218555674e-13
-1.268528967e-13
-1.319274136e-13
-1.369415529e-13
-1.42062018e-13
-1.472484534e-13
-1.524379866e-13
-1.576710646e-13
-1.627289679e-13
-1.677002103e-13
-1.725707701e-13
-1.772559662e-13
-1.819387656e-13
-1.866698471e-13
-1.912966374e-13
-1.956163753e-13
-1.996836884e-13
-2.036850746e-13
-2.073033394e-13
-2.106538122e-13
-2.141374958e-13
-2.172781728e-13
-2.200481878e-13
-2.222852584e-13
-2.241341923e-13
-2.253303002e-13
-2.25079095e-13
-2.250687844e-13
-2.246567129e-13
-2.224897888e-13
-2.185442242e-13
-2.220307632e-13
-2.386981229e-13
-2.019048731e-13
-1.612149892e-13
-2.006288979e-13
-2.348659534e-13
-2.367431862e-13
)


101
(
2.285881455e-20
8.535015032e-19
1.916006069e-18
2.660860908e-18
4.112067516e-18
-2.901767282e-18
-4.9789972e-18
-9.19739269e-18
-1.688404043e-17
-2.879197313e-17
-4.521898668e-17
-6.881988298e-17
-9.869756237e-17
-1.338713957e-16
-1.796311697e-16
-2.394793493e-16
-3.121794504e-16
-3.979414688e-16
-5.132496741e-16
-6.388865351e-16
-7.953793841e-16
-9.986810026e-16
-1.239147074e-15
-1.528915614e-15
-1.877730287e-15
-2.298137887e-15
-2.805534156e-15
-3.419580622e-15
-4.145817134e-15
-4.99840803e-15
-5.978953441e-15
-7.092984822e-15
-8.40394073e-15
-9.83478433e-15
-1.148137775e-14
-1.332948766e-14
-1.539085732e-14
-1.767747375e-14