/*--------------------------------*- C++ -*----------------------------------*\
| =========                 |                                                 |
| \\      /  F ield         | OpenFOAM: The Open Source CFD Toolbox           |
|  \\    /   O peration     | Version:  2.3.1                                 |
|   \\  /    A nd           | Web:      www.OpenFOAM.org                      |
|    \\/     M anipulation  |                                                 |
\*---------------------------------------------------------------------------*/
FoamFile
{
    version     2.0;
    format      ascii;
    class       dictionary;
    location    "constant";
    object      PM38;
}
// * * * * * * * * * * * * * * * * * * * * * * * * * * * * * * * * * * * * * //

PM38_table
101
(

101
(
-3.842674842e-13
-1.340707057e-09
-1.006848159e-08
-2.728728917e-08
-4.818063874e-08
-6.825244438e-08
-8.564098042e-08
-1.009310061e-07
-1.135404465e-07
-1.237699153e-07
-1.318496676e-07
-1.381288538e-07
-1.429965919e-07
-1.463654318e-07
-1.488401112e-07
-1.504304559e-07
-1.510351567e-07
-1.504307914e-07
-1.500988303e-07
-1.473405663e-07
-1.449905024e-07
-1.422250308e-07
-1.374918045e-07
-1.322415663e-07
-1.263640952e-07
-1.19553747e-07
-1.117953851e-07
-1.031999813e-07
-9.351721363e-08
-8.317140356e-08
-7.223907528e-08
-6.117012314e-08
-5.09011924e-08
-3.895154842e-08
-2.851053111e-08
-1.888957944e-08
-1.503108696e-07
-3.56249545e-07
-3.106909115e-07
-2.70678788e-07
-2.345882435e-07
-2.03060224e-07
-1.733580568e-07
-1.465534007e-07
-1.230182305e-07
-1.017729855e-07
-8.325924826e-08
-6.699476103e-08
-5.300994719e-08
-4.10045397e-08
-3.089472233e-08
-2.239499463e-08
-1.532569973e-08
-9.551194011e-09
-4.852241505e-09
-1.006859528e-09
2.096582179e-09
4.592892418e-09
6.587973245e-09
8.185791226e-09
9.442035406e-09
1.046109021e-08
1.127366096e-08
1.191576895e-08
1.241882192e-08
1.28513448e-08
1.319778536e-08
1.347232076e-08
1.368564602e-08
1.384869788e-08
1.395946809e-08
1.402507988e-08
1.404089931e-08
1.399998877e-08
8.758643528e-09
5.631758214e-09
6.723591501e-09
7.59576239e-09
8.274755167e-09
8.775579921e-09
9.119367959e-09
9.308004811e-09
9.370269475e-09
5.908229203e-09
3.778323263e-09
4.902887316e-09
5.63982796e-09
6.05064861e-09
6.182169647e-09
3.22815031e-09
3.646436607e-09
4.176721666e-09
4.191841304e-09
3.067328196e-09
2.390721462e-09
2.087508857e-09
1.289122693e-09
5.899968214e-09
2.145365139e-08
6.53610362e-08
1.600673768e-07
)


101
(
-3.842674926e-13
-9.182392275e-10
-5.624393613e-09
-1.393622351e-08
-2.330892291e-08
-3.170307305e-08
-3.840423388e-08
-4.381457563e-08
-4.769096365e-08
-5.022259733e-08
-5.152513479e-08
-5.176823029e-08
-5.112462325e-08
-4.953572498e-08
-4.72193003e-08
-4.418709355e-08
-4.036810355e-08
-3.558291887e-08
-3.050550974e-08
-2.397744099e-08
-1.70192161e-08
-9.549918957e-09
-8.407371389e-10
8.706973333e-09
1.898401475e-08
3.000331784e-08
4.168960653e-08
5.388190445e-08
6.652692571e-08
7.933244141e-08
9.207988498e-08
1.044313476e-07
1.157908358e-07
1.267317364e-07
1.360569424e-07
1.43766689e-07
8.004939012e-08
-1.98033218e-08
8.980783916e-09
3.206693118e-08
5.029767696e-08
6.459793286e-08
7.684501068e-08
8.708754566e-08
9.521874921e-08
1.016973077e-07
1.065209112e-07
1.098421386e-07
1.118350547e-07
1.126456773e-07
1.124474981e-07
1.114115575e-07
1.097198599e-07
1.07471112e-07
1.047775846e-07
1.018034917e-07
9.863500132e-08
9.544120732e-08
9.225843665e-08
8.914926546e-08
8.615525145e-08
8.33089008e-08
8.059583539e-08
7.805366264e-08
7.569109381e-08
7.352459163e-08
7.15027616e-08
6.962703264e-08
6.789754582e-08
6.626705806e-08
6.473680558e-08
6.326773902e-08
6.188975709e-08
6.052550051e-08
5.655596328e-08
5.36449946e-08
5.284724417e-08
5.193680913e-08
5.092291736e-08
4.978410021e-08
4.851440949e-08
4.709287537e-08
4.553065987e-08
4.21025078e-08
3.922336066e-08
3.787426211e-08
3.627606574e-08
3.445728303e-08
3.240419525e-08
2.87017179e-08
2.65637297e-08
2.435776551e-08
2.184096816e-08
1.864409384e-08
1.551847941e-08
1.235937865e-08
8.701624374e-09
2.986695426e-08
8.636068398e-08
2.226137394e-07
4.612155767e-07
)


101
(
-3.842674955e-13
-4.117981251e-10
-7.077860943e-10
2.306942113e-10
2.568237248e-09
5.989098277e-09
1.016721251e-08
1.496515978e-08
2.030864566e-08
2.61529471e-08
3.250805296e-08
3.940827219e-08
4.689725995e-08
5.509956697e-08
6.412824172e-08
7.406671351e-08
8.502393097e-08
9.720368253e-08
1.105785807e-07
1.253850459e-07
1.417401194e-07
1.595253116e-07
1.788785144e-07
1.999727666e-07
2.227970752e-07
2.471785664e-07
2.728905996e-07
2.996563244e-07
3.271917144e-07
3.550770822e-07
3.829704964e-07
4.10453004e-07
4.368356376e-07
4.623623298e-07
4.845552852e-07
5.025240132e-07
5.223961693e-07
5.439247152e-07
5.699517129e-07
5.927803297e-07
6.075898872e-07
6.153036648e-07
6.195799717e-07
6.209746434e-07
6.197885474e-07
6.171710192e-07
6.126237828e-07
6.066392455e-07
5.988098506e-07
5.897026162e-07
5.790391877e-07
5.673464017e-07
5.54838863e-07
5.415681785e-07
5.27605093e-07
5.133516426e-07
4.986225752e-07
4.834928595e-07
4.687101005e-07
4.538462166e-07
4.394536468e-07
4.25395223e-07
4.116435523e-07
3.984000793e-07
3.856648125e-07
3.734101208e-07
3.616760426e-07
3.502801975e-07
3.397987654e-07
3.298049541e-07
3.203213322e-07
3.111694118e-07
3.027317219e-07
2.946520905e-07
2.867986779e-07
2.791190739e-07
2.715908471e-07
2.641331458e-07
2.568603688e-07
2.49691314e-07
2.424876892e-07
2.349953975e-07
2.272025075e-07
2.189991396e-07
2.102773647e-07
2.009438213e-07
1.910712382e-07
1.808750602e-07
1.702122226e-07
1.589997664e-07
1.470825273e-07
1.345061114e-07
1.213466532e-07
1.077494601e-07
9.34265243e-08
7.764119666e-08
6.019299154e-08
1.666947271e-07
4.078512568e-07
9.584315402e-07
1.839163463e-06
)


101
(
-3.842674975e-13
-3.080349081e-10
-1.865528435e-10
1.097403856e-09
3.655447901e-09
7.317560798e-09
1.189507522e-08
1.735002528e-08
2.36718716e-08
3.087134688e-08
3.901247064e-08
4.819097506e-08
5.851176168e-08
7.021621493e-08
8.350536645e-08
9.859642951e-08
1.157611164e-07
1.354148312e-07
1.575821124e-07
1.830172126e-07
2.117438213e-07
2.439903713e-07
2.803786439e-07
3.210437875e-07
3.662986667e-07
4.16273811e-07
4.70873427e-07
5.298568738e-07
5.931156076e-07
6.600091908e-07
7.300802083e-07
8.028125868e-07
8.76525464e-07
9.543580617e-07
1.029263157e-06
1.100426762e-06
1.171046084e-06
1.244702188e-06
1.327484832e-06
1.413907152e-06
1.492758375e-06
1.558144176e-06
1.616173569e-06
1.667290297e-06
1.711564364e-06
1.752823774e-06
1.789027631e-06
1.82161067e-06
1.848384753e-06
1.87121581e-06
1.887855361e-06
1.899313123e-06
1.905901137e-06
1.908005855e-06
1.904980332e-06
1.896873872e-06
1.885784115e-06
1.868633301e-06
1.848964963e-06
1.82290694e-06
1.794573274e-06
1.763980138e-06
1.729765032e-06
1.694253792e-06
1.657200884e-06
1.615793666e-06
1.57298034e-06
1.52831409e-06
1.483793269e-06
1.440168968e-06
1.39305525e-06
1.346259242e-06
1.300404568e-06
1.256245384e-06
1.21195811e-06
1.168201688e-06
1.12347779e-06
1.080797859e-06
1.0390532e-06
9.99466722e-07
9.622998364e-07
9.246924192e-07
8.879898706e-07
8.517506951e-07
8.152358288e-07
7.77538779e-07
7.389111255e-07
7.00137275e-07
6.60951659e-07
6.206619745e-07
5.784345826e-07
5.34800964e-07
4.893667803e-07
4.426962672e-07
3.944226579e-07
3.400296461e-07
2.78466257e-07
6.874291763e-07
1.517536185e-06
3.416437028e-06
5.732068427e-06
)


101
(
-3.84267464e-13
-2.826245377e-10
-1.429025343e-10
1.141030212e-09
3.790054382e-09
7.725073332e-09
1.282458441e-08
1.911517376e-08
2.665970653e-08
3.554620464e-08
4.592908862e-08
5.800936012e-08
7.200640859e-08
8.834728569e-08
1.07402568e-07
1.296247575e-07
1.555807222e-07
1.860657416e-07
2.212979154e-07
2.628700377e-07
3.108999801e-07
3.662462443e-07
4.305338686e-07
5.041623242e-07
5.881329573e-07
6.834200989e-07
7.905806062e-07
9.098949267e-07
1.042027673e-06
1.186544084e-06
1.343368564e-06
1.511800425e-06
1.689347255e-06
1.885198115e-06
2.086161702e-06
2.292098854e-06
2.498470835e-06
2.713404235e-06
2.948400537e-06
3.204419412e-06
3.466629806e-06
3.717145153e-06
3.962724924e-06
4.20205781e-06
4.432637525e-06
4.663315722e-06
4.890394897e-06
5.119358153e-06
5.344475855e-06
5.569125902e-06
5.784867956e-06
5.991245596e-06
6.188007966e-06
6.37862776e-06
6.56130067e-06
6.726080669e-06
6.881410086e-06
7.018781269e-06
7.154499667e-06
7.251965094e-06
7.318645153e-06
7.384840384e-06
7.410073584e-06
7.422018031e-06
7.423359764e-06
7.384589882e-06
7.317972181e-06
7.221733519e-06
7.084471486e-06
6.967578604e-06
6.792349635e-06
6.594257161e-06
6.370056263e-06
6.143325001e-06
5.897676184e-06
5.638614613e-06
5.368859361e-06
5.092209922e-06
4.792736263e-06
4.505638352e-06
4.232493839e-06
3.981011875e-06
3.720426378e-06
3.477310036e-06
3.239654211e-06
3.012145974e-06
2.782977951e-06
2.573794907e-06
2.377309454e-06
2.195470753e-06
2.017324676e-06
1.842486535e-06
1.678379081e-06
1.517534196e-06
1.362357147e-06
1.189971008e-06
1.00032672e-06
2.454184443e-06
5.063682111e-06
1.256808615e-05
2.139906019e-05
)


101
(
-3.842675011e-13
-2.740533974e-10
-1.535391322e-10
1.128732907e-09
3.882414194e-09
8.114446077e-09
1.378343774e-08
2.100240122e-08
2.993797963e-08
4.079313926e-08
5.386085478e-08
6.95065332e-08
8.81351926e-08
1.104579502e-07
1.37131252e-07
1.689914037e-07
2.070995828e-07
2.528865799e-07
3.070104033e-07
3.723837666e-07
4.495820211e-07
5.405984788e-07
6.489249046e-07
7.758856703e-07
9.239190738e-07
1.095894068e-06
1.29414853e-06
1.520632566e-06
1.778211233e-06
2.067951079e-06
2.391596567e-06
2.7492493e-06
3.137957428e-06
3.578993158e-06
4.052800835e-06
4.559420242e-06
5.093156242e-06
5.65722812e-06
6.273976071e-06
6.961548037e-06
7.70917332e-06
8.486241064e-06
9.30434846e-06
1.016282151e-05
1.105258406e-05
1.199095241e-05
1.297436265e-05
1.403290381e-05
1.51594678e-05
1.635085977e-05
1.75989704e-05
1.886636218e-05
2.015313853e-05
2.147112494e-05
2.285018921e-05
2.419270963e-05
2.549932397e-05
2.679714845e-05
2.80856009e-05
2.925449274e-05
3.032591986e-05
3.137309474e-05
3.224257666e-05
3.294723144e-05
3.358376875e-05
3.405617234e-05
3.433879571e-05
3.445262245e-05
3.431992045e-05
3.409143621e-05
3.367941186e-05
3.310048263e-05
3.232412641e-05
3.142201232e-05
3.036204711e-05
2.915528447e-05
2.789209926e-05
2.648893268e-05
2.49288786e-05
2.332422188e-05
2.170061308e-05
2.020504669e-05
1.865714636e-05
1.714602449e-05
1.569303909e-05
1.426413409e-05
1.284774054e-05
1.149192435e-05
1.027408153e-05
9.205608003e-06
8.165935495e-06
7.177642328e-06
6.325525763e-06
5.536353178e-06
4.855983322e-06
4.102545044e-06
3.336857144e-06
9.522808595e-06
1.89905547e-05
4.242680925e-05
6.698682736e-05
)


101
(
-3.842675025e-13
-2.691493404e-10
-1.706238697e-10
1.110189836e-09
3.969483694e-09
8.510177441e-09
1.478849378e-08
2.302816574e-08
3.353404186e-08
4.666919703e-08
6.29259673e-08
8.291087618e-08
1.073114436e-07
1.372558777e-07
1.738518928e-07
2.185316567e-07
2.731394455e-07
3.401204628e-07
4.209650385e-07
5.206187757e-07
6.407322122e-07
7.852727438e-07
9.609784225e-07
1.171325763e-06
1.421594549e-06
1.718466486e-06
2.068303014e-06
2.47712639e-06
2.952975013e-06
3.501571214e-06
4.130046491e-06
4.843273513e-06
5.640184398e-06
6.565406634e-06
7.598989472e-06
8.751338726e-06
1.002170878e-05
1.141563284e-05
1.298094311e-05
1.477466364e-05
1.681585764e-05
1.907350222e-05
2.160311558e-05
2.442039776e-05
2.751179024e-05
3.091386424e-05
3.460196375e-05
3.866183381e-05
4.311909913e-05
4.793472364e-05
5.311157134e-05
5.842570306e-05
6.393011902e-05
6.961419532e-05
7.550433437e-05
8.135514936e-05
8.715883302e-05
9.280424235e-05
9.834342304e-05
0.0001034554392
0.0001081798537
0.0001127199994
0.0001167404621
0.0001202220656
0.0001231966363
0.0001256177525
0.0001272665798
0.0001284691297
0.000128866374
0.0001286742264
0.0001279466867
0.0001264488429
0.0001242778659
0.0001215060431
0.0001182497197
0.0001143424458
0.0001101358663
0.0001054703674
0.0001003951618
9.490473689e-05
8.899025467e-05
8.309790795e-05
7.735665928e-05
7.145084228e-05
6.576753209e-05
6.010737639e-05
5.438121609e-05
4.871951688e-05
4.347894974e-05
3.871542889e-05
3.428107889e-05
2.977915416e-05
2.59459148e-05
2.244188509e-05
1.932331496e-05
1.604950571e-05
1.243362996e-05
3.404371344e-05
6.159461227e-05
0.0001152408243
0.0001673565798
)


101
(
-3.842675041e-13
-2.648906971e-10
-1.885566018e-10
1.088694022e-09
4.052410447e-09
8.91215478e-09
1.584024519e-08
2.519810763e-08
3.746803977e-08
5.322842177e-08
7.324677482e-08
9.84690387e-08
1.299930211e-07
1.69540897e-07
2.188979334e-07
2.803882571e-07
3.570438515e-07
4.528669396e-07
5.707789207e-07
7.187770577e-07
9.005839504e-07
1.123469554e-06
1.399493373e-06
1.736440828e-06
2.144861524e-06
2.638554695e-06
3.232140869e-06
3.940592507e-06
4.78317144e-06
5.777355915e-06
6.944818445e-06
8.306188905e-06
9.873668457e-06
1.174024508e-05
1.391162289e-05
1.644111095e-05
1.936328158e-05
2.272475755e-05
2.666441949e-05
3.131842124e-05
3.680308997e-05
4.313772406e-05
5.043292622e-05
5.874067026e-05
6.805027929e-05
7.844041389e-05
8.979185373e-05
0.0001021935697
0.0001157797066
0.0001302802708
0.0001454673205
0.0001610556732
0.0001771147914
0.0001931557544
0.0002095673722
0.0002259746265
0.0002417958889
0.0002568531132
0.0002713822274
0.0002847541101
0.0002969525504
0.0003082677871
0.0003179657313
0.0003265427614
0.000333731524
0.0003396927886
0.0003440018458
0.0003467539094
0.0003477500774
0.0003467319359
0.0003445976733
0.0003407520679
0.0003360264691
0.0003298429039
0.000322135868
0.0003130824154
0.0003030245081
0.0002919347476
0.0002799987197
0.0002670046746
0.0002531985397
0.0002385117637
0.00022426821
0.000209427649
0.0001950081649
0.0001801627957
0.0001656173044
0.0001506358509
0.0001363455486
0.0001228220404
0.0001101090669
9.716221969e-05
8.586444418e-05
7.543583648e-05
6.562134161e-05
5.572893603e-05
4.267416455e-05
9.432005535e-05
0.0001516242135
0.0002429303193
0.0003301117515
)


101
(
-3.842674343e-13
-2.605591002e-10
-2.066395933e-10
1.064409364e-09
4.13070391e-09
9.319241615e-09
1.69383138e-08
2.751714137e-08
4.175958111e-08
6.052570399e-08
8.495178491e-08
1.16447256e-07
1.566844559e-07
2.082110721e-07
2.737909311e-07
3.5704369e-07
4.627446262e-07
5.972075678e-07
7.656586903e-07
9.805966544e-07
1.24931662e-06
1.584395873e-06
2.006230794e-06
2.530657229e-06
3.177428965e-06
3.973123419e-06
4.948218597e-06
6.136149689e-06
7.579875203e-06
9.324657918e-06
1.142924753e-05
1.396170856e-05
1.698641738e-05
2.070266712e-05
2.520751886e-05
3.068773355e-05
3.730272123e-05
4.523357217e-05
5.485099107e-05
6.637799025e-05
8.005933164e-05
9.592558972e-05
0.0001141824744
0.0001348129595
0.0001577344751
0.0001830250883
0.0002103138093
0.0002396149935
0.000270744265
0.0003030585375
0.0003361034373
0.0003696584565
0.0004032910551
0.0004362058448
0.0004687791049
0.0005002391014
0.000530526914
0.0005581198239
0.0005843661851
0.0006083665543
0.0006295724453
0.0006486889195
0.0006645727442
0.0006780692691
0.000688938595
0.0006972723587
0.000703055387
0.0007055668022
0.0007052774897
0.0007019184049
0.0006962996622
0.0006882330427
0.0006779696236
0.0006657070714
0.0006512453604
0.0006348662976
0.0006162427832
0.0005959876742
0.0005746668493
0.0005515024958
0.0005267967286
0.0005009222786
0.0004745881223
0.0004480590591
0.000421150684
0.0003936370164
0.000366869475
0.0003389380921
0.0003115080667
0.00028484939
0.000259118306
0.0002337740036
0.0002101784186
0.0001881723126
0.0001667794308
0.0001444423272
0.0001159328075
0.0002046168964
0.0002936852393
0.0004102475372
0.0005171046199
)


101
(
-3.842674362e-13
-2.559800177e-10
-2.247496489e-10
1.037318603e-09
4.203873374e-09
9.730225442e-09
1.80818158e-08
2.998913601e-08
4.642824339e-08
6.86179546e-08
9.817663816e-08
1.371307518e-07
1.879360356e-07
2.542624907e-07
3.402469452e-07
4.513415973e-07
5.948112734e-07
7.803094906e-07
1.01659687e-06
1.322680692e-06
1.711658406e-06
2.204432261e-06
2.834135884e-06
3.630506201e-06
4.629221426e-06
5.879473556e-06
7.441276445e-06
9.384972081e-06
1.18033101e-05
1.480665085e-05
1.854268917e-05
2.319834538e-05
2.898386797e-05
3.633850118e-05
4.556298948e-05
5.71297879e-05
7.147321526e-05
8.900557185e-05
0.0001103483259
0.0001357193942
0.0001654103723
0.0001991936515
0.000237347169
0.0002794677415
0.0003252097712
0.0003745061119
0.0004263601879
0.0004804589786
0.0005358130611
0.000591815463
0.0006478077001
0.0007035170058
0.0007578823452
0.00081010269
0.0008589276706
0.0009050627141
0.0009492132201
0.0009884098298
0.001024271674
0.001056318027
0.001083606188
0.00110674625
0.00112584598
0.001140536238
0.001150844067
0.001156926951
0.001160135621
0.001159020859
0.001154433699
0.001146031399
0.00113395787
0.001118831907
0.001100468426
0.001079559473
0.001056336952
0.001030454871
0.001001846977
0.0009713568838
0.0009393607068
0.0009055255531
0.0008694275235
0.0008322064161
0.0007933510972
0.0007546822124
0.0007150160944
0.0006745618841
0.0006345879056
0.0005938828946
0.0005527297745
0.0005129157012
0.0004729100504
0.00043426761
0.0003968240456
0.0003613796715
0.0003270397099
0.0002880814985
0.0002399544147
0.0003602287696
0.0004704209224
0.0005806022886
0.0006685478984
)


101
(
-3.842605848e-13
-2.511106844e-10
-2.428373233e-10
1.007370335e-09
4.271400136e-09
1.014382712e-08
1.926965016e-08
3.261743513e-08
5.14931324e-08
7.756407649e-08
1.130640185e-07
1.608246315e-07
2.243458721e-07
3.087954876e-07
4.201923491e-07
5.665222841e-07
7.585142298e-07
1.010541903e-06
1.336606036e-06
1.764957243e-06
2.31779322e-06
3.028842882e-06
3.950776957e-06
5.135794105e-06
6.648271889e-06
8.576631144e-06
1.103415821e-05
1.416509473e-05
1.816671029e-05
2.329249054e-05
2.988108726e-05
3.836428533e-05
4.924785417e-05
6.344596905e-05
8.156852328e-05
0.0001044808717
0.0001329553696
0.0001675766102
0.0002089769016
0.0002570933633
0.0003120344787
0.000372917927
0.0004397740273
0.0005116438852
0.0005875856407
0.0006670132509
0.0007478506936
0.0008293315167
0.0009102290521
0.0009900942592
0.001067733966
0.001142721333
0.001214305431
0.001281253176
0.00134145227
0.001397833896
0.001448893211
0.001494032703
0.001532678904
0.001566182143
0.001593617844
0.001614506712
0.001630262303
0.00164013241
0.001644667957
0.001643757598
0.001638735673
0.001629852238
0.001617041246
0.001599874828
0.001578401435
0.001553363845
0.001525348515
0.001494293358
0.001460654631
0.001424166278
0.00138542306
0.001344783089
0.001301830763
0.001257912011
0.001212368765
0.001164972762
0.001116079985
0.001066780489
0.001016831087
0.0009659100773
0.0009148304656
0.0008645439237
0.0008131216704
0.0007624555567
0.0007117343985
0.0006622270493
0.0006133783219
0.0005667205892
0.0005222825238
0.000469778994
0.0004043610318
0.0005301489091
0.0006347542243
0.0007084019435
0.0007525668692
)


101
(
-3.842359959e-13
-2.459408444e-10
-2.608578255e-10
9.745042253e-10
4.332668395e-09
1.055850745e-08
2.05003027e-08
3.540489366e-08
5.69719101e-08
8.742163092e-08
1.297611577e-07
1.878524956e-07
2.665620527e-07
3.730251389e-07
5.157879382e-07
7.06267115e-07
9.599079738e-07
1.297611915e-06
1.740974179e-06
2.331287228e-06
3.104533915e-06
4.113978319e-06
5.442075003e-06
7.176133664e-06
9.430387905e-06
1.236352547e-05
1.618865108e-05
2.119330837e-05
2.777968807e-05
3.647538312e-05
4.796484132e-05
6.309476944e-05
8.282730395e-05
0.0001087631914
0.0001418125556
0.0001831514131
0.0002336625536
0.0002937166109
0.0003635190199
0.0004426435251
0.0005303789174
0.0006248994054
0.0007255060635
0.0008306068606
0.0009384045204
0.00104779483
0.001156020265
0.001261758006
0.001363576204
0.001461402252
0.001553642276
0.001639819003
0.001719762461
0.001792521289
0.001856967368
0.001914152479
0.00196320666
0.002004777411
0.00203817154
0.002064766029
0.002084808564
0.002097201363
0.002103000795
0.002102225736
0.002095663684
0.002083827212
0.002066176025
0.002044810028
0.002019630727
0.001990530813
0.001957465798
0.001920860604
0.001881076897
0.001838540988
0.001793755758
0.001746941958
0.001698184152
0.001647642486
0.001595276813
0.001542180299
0.001488539203
0.001433372913
0.001377208443
0.001320373281
0.001263430982
0.00120634702
0.001148378411
0.001092006955
0.001035555205
0.0009781515164
0.000922015011
0.0008669817073
0.0008123829676
0.0007593125229
0.0007094790002
0.0006506460089
0.0005773470071
0.0006752355788
0.0007417997741
0.0007521457266
0.0007369707129
)


101
(
-3.842184028e-13
-2.40468883e-10
-2.787599059e-10
9.386815566e-10
4.387095377e-09
1.097261835e-08
2.177154719e-08
3.835303977e-08
6.288278705e-08
9.825024262e-08
1.484185598e-07
2.185547095e-07
3.152784281e-07
4.482696376e-07
6.294139087e-07
8.746967261e-07
1.205917224e-06
1.652843016e-06
2.24784069e-06
3.050382944e-06
4.116682397e-06
5.529472248e-06
7.416365476e-06
9.921450583e-06
1.32432855e-05
1.766446874e-05
2.358242642e-05
3.154407746e-05
4.230873204e-05
5.683815771e-05
7.631438647e-05
0.0001021468158
0.0001358512925
0.0001797038134
0.0002346050201
0.0003017074528
0.000381526038
0.0004737118971
0.000577625502
0.0006925689373
0.0008163010252
0.0009457797911
0.001079442997
0.001215041573
0.001349898664
0.001482812493
0.001611333909
0.001733634615
0.00184790768
0.001954471568
0.002051131019
0.002138129662
0.002216179068
0.002284739878
0.002343516675
0.002391090749
0.002430174606
0.002459639416
0.002480762882
0.002492946203
0.002498343653
0.002495953378
0.002486543433
0.002470502715
0.002448407002
0.002421266831
0.002388530958
0.002351444799
0.002310819509
0.002267171687
0.002220340911
0.002170580233
0.002118112355
0.002063436563
0.00200715812
0.001949781841
0.001891160974
0.001831320567
0.001770821237
0.001709830844
0.001649193357
0.001588345289
0.001527127314
0.001465794055
0.001404997134
0.001345259625
0.001285021723
0.001226025175
0.001168632828
0.001110720216
0.00105393865
0.0009988044308
0.0009449549274
0.000891764599
0.000842078361
0.0007837126572
0.0007121078337
0.0007543832394
0.0007573247384
0.0006869029237
0.0005936068318
)


101
(
-3.842182606e-13
-2.346952864e-10
-2.9650013e-10
8.998623237e-10
4.434079391e-09
1.138443887e-08
2.308077041e-08
4.146238831e-08
6.924254684e-08
1.101100766e-07
1.691868761e-07
2.532898552e-07
3.712361207e-07
5.359498033e-07
7.636703695e-07
1.076389857e-06
1.504428322e-06
2.089503258e-06
2.878999786e-06
3.958271397e-06
5.411267224e-06
7.365230093e-06
1.001628107e-05
1.360398439e-05
1.846893231e-05
2.509914239e-05
3.419988672e-05
4.672426421e-05
6.395507118e-05
8.743021373e-05
0.0001189051519
0.0001603211889
0.000213604073
0.0002814806994
0.0003642624909
0.0004626150493
0.0005762189183
0.0007036853594
0.0008433515447
0.0009936900012
0.001151166023
0.001311665309
0.001472745343
0.001631333873
0.001784253339
0.001930593583
0.002068687852
0.002196745565
0.002313146108
0.002417775473
0.002508690766
0.002586733942
0.002653309179
0.002708261493
0.00275203232
0.002783302482
0.002804686529
0.002815896989
0.002818006788
0.002810615563
0.002795907112
0.002773763836
0.002744773488
0.002709745363
0.002669159089
0.002623491871
0.002573168822
0.002518788496
0.002460991705
0.002401065122
0.002338979557
0.002274839238
0.002209156574
0.002142047005
0.00207413115
0.002006047062
0.001937667665
0.001869317741
0.001801272049
0.001733623397
0.001667412013
0.001602249856
0.001537813617
0.001474384981
0.001412264794
0.001352159864
0.001293042217
0.001235458167
0.001179896312
0.001125738895
0.001073169049
0.001022152111
0.0009735007237
0.0009259378414
0.0008814059262
0.0008298483407
0.0007676592362
0.0007327350213
0.0006590072583
0.0005183861039
0.0003512732055
)


101
(
-3.842181187e-13
-2.286220477e-10
-3.140439422e-10
8.580250922e-10
4.472975821e-09
1.179200667e-08
2.442509515e-08
4.473272979e-08
7.606548342e-08
1.230588883e-07
1.922241748e-07
2.924294627e-07
4.352242206e-07
6.376100942e-07
9.214354343e-07
1.316495507e-06
1.864377235e-06
2.622863491e-06
3.660020239e-06
5.097523038e-06
7.057932536e-06
9.736728233e-06
1.343630158e-05
1.854852896e-05
2.564467909e-05
3.55305455e-05
4.935720295e-05
6.860403119e-05
9.517751891e-05
0.0001312480963
0.0001791446293
0.000241068299
0.000318742194
0.0004150725728
0.000529165659
0.0006608384973
0.0008086569269
0.0009700899697
0.001142493159
0.001322957611
0.001507558454
0.001690891218
0.001870074587
0.002041663664
0.002202472925
0.00235144004
0.002487531618
0.002610327831
0.002718200815
0.002810575668
0.002887340105
0.002948817573
0.002995845404
0.003029823103
0.003051923626
0.003061427701
0.003059371902
0.003047246853
0.003025654321
0.002994944657
0.002956529823
0.002911397219
0.002860220148
0.002803519224
0.002741877769
0.002676197582
0.002606864978
0.002534301281
0.002458856334
0.002381935973
0.002304048642
0.002225143915
0.002146129192
0.002066676369
0.001987478131
0.001909459532
0.001832095593
0.001756141866
0.00168135747
0.0016085867
0.001538220827
0.001470003481
0.001404191969
0.001340377874
0.001278912439
0.001220727731
0.001164819261
0.001111580379
0.001060582471
0.001012303834
0.0009674152763
0.0009237685909
0.0008830731894
0.0008443697135
0.0008082656917
0.0007675469696
0.0007188782118
0.0006053924562
0.0004637678199
0.0002852475961
0.0001128745885
)


101
(
-3.842184057e-13
-2.22251192e-10
-3.314295627e-10
8.131555947e-10
4.503163454e-09
1.219322387e-08
2.580105753e-08
4.816250249e-08
8.33661459e-08
1.371560301e-07
2.176940919e-07
3.363499015e-07
5.080691777e-07
7.549271863e-07
1.105912227e-06
1.600867325e-06
2.29598998e-06
3.270352708e-06
4.620419374e-06
6.516902528e-06
9.140859227e-06
1.279107496e-05
1.793865027e-05
2.519524651e-05
3.548360828e-05
5.005667021e-05
7.059693245e-05
9.913961586e-05
0.0001382014388
0.0001904772958
0.0002586640682
0.000344841665
0.0004498418827
0.0005762441771
0.0007216259033
0.0008848501377
0.001063269083
0.001253190019
0.001451217899
0.001653445228
0.001855154181
0.002050576101
0.002237124236
0.002411032686
0.002569366165
0.002711047004
0.002835525738
0.002943720424
0.003034020053
0.003106437306
0.003162083067
0.003200818831
0.00322280684
0.00323068158
0.003225991201
0.003209059482
0.00318037396
0.003141473167
0.003093775959
0.003037545653
0.002973817716
0.002903958048
0.002829075025
0.002749320084
0.002666036756
0.002579240089
0.002490363913
0.002399732463
0.002307257184
0.00221427134
0.002121013418
0.002028314203
0.001936738822
0.001846118657
0.001756993954
0.001670395964
0.001586564142
0.001504373687
0.001425056212
0.001349225186
0.001276496469
0.001207360212
0.00114259458
0.001080495143
0.001021917204
0.0009676205613
0.0009170690983
0.0008699910137
0.0008262848687
0.0007857030572
0.0007498349231
0.000715762522
0.0006844924566
0.0006560592038
0.0006298365769
0.0006013856807
0.000568215055
0.0003975949004
0.0002172969657
4.060669618e-05
-0.0001078048948
)


101
(
-3.842184068e-13
-2.155880772e-10
-3.482404581e-10
7.652340611e-10
4.524000605e-09
1.258594686e-08
2.72046227e-08
5.174862661e-08
9.115655532e-08
1.524625188e-07
2.457568977e-07
3.854329241e-07
5.906248619e-07
8.897013711e-07
1.320673504e-06
1.936280116e-06
2.811458131e-06
4.053309888e-06
5.797194526e-06
8.275947059e-06
1.176779984e-05
1.672024845e-05
2.386397845e-05
3.409561225e-05
4.881125744e-05
6.98225283e-05
9.934358557e-05
0.0001398640176
0.0001943673712
0.0002657750186
0.0003566062324
0.0004684186908
0.000600987852
0.0007558343913
0.0009290392561
0.001118693992
0.001320987583
0.001530984874
0.001744580509
0.001957692744
0.002165097824
0.002361821937
0.002545009158
0.002710993858
0.002857328396
0.002983444722
0.003089089976
0.003175293522
0.003241706
0.003288873298
0.003318021351
0.003329511987
0.003323447065
0.003302183021
0.003267779714
0.003221868107
0.003164720153
0.003097772525
0.003022717671
0.002940303657
0.002851203448
0.002756695861
0.00265772256
0.002555210278
0.002450823327
0.00234348628
0.002236130985
0.002128529896
0.002020976605
0.001913470024
0.00180700708
0.001703085109
0.001601320136
0.001502473209
0.001406824599
0.00131445884
0.001226300882
0.001141805006
0.001061694956
0.0009857407765
0.0009139035898
0.0008477913984
0.000786475798
0.0007294406328
0.0006770242462
0.0006293438785
0.0005867270163
0.0005479413232
0.0005136117624
0.0004826549689
0.0004562746113
0.0004331078782
0.0004122791449
0.0003942872623
0.0003785384874
0.0003624879053
0.0003450633293
0.0001540138968
-2.610494442e-05
-0.0001679270491
-0.0002898693748
)


101
(
-3.84218122e-13
-2.086414469e-10
-3.646903257e-10
7.142630071e-10
4.534836934e-09
1.296787603e-08
2.863125883e-08
5.548680214e-08
9.943917963e-08
1.690192142e-07
2.765767477e-07
4.400859113e-07
6.838135679e-07
1.043829467e-06
1.569412002e-06
2.329695583e-06
3.423784575e-06
4.996017559e-06
7.235743698e-06
1.045977301e-05
1.509101971e-05
2.178631837e-05
3.162938374e-05
4.58799689e-05
6.646896803e-05
9.582476976e-05
0.0001365915582
0.0001914451272
0.000263561694
0.0003556247502
0.0004693304149
0.0006054103424
0.0007628427122
0.0009415236019
0.001136131344
0.001344192781
0.001561148103
0.001781113147
0.001999382239
0.002212117798
0.002414518446
0.002602120889
0.002772064144
0.002921543207
0.003048555628
0.003152636238
0.003233679882
0.003292843043
0.003331366297
0.003349785151
0.00334925264
0.003330804236
0.003295098993
0.003243698346
0.003178884973
0.003103008201
0.00301685579
0.002922224468
0.002819978858
0.002711560797
0.002598662087
0.002480816638
0.002359532403
0.002236518672
0.002112784317
0.001988086225
0.001864688817
0.001742736308
0.001622936479
0.001504505533
0.0013896923
0.001278174853
0.001170277673
0.001067570331
0.0009700031171
0.0008768263619
0.0007892394914
0.0007078185419
0.0006312445581
0.0005600111394
0.0004946433492
0.0004360132401
0.0003821155155
0.0003338803631
0.0002919131018
0.000254254028
0.0002223383812
0.0001947483201
0.000171782402
0.0001522316407
0.0001368615235
0.0001249007167
0.0001155949411
0.0001081552682
0.0001027030802
9.845350554e-05
9.610385618e-05
-7.641660893e-05
-0.0002228907424
-0.0003125474985
-0.0003792155822
)


101
(
-3.842184094e-13
-2.014167727e-10
-3.81012284e-10
6.602625383e-10
4.535062817e-09
1.333660577e-08
3.007590747e-08
5.93723861e-08
1.082172441e-07
1.868633303e-07
3.103503806e-07
5.007007161e-07
7.886540701e-07
1.219455806e-06
1.856299631e-06
2.7890018e-06
4.147924602e-06
6.127301463e-06
8.991734717e-06
1.318218767e-05
1.931292883e-05
2.833355406e-05