/*--------------------------------*- C++ -*----------------------------------*\
| =========                 |                                                 |
| \\      /  F ield         | OpenFOAM: The Open Source CFD Toolbox           |
|  \\    /   O peration     | Version:  2.3.1                                 |
|   \\  /    A nd           | Web:      www.OpenFOAM.org                      |
|    \\/     M anipulation  |                                                 |
\*---------------------------------------------------------------------------*/
FoamFile
{
    version     2.0;
    format      ascii;
    class       dictionary;
    location    "constant";
    object      PM39;
}
// * * * * * * * * * * * * * * * * * * * * * * * * * * * * * * * * * * * * * //

PM39_table
101
(

101
(
1.36553483e-16
-1.171638184e-16
-1.912168e-17
9.51294909e-17
8.800840395e-17
-7.133744838e-17
3.406469321e-16
3.164776813e-16
5.38187181e-16
7.757256423e-16
1.456475643e-15
1.795207005e-15
4.717960653e-15
6.510768773e-15
8.790550333e-15
1.225872674e-14
1.701676584e-14
1.26654429e-14
2.106999856e-14
1.4571134e-14
1.143787352e-14
1.259260202e-14
7.921796426e-15
3.525011552e-15
2.715335242e-16
-2.551880855e-15
-4.877537159e-15
-7.230985661e-15
-9.060110621e-15
-1.081786172e-14
-1.183149838e-14
-1.004303756e-14
-1.832752476e-14
-1.675075925e-14
-1.660241748e-14
-1.671591159e-14
-1.54469048e-14
-1.782583826e-14
-2.21995188e-14
-2.367050104e-14
-1.926849851e-14
-2.149155071e-14
-2.245207891e-14
-1.992480781e-14
-2.174437853e-14
-2.107229499e-14
-2.277566638e-14
-2.246840455e-14
-2.36703803e-14
-2.288763345e-14
-2.281416418e-14
-2.291827185e-14
-2.255711266e-14
-2.184066898e-14
-2.133583027e-14
-2.41748831e-14
-2.132769422e-14
-2.236522993e-14
-2.171098265e-14
-2.189072945e-14
-2.1437903e-14
-2.059307497e-14
-2.04971965e-14
-2.009240365e-14
-1.985244314e-14
-1.922672515e-14
-1.857741445e-14
-1.880095626e-14
-1.811074698e-14
-1.767814802e-14
-1.744506367e-14
-1.771621182e-14
-1.650948307e-14
-1.497131346e-14
-1.290525635e-14
-1.274998225e-14
-1.286609928e-14
-1.203606593e-14
-1.097487848e-14
-1.006497123e-14
-1.020631344e-14
-9.479592067e-15
-8.963589443e-15
-7.611751526e-15
-6.49527981e-15
-6.024154159e-15
-5.570092639e-15
-5.144808169e-15
-5.014286867e-15
-3.600717607e-15
-2.947438118e-15
-3.014838348e-15
-2.399258672e-15
-2.139153674e-15
-1.367070865e-15
-5.163453849e-16
6.868311308e-16
1.49646362e-21
-1.406447275e-30
-2.408322101e-31
2.610622057e-30
)


101
(
1.266400024e-16
-1.245249174e-16
-5.801136091e-17
-2.659348771e-18
-9.082846183e-17
-3.526341505e-16
-1.191233616e-16
-3.537758831e-16
-4.531643046e-16
-6.776925911e-16
-7.023570151e-16
-1.282006102e-15
7.496258033e-17
1.768278413e-16
5.108827325e-16
1.760909509e-15
4.210494001e-15
-1.892475495e-16
5.969867794e-15
1.162866208e-15
-1.819383789e-16
1.857073793e-15
1.373002265e-16
-1.028075709e-15
-1.472327073e-15
-1.635235099e-15
-1.525393077e-15
-1.564300147e-15
-1.412128888e-15
-1.401564364e-15
-1.062204305e-15
8.969460719e-16
-3.338594288e-15
-1.5638412e-15
-1.353472895e-15
-7.203250263e-16
4.81506033e-16
-4.312213751e-16
-2.395981161e-15
-3.096291265e-15
-7.975252174e-16
-1.746185929e-15
-1.544999207e-15
-1.775334319e-16
-8.855646773e-16
-1.286841441e-16
-9.975943947e-16
-6.417077863e-16
-1.315274972e-15
-8.116487166e-16
-8.383465772e-16
-7.10032095e-16
-5.134470195e-16
-1.931583539e-16
2.932317062e-17
-1.207692253e-15
-3.889873545e-17
-9.463840704e-16
-4.378668774e-16
-8.541813985e-16
-6.861424392e-16
-5.705058759e-16
-6.353645214e-16
-5.864246252e-16
-7.13988088e-16
-6.690064856e-16
-6.729258091e-16
-9.818042233e-16
-9.852314968e-16
-1.223729067e-15
-1.391634172e-15
-1.733904455e-15
-1.423026811e-15
-1.031029915e-15
-3.407636835e-16
-5.241520145e-16
-7.760980892e-16
-8.670932837e-16
-7.695848e-16
-6.702764633e-16
-1.003744953e-15
-1.01243762e-15
-1.181317955e-15
-9.915651433e-16
-9.682667032e-16
-9.481378601e-16
-9.756833367e-16
-1.06564953e-15
-1.227493693e-15
-1.107569462e-15
-1.194947523e-15
-1.191670826e-15
-1.222894347e-15
-1.375946973e-15
-1.095035775e-15
3.876295063e-16
3.125585667e-14
5.881709357e-14
6.193329261e-14
6.459062654e-14
6.38607927e-14
)


101
(
1.170919279e-16
-1.132868009e-16
-4.583610768e-17
9.471121666e-18
-7.093707175e-17
-3.135013603e-16
-8.916236878e-17
-2.688698718e-16
-3.351294265e-16
-4.933986895e-16
-4.705568877e-16
-9.122131098e-16
2.580051562e-16
5.41331348e-16
8.695810594e-16
1.954650557e-15
4.132032337e-15
1.075944326e-15
5.233139285e-15
2.686317729e-15
1.016026058e-15
2.315168587e-15
1.600881999e-15
5.72159972e-16
3.725582358e-17
-1.776646855e-16
-1.526039011e-16
-1.738018904e-16
-1.181536139e-16
-1.332807586e-16
7.286690522e-18
1.219705389e-15
-8.703409827e-16
-9.941604921e-16
-6.729666278e-16
-2.636669821e-16
6.028956644e-16
4.384197548e-16
-8.964852277e-16
-2.024131507e-15
-1.27842433e-15
-1.196969801e-15
-1.262083535e-15
-5.808117186e-16
-5.278775737e-16
-3.090552955e-16
-5.715845375e-16
-6.821794636e-16
-1.007336287e-15
-1.031731761e-15
-9.829317414e-16
-9.359502371e-16
-8.366405157e-16
-6.592192854e-16
-4.751808687e-16
-9.394686405e-16
-8.653100782e-16
-1.022611957e-15
-1.055528329e-15
-1.164681897e-15
-1.2328129e-15
-1.196657568e-15
-1.204095821e-15
-1.22150756e-15
-1.29385277e-15
-1.346925347e-15
-1.378501647e-15
-1.5347587e-15
-1.69216347e-15
-1.88493044e-15
-2.094898535e-15
-2.318187839e-15
-2.270906141e-15
-1.946513998e-15
-1.488850253e-15
-1.387763709e-15
-1.61125334e-15
-1.766645153e-15
-1.706010257e-15
-1.608843846e-15
-1.763177928e-15
-1.903585639e-15
-1.946228357e-15
-1.927037459e-15
-1.910879451e-15
-1.921566558e-15
-1.917958802e-15
-1.950319293e-15
-2.022359625e-15
-2.036161061e-15
-2.040007603e-15
-2.055042747e-15
-2.044038375e-15
-2.053480118e-15
-1.363470434e-15
1.934606707e-15
6.24755339e-14
1.17642271e-13
1.237755524e-13
1.290018341e-13
1.275406713e-13
)


101
(
1.079039955e-16
-1.023362523e-16
-3.40338148e-17
2.108513445e-17
-5.21712771e-17
-2.768102093e-16
-6.171329287e-17
-1.924440954e-16
-2.278385251e-16
-3.269861283e-16
-2.597491687e-16
-5.770807197e-16
4.445157129e-16
8.66929729e-16
1.21500853e-15
2.168073691e-15
4.101283821e-15
2.083306689e-15
4.86127719e-15
3.745096686e-15
2.188371666e-15
2.904802602e-15
2.783571217e-15
2.04495297e-15
1.511480997e-15
1.258701175e-15
1.221327286e-15
1.197610011e-15
1.20137335e-15
1.157523916e-15
1.172997286e-15
1.87329266e-15
8.95533795e-16
1.751263862e-16
1.526666199e-16
4.105574432e-16
9.768845953e-16
1.102276246e-15
3.217376103e-16
-7.832425672e-16
-9.286780006e-16
-7.863844016e-16
-8.114390215e-16
-5.043195603e-16
-2.794977272e-16
-1.543655111e-16
-2.243220439e-16
-3.963340276e-16
-6.37976437e-16
-8.183493323e-16
-8.635983556e-16
-8.685035429e-16
-8.390107021e-16
-7.623571437e-16
-6.536685469e-16
-8.065197706e-16
-9.564810654e-16
-1.043892561e-15
-1.146007251e-15
-1.227194415e-15
-1.321239136e-15
-1.357429376e-15
-1.375142752e-15
-1.402391567e-15
-1.453782267e-15
-1.517051484e-15
-1.572000677e-15
-1.67701443e-15
-1.838051122e-15
-2.030388699e-15
-2.235049634e-15
-2.397990165e-15
-2.369530149e-15
-2.087095854e-15
-1.718834657e-15
-1.586578459e-15
-1.746380431e-15
-1.89283782e-15
-1.835815993e-15
-1.730186383e-15
-1.808597582e-15
-1.912241322e-15
-1.88875263e-15
-1.844464293e-15
-1.819266378e-15
-1.817196132e-15
-1.800248714e-15
-1.774480775e-15
-1.717250078e-15
-1.640311933e-15
-1.57543597e-15
-1.481124658e-15
-1.314394565e-15
-1.034085074e-15
5.813807091e-16
5.778778766e-15
9.500911955e-14
1.765466518e-13
1.856952921e-13
1.934863539e-13
1.912875235e-13
)


101
(
9.907094844e-17
-9.167233194e-17
-2.260017015e-17
3.21998382e-17
-3.446972197e-17
-2.424235274e-16
-3.659733818e-17
-1.238537775e-16
-1.306545061e-16
-1.772276428e-16
-6.895589658e-17
-2.746972674e-16
6.300960604e-16
1.1584341e-15
1.543491035e-15
2.395871086e-15
4.114670865e-15
2.892401178e-15
4.74419775e-15
4.510751287e-15
3.270028181e-15
3.592369673e-15
3.797961153e-15
3.381124121e-15
2.936730642e-15
2.681319709e-15
2.605634e-15
2.57372923e-15
2.551478173e-15
2.486563454e-15
2.427369488e-15
2.782504806e-15
2.344596697e-15
1.551903965e-15
1.238358104e-15
1.283682793e-15
1.566227257e-15
1.76483695e-15
1.361074629e-15
4.59566513e-16
-9.403704845e-17
-1.696914178e-16
-2.226444813e-16
-1.023004425e-16
9.900969061e-17
1.992183404e-16
2.026320524e-16
5.825259149e-17
-1.363739418e-16
-3.510190338e-16
-4.664243675e-16
-5.239975785e-16
-5.432936074e-16
-5.340911425e-16
-4.965273336e-16
-5.487681349e-16
-7.029759959e-16
-7.892811666e-16
-8.973017201e-16
-9.662147242e-16
-1.046641461e-15
-1.098770761e-15
-1.127672005e-15
-1.152832226e-15
-1.182993283e-15
-1.224496114e-15
-1.26975448e-15
-1.34212034e-15
-1.467980151e-15
-1.632324392e-15
-1.810471401e-15
-1.920342138e-15
-1.83722491e-15
-1.514831135e-15
-1.13406561e-15
-9.728028053e-16
-1.080738413e-15
-1.184410907e-15
-1.091293555e-15
-9.463601729e-16
-9.610195569e-16
-9.90598863e-16
-8.714366176e-16
-7.283243074e-16
-6.130684385e-16
-5.340980502e-16
-4.475657853e-16
-3.737215831e-16
-2.000116847e-16
4.654023985e-17
3.334804217e-16
6.481535617e-16
1.053368628e-15
1.721471167e-15
4.494641375e-15
1.183946053e-14
1.287394126e-13
2.356119988e-13
2.477598335e-13
2.581175032e-13
2.551951233e-13
)


101
(
9.05874851e-17
-8.129494793e-17
-1.153066914e-17
4.283068159e-17
-1.778063545e-17
-2.102157412e-16
-1.364610237e-17
-6.249418675e-17
-4.29550632e-17
-4.29678207e-17
1.02819801e-16
-3.199674221e-18
8.110541728e-16
1.419524009e-15
1.852362977e-15
2.632540197e-15
4.167355924e-15
3.550333165e-15
4.801617634e-15
5.098258128e-15
4.239764199e-15
4.340706047e-15
4.716947105e-15
4.595287417e-15
4.3006565e-15
4.087199496e-15
4.002318088e-15
3.966990506e-15
3.935513549e-15
3.86110527e-15
3.760218094e-15
3.889903983e-15
3.690350384e-15
2.993538538e-15
2.510873969e-15
2.319698877e-15
2.390083907e-15
2.532376739e-15
2.332685365e-15
1.662942494e-15
9.944630692e-16
7.102150933e-16
5.558844389e-16
5.530135903e-16
6.815566886e-16
7.475582204e-16
7.730275406e-16
6.629660383e-16
5.093324028e-16
3.057932271e-16
1.669021008e-16
7.92787881e-17
3.246310722e-17
6.378531828e-18
-3.517713137e-18
-3.501309103e-17
-1.626104075e-16
-2.312437331e-16
-3.235961765e-16
-3.667414522e-16
-4.124593216e-16
-4.401805376e-16
-4.514262815e-16
-4.56607974e-16
-4.550386381e-16
-4.536629487e-16
-4.536184176e-16
-4.708387128e-16
-5.375071851e-16
-6.418547813e-16
-7.623663076e-16
-8.000773888e-16
-6.290283092e-16
-2.106648673e-16
2.556040027e-16
4.935994007e-16
4.70723054e-16
4.606449585e-16
6.411315554e-16
8.623399722e-16
9.202864093e-16
9.829564662e-16
1.231757457e-15
1.523034347e-15
1.796351937e-15
2.038864483e-15
2.270135079e-15
2.465743426e-15
2.7801742e-15
3.20064081e-15
3.798851113e-15
4.463835886e-15
5.190338736e-15
6.382349315e-15
1.04343265e-14
2.030093572e-14
1.638193385e-13
2.948351241e-13
3.098025338e-13
3.225575862e-13
3.189051581e-13
)


101
(
8.244829783e-17
-7.120166698e-17
-8.210922262e-19
5.299224028e-17
-2.054351461e-18
-1.800633256e-16
7.310506293e-18
-7.777268444e-18
3.586686676e-17
7.687817033e-17
2.565858435e-16
2.391155498e-16
9.843559017e-16
1.65282362e-15
2.139256963e-15
2.872268831e-15
4.252397793e-15
4.092392373e-15
4.972824102e-15
5.580113781e-15
5.097284672e-15
5.113398378e-15
5.580684512e-15
5.705854379e-15
5.592727886e-15
5.463654353e-15
5.402491542e-15
5.37745416e-15
5.351617793e-15
5.279781491e-15
5.160718738e-15
5.152805104e-15
5.04141609e-15
4.469343683e-15
3.93238271e-15
3.569615158e-15
3.440602958e-15
3.467670155e-15
3.344621063e-15
2.857686039e-15
2.216987691e-15
1.813500731e-15
1.546789327e-15
1.438608092e-15
1.486862e-15
1.508284158e-15
1.528810078e-15
1.439726338e-15
1.317930224e-15
1.140684134e-15
1.008528742e-15
9.168415148e-16
8.677888386e-16
8.388100196e-16
8.15708e-16
7.918561984e-16
6.931912991e-16
6.542769844e-16
5.940283725e-16
5.933260643e-16
6.015397803e-16
6.306661083e-16
6.724354229e-16
7.158253084e-16
7.690455934e-16
8.32789424e-16
9.075938461e-16
9.761606954e-16
1.002969009e-15
9.946830462e-16
9.659878709e-16
1.029630659e-15
1.320220274e-15
1.877743999e-15
2.485862699e-15
2.856848798e-15
2.970230636e-15
3.104322878e-15
3.428835021e-15
3.787180267e-15
3.959171946e-15
4.147127923e-15
4.552227498e-15
5.035996694e-15
5.522423587e-15
6.01011105e-15
6.479182059e-15
6.898308953e-15
7.373120062e-15
8.02211232e-15
8.962931025e-15
1.007410059e-14
1.127984193e-14
1.306713159e-14
1.860177825e-14
3.120925256e-14
2.001140352e-13
3.539604783e-13
3.717767223e-13
3.869872014e-13
3.826431292e-13
)


101
(
7.464806812e-17
-2.80335474e-17
7.438501953e-17
6.269756249e-17
1.275494845e-17
-1.518492401e-16
2.643940403e-17
4.087182072e-17
1.064133614e-16
1.833820392e-16
3.934212473e-16
4.5409264e-16
1.147682075e-15
1.860522615e-15
2.402428918e-15
3.109570432e-15
4.362810932e-15
4.545191933e-15
5.21434085e-15
6.00012596e-15
5.853596678e-15
5.8840121e-15
6.409264309e-15
6.732316881e-15
6.810298849e-15
6.799814147e-15
6.795908338e-15
6.8016333e-15
6.798185892e-15
6.743022258e-15
6.626477015e-15
6.541446457e-15
6.451146435e-15
5.986221366e-15
5.464929954e-15
5.003158891e-15
4.712563099e-15
4.604972722e-15
4.472750973e-15
4.096437182e-15
3.531122615e-15
3.090434609e-15
2.742800322e-15
2.54683279e-15
2.519221336e-15
2.493318987e-15
2.496706016e-15
2.416392937e-15
2.317890928e-15
2.17086484e-15
2.059985493e-15
1.984306906e-15
1.954571577e-15
1.949380692e-15
1.948320501e-15
1.951423088e-15
1.889482467e-15
1.889776929e-15
1.881118474e-15
1.941107733e-15
2.023344772e-15
2.139053515e-15
2.269437738e-15
2.397102884e-15
2.528780316e-15
2.676247005e-15
2.849131559e-15
3.03426578e-15
3.191216142e-15
3.318375053e-15
3.425865639e-15
3.629544032e-15
4.071761651e-15
4.803012153e-15
5.601636313e-15
6.158899636e-15
6.457582334e-15
6.784775038e-15
7.320223257e-15
7.890582866e-15
8.246681206e-15
8.604612437e-15
9.204195383e-15
9.917480082e-15
1.066586011e-14
1.145032429e-14
1.223375076e-14
1.299035416e-14
1.372534391e-14
1.464053941e-14
1.593861084e-14
1.758995389e-14
1.942937608e-14
2.188910025e-14
2.914400102e-14
4.456224876e-14
2.37651187e-13
4.129911544e-13
4.334254228e-13
4.50902381e-13
4.459819272e-13
)


101
(
6.718144114e-17
-1.995181605e-17
8.240219126e-17
7.195905188e-17
2.669070575e-17
-1.254662309e-16
4.388455911e-17
8.397105228e-17
1.692559677e-16
2.775606395e-16
5.143821844e-16
6.435377468e-16
1.299218791e-15
2.044451063e-15
2.640912674e-15
3.3395249e-15
4.491858139e-15
4.929059961e-15
5.495553987e-15
6.385024648e-15
6.524826388e-15
6.634827269e-15
7.212463788e-15
7.695004225e-15
7.960154474e-15
8.093056839e-15
8.177764658e-15
8.237810042e-15
8.274684481e-15
8.250748628e-15
8.154198518e-15
8.035912316e-15
7.943026228e-15
7.558897038e-15
7.085057513e-15
6.585366283e-15
6.183438186e-15
5.950417471e-15
5.76436456e-15
5.436573115e-15
4.944140936e-15
4.515108459e-15
4.126181245e-15
3.866302972e-15
3.776483131e-15
3.70900577e-15
3.693601406e-15
3.618491215e-15
3.540098569e-15
3.422693193e-15
3.341688724e-15
3.298185037e-15
3.302968327e-15
3.340724898e-15
3.389358123e-15
3.443423735e-15
3.438673659e-15
3.499114874e-15
3.55960141e-15
3.698196842e-15
3.876284376e-15
4.10452429e-15
4.35637215e-15
4.607186446e-15
4.853883517e-15
5.112947045e-15
5.405431591e-15
5.733309716e-15
6.057174341e-15
6.364942849e-15
6.654006999e-15
7.036056708e-15
7.664063178e-15
8.602799476e-15
9.633104203e-15
1.042832708e-14
1.096567978e-14
1.153886908e-14
1.234566901e-14
1.320350469e-14
1.382569105e-14
1.441386656e-14
1.524561486e-14
1.621725443e-14
1.727776307e-14
1.84048583e-14
1.958630426e-14
2.076891209e-14
2.189233032e-14
2.312350499e-14
2.482142665e-14
2.707262662e-14
2.965723236e-14
3.289119837e-14
4.194940253e-14
6.037449958e-14
2.763175575e-13
4.716807502e-13
4.943070356e-13
5.136634707e-13
5.083626712e-13
)


101
(
6.004302847e-17
-4.262073143e-17
2.918095826e-17
1.819494776e-16
3.979245394e-17
-1.008153626e-16
5.97654648e-17
1.219697156e-16
2.249410404e-16
3.603945476e-16
6.205365226e-16
8.091802547e-16
1.437555917e-15
2.20583918e-15
2.853963964e-15
3.557602259e-15
4.632577516e-15
5.258508397e-15
5.793678154e-15
6.748361991e-15
7.12524399e-15
7.354361465e-15
7.994959298e-15
8.610645621e-15
9.052757059e-15
9.345511616e-15
9.545896876e-15
9.6838771e-15
9.779364154e-15
9.801642785e-15
9.740452175e-15
9.620383483e-15
9.521814931e-15
9.198399751e-15
8.781002084e-15
8.288482209e-15
7.828944733e-15
7.502313078e-15
7.24823184e-15
6.923421078e-15
6.481169535e-15
6.082882183e-15
5.685799727e-15
5.39211692e-15
5.260467935e-15
5.162777946e-15
5.13314054e-15
5.065260341e-15
5.007207957e-15
4.922305901e-15
4.880151209e-15
4.879387101e-15
4.932806356e-15
5.02955613e-15
5.146194109e-15
5.27643751e-15
5.354367661e-15
5.496449463e-15
5.645165862e-15
5.881651232e-15
6.174701425e-15
6.536192515e-15
6.939385023e-15
7.352355398e-15
7.756345378e-15
8.162650437e-15
8.6003092e-15
9.090214723e-15
9.605719116e-15
1.013319528e-14
1.065299871e-14
1.126261074e-14
1.211360985e-14
1.333114762e-14
1.458217096e-14
1.566584007e-14
1.649764444e-14
1.736327248e-14
1.84877106e-14
1.970047933e-14
2.067137431e-14
2.156636787e-14
2.266888375e-14
2.393185192e-14
2.534938893e-14
2.686985273e-14
2.850398865e-14
3.018093962e-14
3.181382507e-14
3.343027423e-14
3.559143502e-14
3.848136598e-14
4.188969163e-14
4.602999635e-14
5.700434175e-14
7.856573469e-14
3.157998793e-13
5.296222577e-13
5.53802425e-13
5.744392495e-13
5.686144443e-13
)


101
(
5.322745557e-17
-3.365711313e-17
3.848237106e-17
1.876173312e-16
5.209801293e-17
-7.780107061e-17
7.419645516e-17
1.552919881e-16
2.740036605e-16
4.32839877e-16
7.129841271e-16
9.527606314e-16
1.561825419e-15
2.34562833e-15
3.041142565e-15
3.760073145e-15
4.778469118e-15
5.54337597e-15
6.093335657e-15
7.094815173e-15
7.66702092e-15
8.037423742e-15
8.757812764e-15
9.491469386e-15
1.009917459e-14
1.055994428e-14
1.089668249e-14
1.113449241e-14
1.130773972e-14
1.139299249e-14
1.138332633e-14
1.128709377e-14
1.119155457e-14
1.091910396e-14
1.055967769e-14
1.010343635e-14
9.631178897e-15
9.245820949e-15
8.928849553e-15
8.586866128e-15
8.174459182e-15
7.809409293e-15
7.428000484e-15
7.125982702e-15
6.973333106e-15
6.861708697e-15
6.827970862e-15
6.771304225e-15
6.739505554e-15
6.69244214e-15
6.697089524e-15
6.749249565e-15
6.862844916e-15
7.029737968e-15
7.230583359e-15
7.461381983e-15
7.643244009e-15
7.890947059e-15
8.147092396e-15
8.498657252e-15
8.923519704e-15
9.435790611e-15
1.001241819e-14
1.061848699e-14
1.122179519e-14
1.181617047e-14
1.24293358e-14
1.309928044e-14
1.382467281e-14
1.460082685e-14
1.539311387e-14
1.627582989e-14
1.738976406e-14
1.887147057e-14
2.046185053e-14
2.182498273e-14
2.299115381e-14
2.419743735e-14
2.568272582e-14
2.728979801e-14
2.86740243e-14
2.995949576e-14
3.139013386e-14
3.296016038e-14
3.476986285e-14
3.673805652e-14
3.885038325e-14
4.106489761e-14
4.327945468e-14
4.541913068e-14
4.805774751e-14
5.157607887e-14
5.588995906e-14
6.106281833e-14
7.407084418e-14
9.882463128e-14
3.555573033e-13
5.861620861e-13
6.112565133e-13
6.332548681e-13
6.278545833e-13
)


101
(
4.672928331e-17
-2.497484234e-17
4.743785423e-17
9.717984453e-17
6.3640645e-17
-5.633773204e-17
8.727844112e-17
1.843332617e-16
3.169375017e-16
4.957491412e-16
7.927416161e-16
1.07596794e-15
1.671605546e-15
2.464905376e-15
3.202628858e-15
3.944113181e-15
4.923780926e-15
5.791406772e-15
6.383804523e-15
7.426395535e-15
8.160194206e-15
8.67920998e-15
9.495543962e-15
1.03399477e-14
1.11003952e-14
1.172873985e-14
1.221681555e-14
1.257616185e-14
1.284910159e-14
1.30171852e-14
1.30780763e-14
1.303135504e-14
1.295741199e-14
1.273706332e-14
1.243545402e-14
1.203123434e-14
1.157766503e-14
1.116835344e-14
1.080934404e-14
1.044700705e-14
1.005118064e-14
9.718149014e-15
9.367494699e-15
9.077319182e-15
8.922925536e-15
8.81064207e-15
8.782600393e-15
8.749112621e-15
8.752700394e-15
8.751140186e-15
8.808646117e-15
8.921455454e-15
9.105561794e-15
9.353660069e-15
9.6549534e-15
1.000103667e-14
1.030881443e-14
1.068414063e-14
1.106705036e-14
1.155153728e-14
1.212120405e-14
1.279542545e-14
1.355891477e-14
1.437876428e-14
1.521425865e-14
1.603853402e-14
1.686489185e-14
1.77364874e-14
1.868094014e-14
1.969061403e-14
2.077575139e-14
2.199892842e-14
2.342105142e-14
2.516382462e-14
2.710603644e-14
2.880542253e-14
3.03256689e-14
3.190985268e-14
3.378990929e-14
3.580710992e-14
3.764121594e-14
3.938458585e-14
4.120762729e-14
4.310345904e-14
4.53039375e-14
4.773890331e-14
5.035352514e-14
5.309802498e-14
5.595578922e-14
5.872360679e-14
6.182578273e-14
6.596435442e-14
7.125033654e-14
7.752106229e-14
9.260396866e-14
1.205528852e-13
3.948630583e-13
6.405025639e-13
6.65089859e-13
6.866093942e-13
6.813454279e-13
)


101
(
4.054302296e-17
9.810018917e-18
5.604881668e-17
1.047611936e-16
7.445161202e-17
-3.634430968e-17
9.910273177e-17
2.094583173e-16
3.542309479e-16
5.499512409e-16
8.607902205e-16
1.18048635e-15
1.766789865e-15
2.564752662e-15
3.338993591e-15
4.10738922e-15
5.063664157e-15
6.008378722e-15
6.65849206e-15
7.742485739e-15
8.610768011e-15
9.276321829e-15
1.019846871e-14
1.115082962e-14
1.205304199e-14
1.284558165e-14
1.349612982e-14
1.399761593e-14
1.439346735e-14
1.466648861e-14
1.481934051e-14
1.484845146e-14
1.482054152e-14
1.466250263e-14
1.442070347e-14
1.407719734e-14
1.366442937e-14
1.326120919e-14
1.288452382e-14
1.251321579e-14
1.21342737e-14
1.183230537e-14
1.151749959e-14
1.125323073e-14
1.111132688e-14
1.101319512e-14
1.100602547e-14
1.100474398e-14
1.105217456e-14
1.110865495e-14
1.122706459e-14
1.140739275e-14
1.166900531e-14
1.200815259e-14
1.241868602e-14
1.289000643e-14
1.334468705e-14
1.386678952e-14
1.439945036e-14
1.503131929e-14
1.575522354e-14
1.660038221e-14
1.7556926e-14
1.860005042e-14
1.968527487e-14
2.077149461e-14
2.184785734e-14
2.294839534e-14
2.411670525e-14
2.538014579e-14
2.676125933e-14
2.831048414e-14
3.007106715e-14
3.214396055e-14
3.437735729e-14
3.645599556e-14
3.828789922e-14
4.028765008e-14
4.257322188e-14
4.501161136e-14
4.724378452e-14
4.951350473e-14
5.178964285e-14
5.403473074e-14
5.656341038e-14
5.944441518e-14
6.258061358e-14
6.579076709e-14
6.93310914e-14
7.271994639e-14
7.628897813e-14
8.101513507e-14
8.731766896e-14
9.469069125e-14
1.118643438e-13
1.429252897e-13
4.324014934e-13
6.910087313e-13
7.138126158e-13
7.346381441e-13
7.307049191e-13
)


101
(
3.466317473e-17
1.661206727e-17
6.431681249e-17
1.119421458e-16
8.455999332e-17
-1.774413859e-17
1.097562667e-16
2.31009086e-16
3.863372966e-16
5.962244469e-16
9.180847371e-16
1.267929411e-15
1.847619303e-15
2.646248966e-15
3.451005128e-15
4.248312448e-15
5.194097501e-15
6.197865347e-15
6.913686987e-15
8.041111379e-15
9.023099973e-15
9.827806977e-15
1.08603459e-14
1.192209851e-14
1.296048111e-14
1.391421804e-14
1.473393724e-14
1.539361541e-14
1.593224708e-14
1.633117393e-14
1.659825646e-14
1.672914217e-14
1.677239469e-14
1.669242942e-14
1.651756755e-14
1.624230817e-14
1.588668928e-14
1.551500983e-14
1.515090453e-14
1.478939535e-14
1.443127158e-14
1.416178805e-14
1.389012292e-14
1.366590652e-14
1.355063298e-14
1.347712883e-14
1.349957165e-14
1.354274129e-14
1.364646426e-14
1.376759802e-14
1.395530238e-14
1.421249902e-14
1.455861289e-14
1.49922894e-14
1.551336419e-14
1.612092176e-14
1.673314769e-14
1.742276812e-14
1.812448873e-14
1.891713424e-14
1.980525225e-14
2.082524433e-14
2.197426423e-14
2.323613399e-14
2.457230632e-14
2.593692813e-14
2.729148747e-14
2.863344173e-14
3.002159645e-14
3.155925038e-14
3.321136974e-14
3.504859867e-14
3.714592112e-14
3.95611716e-14
4.213830751e-14
4.451723341e-14
4.670647804e-14
4.904222038e-14
5.170831406e-14
5.454786148e-14
5.719901339e-14
5.991782406e-14
6.265784805e-14
6.520616857e-14
6.799088198e-14
7.128483941e-14
7.48886248e-14
7.857317202e-14
8.262989486e-14
8.664885127e-14
9.071356776e-14
9.591111669e-14
1.031471005e-13
1.115662766e-13
1.308281217e-13
1.647857175e-13
4.669289986e-13
7.365151156e-13
7.563665803e-13
7.743326918e-13
7.713744913e-13
)


101
(
2.908419983e-17
-6.084918978e-19
1.238473929e-16
1.187287573e-16
9.399231572e-17
-4.663080923e-19
1.193230192e-16
2.493076158e-16
4.136652252e-16
6.352632034e-16
9.65597468e-16
1.339854383e-15
1.914598398e-15
2.710602762e-15
3.539780736e-15
4.366347028e-15
5.311455707e-15
6.361702238e-15
7.145009469e-15
8.317495703e-15
9.397163409e-15
1.033233743e-14
1.147951138e-14
1.265400291e-14
1.382543182e-14
1.493817865e-14
1.593098052e-14
1.675986104e-14
1.745668267e-14
1.80007053e-14
1.840473972e-14
1.866257998e-14
1.880111389e-14
1.881909589e-14
1.872450865e-14
1.852818576e-14
1.824508471e-14
1.79281767e-14
1.760308602e-14
1.72693468e-14
1.694601738e-14
1.671559868e-14
1.649433416e-14
1.631975785e-14
1.624516348e-14
1.621096018e-14
1.627242159e-14
1.636586819e-14
1.653239458e-14
1.672826602e-14
1.69956991e-14
1.733945377e-14
1.777547698e-14
1.830540637e-14
1.893913838e-14
1.968061604e-14
2.045367008e-14
2.132195483e-14
2.2204815e-14
2.317405611e-14
2.423439837e-14
2.542795423e-14
2.676198893e-14
2.822889292e-14
2.980146761e-14
3.14365682e-14
3.307809127e-14
3.470298873e-14
3.631931924e-14
3.805934691e-14
3.993165998e-14
4.200404079e-14
4.440868866e-14
4.713849115e-14
5.004853094e-14
5.27492892e-14
5.521746675e-14
5.777516285e-14
6.076184455e-14
6.395227552e-14
6.701536466e-14
7.000193183e-14
7.319191187e-14
7.609267943e-14
7.905445847e-14
8.252823794e-14
8.648508558e-14
9.058871815e-14
9.503557132e-14
9.961445148e-14
1.040858809e-13
1.096430727e-13
1.177278327e-13
1.270905192e-13
1.482505072e-13
1.851105232e-13
4.974994868e-13
7.757625248e-13
7.916444407e-13
8.036069921e-13
7.97962098e-13
)


101
(
2.380051565e-17
6.953521981e-18
1.296601875e-16
1.251267538e-16
1.027735186e-16
1.55565172e-17
1.278818244e-16
2.646540396e-16
4.366046018e-16
6.677175614e-16
1.004281602e-15
1.397746953e-15
1.968398603e-15
2.759105374e-15
3.606839637e-15
4.461591553e-15
5.412991169e-15
6.500320361e-15
7.348953144e-15
8.564778106e-15
9.730588674e-15
1.078908108e-14
1.205458687e-14
1.334588544e-14
1.46489101e-14
1.591871109e-14
1.708586949e-14
1.809137316e-14
1.896041848e-14
1.966832671e-14
2.023021226e-14
2.063729542e-14
2.089548212e-14
2.103381326e-14
2.103786335e-14
2.093601478e-14
2.074161105e-14
2.049985305e-14
2.023559432e-14
1.99527645e-14
1.967673973e-14
1.949063263e-14
1.932918041e-14
1.921827351e-14
1.919994469e-14
1.921530456e-14
1.932382241e-14
1.94774793e-14
1.971181896e-14
1.99872796e-14
2.034680267e-14
2.078653465e-14
2.131723058e-14
2.194804973e-14
2.268882764e-14
2.355359866e-14
2.447988304e-14
2.552246124e-14
2.659441398e-14
2.784986013e-14
2.898487333e-14
3.034507788e-14
3.184946064e-14
3.349792064e-14
3.527631441e-14
3.714919801e-14
3.905525859e-14
4.093438036e-14
4.279849498e-14
4.470840992e-14
4.674687988e-14
4.89944451e-14
5.160640705e-14
5.456796682e-14
5.773593761e-14
6.075422939e-14
6.343085769e-14
6.612388618e-14
6.925566742e-14
7.267641625e-14
7.594346514e-14
7.923722968e-14
8.270524156e-14
8.589995164e-14
8.893751723e-14
9.236511733e-14
9.652534756e-14
1.00934189e-13
1.056413133e-13
1.106122986e-13
1.153498352e-13
1.212211247e-13
1.298860444e-13
1.401122122e-13
1.629752607e-13
2.025333058e-13
5.224327023e-13
8.072939082e-13
8.191964476e-13
8.318479399e-13
8.304830449e-13
)


101
(
1.880650553e-17
3.549041742e-17
8.705859498e-17
1.311419023e-16
1.109277282e-16
3.038995087e-17
1.35508815e-16
2.773280386e-16
4.555077544e-16
6.941790004e-16
1.035003951e-15
1.443037411e-15
2.009876933e-15
2.793060445e-15
3.653817085e-15
4.534191002e-15
5.496855864e-15
6.614302423e-15
7.524450121e-15
8.780719007e-15
1.002445105e-14
1.119810494e-14
1.258334345e-14
1.399428738e-14
1.542799676e-14
1.685135386e-14
1.819223005e-14
1.938113818e-14
2.043702123e-14
2.132730685e-14
2.206447243e-14
2.263904781e-14
2.304077948e-14
2.332329796e-14
2.344878157e-14
2.346226177e-14
2.337621463e-14
2.322901553e-14
2.304395986e-14
2.282991386e-14
2.261335307e-14
2.248625865e-14
2.23934647e-14
2.235514501e-14
2.240454401e-14
2.248606313e-14
2.26574828e-14
2.287411463e-14
2.317920724e-14
2.354267849e-14
2.399876853e-14
2.45397167e-14
2.517471228e-14
2.590812209e-14
2.675037182e-14
2.772380551e-14
2.878310976e-14
2.99845242e-14
3.123741744e-14
3.268819756e-14
3.407772213e-14
3.549301722e-14
3.714108425e-14
3.893588521e-14
4.087168319e-14
4.292325501e-14
4.504254918e-14
4.71507754e-14
4.920725138e-14
5.126607002e-14
5.339194013e-14
5.573518614e-14
5.839554847e-14
6.145043276e-14
6.480495401e-14
6.804263917e-14
7.087726122e-14
7.35797684e-14
7.669043993e-14
8.011116981e-14
8.347248114e-14
8.698375974e-14
9.045866963e-14
9.379629151e-14
9.687926112e-14
1.001090497e-13
1.0419061e-13
1.088572467e-13
1.136323691e-13
1.187451245e-13
1.237022231e-13
1.297084906e-13
1.386586655e-13
1.496510465e-13
1.740524542e-13
2.15702412e-13
5.413072788e-13
8.315006134e-13
8.395230094e-13
8.472926739e-13
8.457821549e-13
)


101
(
1.409648306e-17
4.127503812e-17
9.394968559e-17
1.36778591e-16
2.346766188e-16
4.409232664e-17
1.422710671e-16
2.875842409e-16
4.706773975e-16
7.151325541e-16
1.058551811e-15
1.477108745e-15
2.039981347e-15
2.813705884e-15
3.682184714e-15
4.584382488e-15
5.561129913e-15
6.70385886e-15
7.670897785e-15
8.967081173e-15
1.028255902e-14
1.156342969e-14
1.306393599e-14
1.459498297e-14
1.615813276e-14
1.773141837e-14
1.924451021e-14
2.062219264e-14
2.187771975e-14
2.296674143e-14
2.389473593e-14
2.465370276e-14
2.522164512e-14
2.567215939e-14
2.594406431e-14
2.609626122e-14
2.613856732e-14
2.610335161e-14
2.6659318e-14
2.649808524e-14
2.575178824e-14
2.569430414e-14
2.567566703e-14
2.572061335e-14
2.585517917e-14
2.60189598e-14
2.626327481e-14
2.655126607e-14
2.693259013e-14
2.738382662e-14
2.793884344e-14
2.85844509e-14
2.932571375e-14
3.016352592e-14
3.110190422e-14
3.217051558e-14
3.333771957e-14
3.466299378e-14
3.606768818e-14
3.756888916e-14
3.923711282e-14
4.08646846e-14
4.251830831e-14
4.440759635e-14
4.643176871e-14
4.858621852e-14
5.08328329e-14
5.30828815e-14
5.526775115e-14
5.740764604e-14
5.957526971e-14
6.188713249e-14
6.446491205e-14
6.74588378e-14
7.080457239e-14
7.408974307e-14
7.701926956e-14
7.968361666e-14
8.254386545e-14
8.571490384e-14
8.907288558e-14
9.256342528e-14
9.597106918e-14
9.924882296e-14
1.023963572e-13