/*--------------------------------*- C++ -*----------------------------------*\
| =========                 |                                                 |
| \\      /  F ield         | OpenFOAM: The Open Source CFD Toolbox           |
|  \\    /   O peration     | Version:  2.3.1                                 |
|   \\  /    A nd           | Web:      www.OpenFOAM.org                      |
|    \\/     M anipulation  |                                                 |
\*---------------------------------------------------------------------------*/
FoamFile
{
    version     2.0;
    format      ascii;
    class       dictionary;
    location    "constant";
    object      PM40;
}
// * * * * * * * * * * * * * * * * * * * * * * * * * * * * * * * * * * * * * //

PM40_table
101
(

101
(
-0.001745373351
-0.005328558656
-0.009648099652
-0.01550015884
-0.02183933009
-0.02820233421
-0.03464088492
-0.04234841061
-0.05079405951
-0.0607777361
-0.0727241588
-0.08741261087
-0.1046971935
-0.1263225269
-0.1502734524
-0.1757503355
-0.2018069924
-0.2271200177
-0.2460041252
-0.2635373408
-0.2725886364
-0.2759729828
-0.274925973
-0.2687699634
-0.2590000224
-0.2467505698
-0.2329170207
-0.2183051577
-0.2032209429
-0.1883338069
-0.1738018946
-0.1600116045
-0.1476961127
-0.1337389692
-0.1219254265
-0.1108195317
-0.1005719587
-0.09135075427
-0.08232566895
-0.07339247105
-0.06512189504
-0.05816007982
-0.05117035327
-0.04469915838
-0.03898970399
-0.03336408487
-0.0283021512
-0.02336095357
-0.01886943719
-0.01453736193
-0.01061451671
-0.006911454381
-0.003449861877
-0.000238271665
0.002722399932
0.005471600387
0.008238267738
0.01056478542
0.01290414976
0.01499195809
0.01699680469
0.01883095422
0.02052350034
0.02211650045
0.02358612929
0.02495955683
0.02621619205
0.02737362026
0.02847099876
0.02945684105
0.03037157674
0.03121555739
0.03202133982
0.03273147174
0.03337335826
0.03390995361
0.03442008535
0.03488104193
0.03528318636
0.03563397807
0.0359381229
0.03622751475
0.03646519198
0.03668447035
0.03683512525
0.03695363413
0.0370559393
0.03713794169
0.0372056473
0.03726919966
0.03727572947
0.03727844269
0.03728933234
0.03727217508
0.03725632883
0.03717458353
0.03706106935
0.03814109428
0.03918384365
0.04034132594
0.04143896823
)


101
(
-0.001745373354
-0.005230001349
-0.009514063377
-0.0153102405
-0.02158245238
-0.02787059516
-0.03421919491
-0.04178915871
-0.05007770209
-0.05984153035
-0.07150332976
-0.08582077028
-0.1026895881
-0.1237679031
-0.1472564177
-0.1723376213
-0.1981029293
-0.2232842011
-0.2425919192
-0.2602581129
-0.2701414125
-0.2742576049
-0.2738840267
-0.268516585
-0.2594270791
-0.2477406915
-0.2343591352
-0.2200825988
-0.2052778736
-0.1905591372
-0.1761486004
-0.1624022299
-0.1499749066
-0.1364173499
-0.1244280676
-0.11325762
-0.1029255369
-0.0935707969
-0.08455847843
-0.07569589961
-0.06738824377
-0.0602083672
-0.05322582094
-0.04669954604
-0.04085291754
-0.03521332575
-0.03005943404
-0.02510169447
-0.02053563391
-0.01617655837
-0.01217709531
-0.008422724329
-0.004908825118
-0.001638710852
0.00138624882
0.004194454326
0.006959078022
0.00938494175
0.01174262871
0.01389125004
0.01592903762
0.01781115567
0.0195516153
0.02118239891
0.02269376414
0.02410414589
0.02540283816
0.02660066622
0.02772731982
0.02875380584
0.02970249574
0.03057767519
0.03140380246
0.03214817179
0.03282485603
0.03340999529
0.03395052322
0.03443883552
0.0348705905
0.0352515083
0.0355855138
0.03589400912
0.03615767901
0.0363973887
0.03658332828
0.03673000059
0.03685256261
0.03695362824
0.0370379992
0.03711234582
0.03715060759
0.03716866166
0.03718654418
0.03718823146
0.03717976708
0.03712136058
0.03702593418
0.03810612029
0.03914871653
0.04030384734
0.04139915512
)


101
(
-0.001745373354
-0.005034426582
-0.009247957446
-0.01493310122
-0.0210725678
-0.02721274137
-0.03338428554
-0.04068409312
-0.0486637942
-0.05799692462
-0.06909968419
-0.08268635128
-0.09872970884
-0.1187215194
-0.1412673952
-0.1655331076
-0.1906794384
-0.2155475297
-0.2356019818
-0.2535465888
-0.2649730423
-0.2705598722
-0.2715402726
-0.2677362463
-0.2600402512
-0.2495210271
-0.237085871
-0.2235253371
-0.2093084355
-0.194967861
-0.1808232652
-0.1671934924
-0.1545986297
-0.1416890134
-0.1295152241
-0.1182184462
-0.1077244778
-0.09812017106
-0.0890799476
-0.08032306274
-0.07197552939
-0.064440495
-0.0574029384
-0.05077412755
-0.04468965657
-0.03897896738
-0.03366173239
-0.02864261071
-0.02394387829
-0.01951324881
-0.01537757214
-0.01151435713
-0.007894577223
-0.00450990041
-0.001359555344
0.001568870553
0.004361743312
0.006947208722
0.009369661647
0.01162906532
0.01374395389
0.01571876446
0.01755396116
0.01926563118
0.02086092101
0.02234861292
0.02373043391
0.02500988515
0.02620200542
0.02730656356
0.02832648443
0.02926833324
0.03014477386
0.03095394294
0.03169715656
0.03236841887
0.0329762276
0.03352565366
0.03401914184
0.03446063088
0.03485444578
0.03520874451
0.03552417274
0.03580748141
0.0360552461
0.03626086526
0.03643133553
0.03657408332
0.036696227
0.03679958035
0.03688827365
0.03694702118
0.03698850022
0.03702320513
0.03704229651
0.0370246445
0.03696823916
0.03804964154
0.03909309311
0.04024689901
0.04134080549
)


101
(
-0.001745373354
-0.004841822297
-0.008985607923
-0.01456123
-0.02057048031
-0.02656662132
-0.03256753263
-0.0396086582
-0.04729250579
-0.05621664974
-0.06678671078
-0.07967441431
-0.09491663371
-0.1138569499
-0.1354453279
-0.1588682267
-0.1833467658
-0.2078256642
-0.2284223213
-0.2466784065
-0.2593960936
-0.2664238148
-0.2687604024
-0.2664640034
-0.2601865855
-0.2508877514
-0.239460473
-0.2266870707
-0.2131039239
-0.1992101409
-0.1853741886
-0.1719123516
-0.159256089
-0.1467275721
-0.1346141199
-0.1232258657
-0.1126031218
-0.1027922348
-0.09364188504
-0.08491007444
-0.07656040613
-0.0688189738
-0.061641131
-0.05490923209
-0.0486511469
-0.04281338797
-0.03735976018
-0.03223930198
-0.02742935657
-0.02290364835
-0.018656405
-0.01468055015
-0.01095435128
-0.007461481954
-0.004195301772
-0.001148585128
0.001721077435
0.004413080559
0.006931713316
0.009288518604
0.01149397445
0.01355773687
0.01548413111
0.01728215164
0.0189611717
0.02052959629
0.02199234058
0.02335285553
0.02461926579
0.02579771822
0.02689136684
0.02790464688
0.02884507768
0.02971689835
0.03052304669
0.03126402984
0.03194271671
0.03256023022
0.0331194539
0.03362359744
0.03407778754
0.03448769979
0.03485653715
0.0351888636
0.03548811482
0.03575140171
0.03597865993
0.03617113251
0.03633770406
0.03648069826
0.03660849866
0.03671400153
0.0367964978
0.0368635166
0.03692163128
0.03694222424
0.03692566566
0.0380103234
0.03905689905
0.04021354976
0.04131040439
)


101
(
-0.001745373194
-0.004652196378
-0.00872699951
-0.0141945662
-0.02007602456
-0.02593189506
-0.03176828725
-0.03856169256
-0.04596211715
-0.0544980293
-0.06456119029
-0.07678165444
-0.09124867645
-0.1091735579
-0.1297967483
-0.1523534368
-0.1761201565
-0.2001388944
-0.2210917853
-0.239653611
-0.2534550598
-0.2618530985
-0.2655365979
-0.2647010922
-0.2598487849
-0.2518137007
-0.24145161
-0.2295327947
-0.2166368109
-0.2032542026
-0.1897783384
-0.1765354962
-0.1639032632
-0.1516141682
-0.1396489194
-0.1282482976
-0.1175380803
-0.1075639002
-0.09827403125
-0.08950044689
-0.08113872448
-0.07327672882
-0.06595729752
-0.05910857038
-0.05270799308
-0.04673356522
-0.04114665359
-0.03591023268
-0.030989664
-0.02636104546
-0.02200742646
-0.01792150086
-0.01408786125
-0.01048927515
-0.007114029987
-0.003954528623
-0.0009889436912
0.001800266712
0.004416751742
0.006870751629
0.00917052995
0.01132573994
0.01334287904
0.01522911348
0.0169931669
0.01864388904
0.02018786628
0.02162942798
0.02297395568
0.02422773978
0.02539545883
0.02648170206
0.02749197078
0.02843102626
0.02930260993
0.03010935189
0.03085491914
0.03154048268
0.03216792394
0.03273853008
0.03325614182
0.03372563628
0.03415179572
0.03453837235
0.03488971418
0.03520657039
0.03549093209
0.03573930418
0.03595675588
0.03614545915
0.03631681305
0.03646591312
0.03659613384
0.03670476853
0.0368020871
0.03686644289
0.03689134109
0.03798058641
0.0390310608
0.04018714343
0.04128341348
)


101
(
-0.001745373355
-0.004465563777
-0.008472120446
-0.0138330593
-0.01958905967
-0.02530825261
-0.03098594001
-0.03754209547
-0.04467097995
-0.05283846669
-0.06241989569
-0.07400459567
-0.08772375706
-0.1046702219
-0.1243271925
-0.1459987347
-0.1690145933
-0.1925076591
-0.2136481502
-0.232479994
-0.2471890385
-0.256860665
-0.2618654853
-0.2624484761
-0.2590150713
-0.2522758435
-0.2430303047
-0.2320292181
-0.2198775159
-0.2070688342
-0.1940103112
-0.181039633
-0.168504207
-0.1563885437
-0.1445911592
-0.1332524295
-0.122501293
-0.1124097873
-0.1029837299
-0.09412642936
-0.0857253754
-0.07778073058
-0.07034144398
-0.06337429132
-0.05684543109
-0.05073854765
-0.04502013577
-0.03966171724
-0.03462729894
-0.0298918108
-0.02543211937
-0.02123775691
-0.01729608806
-0.01359159717
-0.01011031037
-0.006842683231
-0.003775557128
-0.0008886124588
0.00182478763
0.004375561329
0.006770962414
0.009019874563
0.01112929505
0.01310568624
0.01495675206
0.01669130671
0.01831730233
0.01984040669
0.02126517589
0.02259692213
0.02384030968
0.02500062715
0.02608299891
0.02709236333
0.02803273784
0.02890701128
0.0297189377
0.03047114498
0.03116651617
0.03180528744
0.03238958143
0.03292241062
0.03340908161
0.03385388709
0.03426090055
0.03463204431
0.03497204525
0.035277957
0.03555182831
0.03579179039
0.03601163782
0.03620742287
0.0363847337
0.03654198929
0.03668227158
0.03679436123
0.03686591863
0.03795619538
0.03900726217
0.04016033833
0.04125408479
)


101
(
-0.001745373354
-0.004281924375
-0.00822095583
-0.01347665446
-0.01910944055
-0.02469537989
-0.03021987971
-0.03654877216
-0.04341747366
-0.05123540059
-0.06035953795
-0.07133960856
-0.08433931979
-0.1003452989
-0.1190412601
-0.1398134595
-0.1620448704
-0.1849526341
-0.2061288037
-0.2251724182
-0.2406344785
-0.2514671593
-0.2577498712
-0.2597089095
-0.2576785102
-0.2522559915
-0.2441711668
-0.2341456748
-0.2227957218
-0.210622291
-0.198041818
-0.1854001515
-0.1730286004
-0.1610666615
-0.1494314826
-0.1381953424
-0.1274588865
-0.1172999581
-0.1077609165
-0.09880375949
-0.09033805108
-0.0823204574
-0.07478055521
-0.06770228801
-0.06105469851
-0.05482258186
-0.04897627406
-0.04349413288
-0.03834310519
-0.03349819108
-0.02893226244
-0.02463069489
-0.02058089916
-0.01676942771
-0.0131822876
-0.009808378728
-0.006638140081
-0.003652237143
-0.0008421071506
0.001804686323
0.004295621741
0.006639265265
0.008842547527
0.01091125162
0.01285190563
0.01467249146
0.01638171226
0.01798680767
0.01949294645
0.02090491622
0.02222642376
0.02346280007
0.02461907259
0.02570054372
0.02671180894
0.02765610525
0.02853659487
0.02935596914
0.03011862219
0.03082576924
0.03147844568
0.0320780899
0.03262862448
0.03313511901
0.03360151685
0.03402994763
0.03442614211
0.03478995036
0.03512212353
0.03541867511
0.03569067527
0.03593758551
0.0361646181
0.03637328187
0.03656159616
0.03672371556
0.0368442482
0.03793217188
0.03898058916
0.0401264023
0.04121448264
)


101
(
-0.001745373354
-0.004101290118
-0.007973497408
-0.01312530629
-0.01863703823
-0.02409298711
-0.02946952695
-0.03558066538
-0.04220003885
-0.04968632754
-0.05837680393
-0.06878284467
-0.08109236881
-0.09619649983
-0.1139424815
-0.1338060859
-0.1552248974
-0.1774940215
-0.1985696283
-0.2177513494
-0.233826137
-0.2456977035
-0.2531981146
-0.2564868522
-0.2558352206
-0.2517393228
-0.244851277
-0.2358534268
-0.2253609477
-0.2138820948
-0.2018406363
-0.1895883457
-0.1774468682
-0.1656496886
-0.154170324
-0.1430570195
-0.1323784965
-0.1222017444
-0.1125855578
-0.1035339124
-0.094988989
-0.0868960448
-0.07926614307
-0.07208570954
-0.06532817033
-0.0589791193
-0.05301049847
-0.04740569723
-0.0421360992
-0.03717910294
-0.03250657371
-0.02809959624
-0.02394297002
-0.02002419253
-0.01633051183
-0.01285035555
-0.009575676026
-0.006489134528
-0.003581513835
-0.0008390847387
0.001746691313
0.004184962285
0.006482710515
0.008645410397
0.01067827422
0.01258781815
0.01438229756
0.01607018294
0.01765819272
0.0191517031
0.02055369378
0.02186864989
0.02310111244
0.024256456
0.0253400485
0.02635597067
0.02730731122
0.02819586238
0.0290266232
0.02980236971
0.03052444825
0.03119296107
0.03181029218
0.03238132978
0.0329104342
0.03339969442
0.03385416143
0.03427712293
0.03466860736
0.03502527372
0.03535300714
0.03565413741
0.03593500446
0.03619683292
0.03643798077
0.03665139156
0.0368239647
0.03790678454
0.03894898491
0.04007375942
0.04114275237
)


101
(
-0.00174537303
-0.003923676763
-0.007729734195
-0.01277896908
-0.01817172614
-0.02350079749
-0.02873433504
-0.03463677128
-0.04101717226
-0.04818880634
-0.05646839734
-0.0663303224
-0.07797953602
-0.09222089924
-0.1090331374
-0.1279840369
-0.1485674662
-0.1701511026
-0.1910047025
-0.2102407672
-0.2267979814
-0.239580991
-0.2482234304
-0.2527885546
-0.2534833168
-0.2507130373
-0.2450488864
-0.237124539
-0.2275426589
-0.216815629
-0.205373533
-0.1935724681
-0.1817274136
-0.1701273356
-0.1588079858
-0.1478272975
-0.1372357629
-0.1270840305
-0.1174312994
-0.1083061084
-0.09968142431
-0.09150994336
-0.08379450787
-0.07651877583
-0.06965852864
-0.06320051873
-0.0571166665
-0.05139297613
-0.04600493104
-0.04093348171
-0.03615219172
-0.03164041385
-0.02737961185
-0.0233552002
-0.01955516922
-0.01596875076
-0.0125885172
-0.009398998619
-0.006392000908
-0.003553244179
-0.0008729496504
0.001659180391
0.004050841365
0.006307971605
0.008435011601
0.01043667687
0.01231950574
0.01409204367
0.01576244818
0.01733789135
0.01882179713
0.02021765999
0.02152898091
0.02276052277
0.02391803141
0.02500667102
0.0260304389
0.02699046127
0.02789105515
0.0287359872
0.02952829787
0.0302673541
0.03095376069
0.0315914014
0.03218563033
0.03273895602
0.03325479894
0.03373851363
0.03419129242
0.0346095074
0.03499700421
0.03535465569
0.0356925465
0.03600987343
0.03630713156
0.03657446803
0.03680083586
0.03787036799
0.03889795735
0.03998361941
0.04101198711
)


101
(
-0.001745373032
-0.003749091855
-0.007489663448
-0.01243760957
-0.01771339604
-0.0229185628
-0.02801381221
-0.03371617732
-0.03986745323
-0.04674048496
-0.05463106513
-0.06397802255
-0.07499720443
-0.08841522411
-0.1043145522
-0.1223537871
-0.1420845267
-0.1629423603
-0.1834669858
-0.2026680796
-0.2195845484
-0.233149062
-0.2428439177
-0.2486234883
-0.2506239765
-0.2491675307
-0.2447447037
-0.2379328587
-0.2293111258
-0.2193905701
-0.2086064092
-0.1973186223
-0.1858370637
-0.1744805247
-0.1633398075
-0.1525007604
-0.1420141955
-0.1319197914
-0.1222695122
-0.1131009833
-0.1044090213
-0.09616131853
-0.08836327189
-0.08099693216
-0.07403951088
-0.06747924393
-0.06128747063
-0.05545038501
-0.04994649496
-0.04476027656
-0.03986791148
-0.03524972148
-0.03088575357
-0.0267585429
-0.02285431179
-0.01916253688
-0.01567648832
-0.01238229111
-0.009273606732
-0.006336647743
-0.003561114972
-0.0009355537857
0.001548979888
0.003899622462
0.006121213773
0.008217334082
0.010192034
0.01205230602
0.01380666037
0.01546420007
0.0170302289
0.01850840462
0.01990097844
0.02121142108
0.02244502998
0.02360778858
0.02470486269
0.02573790274
0.02671042924
0.02762563223
0.02848831049
0.0292991612
0.03005678841
0.0307631857
0.03142388373
0.03204363925
0.03262420997
0.03316980953
0.0336858878
0.03416707819
0.03461766931
0.03503411068
0.03543061899
0.03580650606
0.03616180113
0.03648612238
0.03676699589
0.03780778615
0.03880621143
0.03982929732
0.04081077378
)


101
(
-0.001745372702
-0.003577550376
-0.007253282033
-0.01210119469
-0.01726194291
-0.02234604182
-0.02730748288
-0.03281800493
-0.03874951107
-0.0453390713
-0.05286156319
-0.06172181815
-0.07214136666
-0.08477569979
-0.0997869817
-0.1169205396
-0.1357867543
-0.1558851803
-0.1759871277
-0.1950629291
-0.2122210082
-0.2264364032
-0.2370825122
-0.2440050044
-0.2472620596
-0.247097468
-0.2439232965
-0.238255107
-0.2306383129
-0.2215755581
-0.2115049421
-0.2007904734
-0.1897385288
-0.1786813388
-0.1677517312
-0.1570699484
-0.1467021861
-0.1366883191
-0.1270737098
-0.1178946609
-0.1091575032
-0.1008439714
-0.09296808129
-0.08551552143
-0.07846533928
-0.0718078955
-0.06551498722
-0.05957152866
-0.05395607916
-0.04865662885
-0.04365240609
-0.03892611906
-0.03445797422
-0.03022928141
-0.02622378427
-0.02242894525
-0.01883856333
-0.01543920819
-0.01222706643
-0.009189668626
-0.006317150427
-0.003597574551
-0.001020796743
0.00142180444
0.003736597805
0.005927449753
0.007996663341
0.009948312844
0.01178959101
0.0135304085
0.01517831104
0.0167387739
0.01821385912
0.01960560286
0.02091794469
0.02215673616
0.02332783484
0.02443426184
0.02548024042
0.02646743847
0.02740047848
0.0282830848
0.02911356966
0.02989110458
0.0306195534
0.03130632549
0.03195431355
0.03256347736
0.03314271808
0.03368905724
0.034204488
0.03468172068
0.03513790558
0.0355748497
0.03598922459
0.03637196607
0.03670762665
0.03769895433
0.03864631332
0.03956646201
0.04045101719
)


101
(
-0.001745369266
-0.003409069159
-0.007020581821
-0.01176968397
-0.01681725467
-0.02178298961
-0.02661487342
-0.03194138365
-0.03766201178
-0.04398235397
-0.05115669518
-0.05955749782
-0.06940763835
-0.08129785054
-0.09544941005
-0.1116880454
-0.1296832354
-0.1489950535
-0.1685935229
-0.187455057
-0.204742514
-0.2194802075
-0.2309679927
-0.2389522004
-0.2434086125
-0.2445044634
-0.2425754552
-0.2380725268
-0.2314989989
-0.2233411771
-0.2140360401
-0.2039514397
-0.1933922396
-0.1826947421
-0.1720205904
-0.1615220634
-0.1512893208
-0.1413734611
-0.1318200306
-0.1226614261
-0.1139064077
-0.1055452213
-0.09760130431
-0.09006875787
-0.08293071806
-0.07618040186
-0.06979137039
-0.06374812217
-0.05802765997
-0.05261882249
-0.04750372704
-0.04266831926
-0.03809465553
-0.03376409056
-0.02965873054
-0.02576392682
-0.0220719922
-0.01856902727
-0.01525293882
-0.01211334143
-0.009141816453
-0.006326725603
-0.003657388259
-0.001123975116
0.001281879472
0.003565624304
0.005729637265
0.007775411591
0.009707220009
0.01153376044
0.0132639746
0.01490587782
0.01646323003
0.01793744606
0.0193307844
0.02064767408
0.02189407882
0.02307392327
0.0241930389
0.02525320197
0.02625732617
0.02721050106
0.02811370772
0.02896434184
0.02976243275
0.03051528075
0.03123136902
0.031906423
0.03254820481
0.03315983629
0.03374094607
0.03428004735
0.03479655563
0.03529534192
0.03576966148
0.03621040925
0.03659900206
0.03750810374
0.03837161205
0.03914260527
0.0398858587
)


101
(
-0.001745366812
-0.003243660799
-0.006791565714
-0.01144305387
-0.01637924539
-0.02122919883
-0.02593556669
-0.03108552426
-0.03660371179
-0.04266824623
-0.04951341245
-0.05748089912
-0.06679151595
-0.07797684036
-0.091299887
-0.1066590042
-0.1237817837
-0.1422858392
-0.1613122717
-0.1798746892
-0.1971848815
-0.2123195796
-0.224534468
-0.2334898949
-0.2390794974
-0.2413947048
-0.2406965073
-0.2373701213
-0.2318705446
-0.2246598974
-0.2161684865
-0.2067663513
-0.1967588519
-0.1864821308
-0.1761161772
-0.1658379172
-0.1557631267
-0.1459618999
-0.1364893496
-0.1273770743
-0.1186321152
-0.1102472069
-0.1022518159
-0.09464889063
-0.0874296192
-0.08059144076
-0.07411046386
-0.06797258655
-0.06215355063
-0.05664102722
-0.05141882235
-0.04647521009
-0.04179491787
-0.03736135366
-0.03315630395
-0.0291635966
-0.02537302759
-0.02176966026
-0.01835096965
-0.01510876905
-0.01203679308
-0.009124342829
-0.006361155156
-0.003736996527
-0.001242017398
0.001131696559
0.003388223191
0.005528320598
0.007553178839
0.009468482816
0.01128266469
0.01300543237
0.01464335981
0.01619915204
0.0176743038
0.01907124501
0.02039450531
0.02164795691
0.02283903927
0.02397128055
0.02504681192
0.02606916446
0.02704274249
0.02796634811
0.0288356354
0.02965390766
0.03043599734
0.031177809
0.03188287657
0.03255640086
0.0332031618
0.03380436337
0.03438165034
0.03494034378
0.035474745
0.03597165514
0.03641031547
0.0371940102
0.03793045026
0.03851059718
0.03906502866
)


101
(
-0.00174536616
-0.003081342845
-0.006566231764
-0.0111212749
-0.01594782304
-0.02068445719
-0.02526914431
-0.0302496509
-0.03557341064
-0.04139472074
-0.04792871445
-0.05548785309
-0.06428823244
-0.07480738144
-0.08733545698
-0.1018347275
-0.1180886716
-0.1357699507
-0.1541667564
-0.1723512483
-0.1895834925
-0.2049939202
-0.2178181906
-0.2276459343
-0.2342927077
-0.2377758395
-0.2382836048
-0.2361351576
-0.2317325814
-0.2255061631
-0.2178729535
-0.2092024512
-0.1998017104
-0.1900049047
-0.1800038026
-0.16999187
-0.1601070411
-0.1504411107
-0.1410657875
-0.1320203103
-0.1233111322
-0.1149287843
-0.1069038835
-0.09924510338
-0.09195367922
-0.08503422885
-0.07846620541
-0.07223823057
-0.06632630837
-0.06071637979
-0.05539211538
-0.05034370917
-0.04555783834
-0.04102041254
-0.03671529499
-0.03262532396
-0.02873852356
-0.0250378836
-0.02151974367
-0.0181764595
-0.01500382278
-0.01199290331
-0.009134394053
-0.006418584926
-0.003835236289
-0.001374366215
0.0009708497793
0.003202564109
0.005320317969
0.007326443126
0.009226653484
0.01103059146
0.01274697009
0.01438132726
0.01593652063
0.01741396168
0.0188152043
0.02014271124
0.02140430407
0.0226059987
0.02375156793
0.02484205999
0.02588226708
0.02687513494
0.02781569322
0.02869953889
0.02954328853
0.03034978773
0.03111787281
0.03184918359
0.03255919456
0.03322055409
0.0338585452
0.03447463834
0.03506703392
0.03561624128
0.03610346794
0.03672075881
0.03728677352
0.03764251386
0.03789970109
)


101
(
-0.00174536551
-0.002922139811
-0.006344584802
-0.01080432949
-0.01552291451
-0.02014858104
-0.02461522398
-0.02943304201
-0.03457001022
-0.04015990354
-0.04639970001
-0.0535742951
-0.06189293554
-0.07178383727
-0.08355228421
-0.0972151276
-0.1126089073
-0.1294584409
-0.1471791179
-0.1649143253
-0.1819743297
-0.1975437081
-0.2108571348
-0.2214514439
-0.2290707341
-0.2336602923
-0.2353384013
-0.2343588851
-0.2310678577
-0.2258567838
-0.2191219923
-0.2112285941
-0.2024859926
-0.1932251467
-0.1836459698
-0.1739521183
-0.1642979474
-0.1547952993
-0.145535471
-0.1365739979
-0.1279214792
-0.1195671012
-0.1115378493
-0.1038435025
-0.09649268456
-0.08950024091
-0.08285175828
-0.07653843132
-0.07053864484
-0.06483781809
-0.05941756999
-0.05426865506
-0.0493803468
-0.04474017871
-0.04033437935
-0.03614754181
-0.03216634955
-0.02837130969
-0.02475746505
-0.02131603484
-0.01804418192
-0.01493515388
-0.01198083396
-0.009172509173
-0.006500444612
-0.003954097345
-0.001524120615
0.0007944359832
0.003001712589
0.0050980855
0.00708546795
0.008971301806
0.01076468836
0.01247346461
0.01410380467
0.01565882871
0.01713788251
0.01853988593
0.01987008792
0.02113758412
0.02234921198
0.02350557357
0.02460914619
0.02566496644
0.02667240661
0.02762171509
0.02852333097
0.02938917715
0.0302182442
0.03100418794
0.03177288641
0.03249150845
0.03318479688
0.03385632407
0.03450261385
0.03510003198
0.03563192543
0.03604141491
0.03639767665
0.03652621953
0.03665534986
)


101
(
-0.001745366809
-0.002766072644
-0.006126635465
-0.01049221002
-0.01510446337
-0.01962141189
-0.02397346024
-0.02863503098
-0.03359249043
-0.03896204952
-0.04492359611
-0.05173628288
-0.05960076656
-0.06890033596
-0.0799457156
-0.09279886995
-0.1073459893
-0.1233608319
-0.1403690035
-0.1575928051
-0.1743933897
-0.1900102419
-0.2036920508
-0.2149415659
-0.2234408901
-0.2290660696
-0.2318683613
-0.2320376007
-0.2298622838
-0.2256901705
-0.2198897986
-0.2128158315
-0.2047784662
-0.196105777
-0.1870038911
-0.1776821881
-0.1683060272
-0.1590030185
-0.1498833773
-0.1410227231
-0.1324442635
-0.1241400198
-0.1161318113
-0.1084262169
-0.1010342467
-0.09398015967
-0.08725909369
-0.08086651108
-0.0747837414
-0.0689974897
-0.06348782761
-0.05824441968
-0.05325793513
-0.04851776234
-0.04401235167
-0.03972886813
-0.03565477157
-0.03176852808
-0.02806280795
-0.02452725376
-0.02115924382
-0.01795393472
-0.01490478231
-0.01200426764
-0.009243419323
-0.006612489104
-0.004100855276
-0.001700684171
0.0005905152153
0.002773129509
0.004846228377
0.006813961502
0.008683503179
0.01046312355
0.01216197516
0.01378752729
0.01534091203
0.0168158764
0.01821394181
0.01954312586
0.02081380658
0.02203101042
0.02319495183
0.02430734093
0.02537424659
0.02638561714
0.02734296089
0.02826067115
0.02914711855
0.02998522223
0.03080440514
0.03157971228
0.03231939833
0.03304241241
0.03373885043
0.03437655775
0.03493831608
0.03512028186
0.0352482645
0.03516443758
0.0351088915
)


101
(
-0.001745366809
-0.002613155963
-0.005912424446
-0.01018487868
-0.01469237211
-0.01910274043
-0.0233434517
-0.02785489711
-0.03263979749
-0.03779940595
-0.04349763997
-0.04996981449
-0.05740664974
-0.06615061495
-0.07651018725
-0.08858338048
-0.1023014478
-0.117484253
-0.133752419
-0.1504113364
-0.1668732045
-0.1824335133
-0.1963652701
-0.2081551016
-0.2174350827
-0.2240168652
-0.2278870259
-0.2291731652
-0.2281060086
-0.2249870092
-0.2201516258
-0.2139367262
-0.2066483962
-0.1986118323
-0.1900393756
-0.1811432732
-0.1720959403
-0.1630363908
-0.15409002
-0.1453515403
-0.1368636869
-0.1286267978
-0.120662566
-0.1129717024
-0.1055621229
-0.09846261055
-0.0916787527
-0.08521455218
-0.07905480769
-0.07318832251
-0.06759540049
-0.06226427281
-0.05718528687
-0.05234932676
-0.04774704374
-0.04336816847
-0.03920219185
-0.03522749113
-0.03143431812
-0.02780991662
-0.02435053559
-0.021052358
-0.01791102988
-0.01492026988
-0.01207205932
-0.009357921549
-0.006767096575
-0.004290216543
-0.001921662739
0.0003402181195
0.002494147681
0.00454160025
0.006486034248
0.008334290599
0.01009601288
0.01178255435
0.0134005282
0.01494436277
0.01640914651
0.01779682349
0.01911943593
0.02039043087
0.02160861259
0.02277267622
0.02389122034
0.02495854449
0.02597035155
0.0269335751
0.02787117163
0.02875912521
0.02961936278
0.03044966082
0.03123203308
0.03199865348
0.03274349763
0.03341229489
0.03399160055
0.03395334418
0.03386343953
0.03360118352
0.03325621279
)


101
(
-0.00174536551
-0.0024634132
-0.005701911264
-0.009882322048
-0.01428658006
-0.01859240872
-0.02272486359
-0.02709200664
-0.03171101434
-0.03667043946
-0.04211930134
-0.04827109099
-0.05530565071
-0.06352845941
-0.07323980374
-0.0845653553
-0.0974759822
-0.1118343929
-0.1273433459
-0.1433912187
-0.1594433654
-0.1748512544
-0.1889202915
-0.201134265
-0.2110898319
-0.2185414272
-0.2234137305
-0.2257739655
-0.2257958785
-0.2237336567
-0.2198860567
-0.2145653501
-0.2080669549
-0.2007110199
-0.1927164102
-0.1842974535
-0.1756309883
-0.1668635933
-0.158130944
-0.1495434183
-0.1411645456
-0.1330104978
-0.1251090953
-0.1174571342
-0.1100556823
-0.102932334
-0.09610006661
-0.08957361314
-0.08334397704
-0.07740317678
-0.07173323711
-0.06632146958
-0.06115682653
-0.05623082041
-0.05153565431
-0.04706375501
-0.04280762159
-0.03874702503
-0.03487078261
-0.03116341168
-0.02761909248
-0.02423370836
-0.02100474653
-0.01792766397
-0.01499561795
-0.01220097093
-0.009533994903
-0.00698507075
-0.004546146405
-0.00221325067
1.423551517e-05
0.002135555062
0.004151676846
0.006066672025
0.007887447998
0.009626398621
0.01129751225
0.01290125294
0.01442782878
0.01587257535
0.01724417937
0.01856057597
0.01982553897
0.02103661624
0.02220157776
0.02331629583
0.02438028138
0.02538698509
0.02636886491
0.02730447115
0.02820294646
0.029081473
0.02990928159
0.03071470177
0.03150376273
0.03219836977
0.03278830175
0.03255907276
0.03228683718
0.03190843269
0.0315289438
)


101
(
-0.001745366812
-0.002316874051
-0.00549506924
-0.00958454966
-0.01388706281
-0.01809030949
-0.0221174386
-0.02634581
-0.03080531517
-0.03557377067
-0.04078627643
-0.0466365785
-0.0532930229
-0.06102768351
-0.07012828305
-0.08074040409
-0.09286899846
-0.1064155816
-0.1211538133
-0.1365521268
-0.1521321696
-0.1672998277
-0.1814008402
-0.1939235575
-0.2044454136
-0.2126730334
-0.2184731522
-0.2218548095
-0.2229361421
-0.2219236654
-0.2190769397
-0.2146789682
-0.2090081628
-0.202374458
-0.1950022548
-0.1871087629
-0.1788738829
-0.1704488957
-0.1619759486
-0.1535762497
-0.1453310549
-0.1372766014
-0.1294528368
-0.1218595454
-0.1144917665
-0.1073701666
-0.1005092692
-0.09393299172
-0.08764227269
-0.08163445476
-0.07589410852
-0.07040902283
-0.06516675456
-0.06015801359
-0.05537589407
-0.05081462624
-0.04647087044
-0.04232690225
-0.03837197532
-0.03458828242
-0.0309665719
-0.02750166396
-0.02419146513
-0.02103374699
-0.01802345869
-0.01515301383
-0.01241454704
-0.009798591985
-0.007295988095
-0.00490012039
-0.002608569872
-0.0004218612264
0.001660652349
0.003639717137
0.005517243967
0.007303895422
0.009018337372
0.01066860217
0.01224952786
0.01375002403
0.01517041742
0.01652593969
0.01783186802
0.01908792796
0.02029444942
0.0214520548
0.02256403661
0.02361581361
0.02463787177
0.0256201199
0.02656066588
0.02748442745
0.02835680487
0.02920341579
0.03003195409
0.03075542783
0.03135336668
0.03098185286
0.03058118745
0.03016001244
0.02974760979
)


101
(
-0.00174536681
-0.00217355873
-0.005291944949
-0.009291528536
-0.01349373653
-0.01759626208
-0.02152083146
-0.02561567341
-0.02992176298
-0.03450790612
-0.03949628892
-0.0450626921
-0.05136395326
-0.05864187519
-0.06716858396
-0.07710270505
-0.08847768819
-0.1012296607
-0.1151933005
-0.1299122874
-0.1449666174
-0.1598156634
-0.1738491825
-0.186568497
-0.1975445811
-0.2064485451
-0.213094235
-0.2174349044
-0.2195356399
-0.2195550966
-0.2177116075
-0.2142564478
-0.2094464356
-0.2035739023
-0.1968657077
-0.1895424405
-0.1817871446
-0.1737542556
-0.1655900746
-0.1574214945
-0.1493426071
-0.1414087902
-0.1336773078
-0.1261582651
-0.1188458897
-0.111752507
-0.1048874603
-0.09827899276
-0.09193877869
-0.08587310874
-0.08007007979
-0.07451931523
-0.06920798337
-0.06412573967
-0.05926465888
-0.05462050299
-0.05019281788
-0.04596824521
-0.04193852882
-0.03808506811
-0.03439486213
-0.03085970072
-0.02747686452
-0.02424551177
-0.02116392481
-0.01822438895
-0.01542055586
-0.01274325922
-0.01018333248
-0.007733101741
-0.005388189373
-0.003145178034
-0.001003591381
0.001034871234
0.002968277665
0.00480229117
0.006554057877
0.008240474326
0.009866651861
0.01141923941
0.01288759536
0.01428348829
0.01562734072
0.01692738905
0.01817565167
0.01937591192
0.02053377084
0.02163447959
0.02269805106
0.02372984595
0.02471878244
0.02568761529
0.02660732152
0.02749974772
0.02837265376
0.02913434105
0.02975080417
0.02929135198
0.02882020677
0.02842079183
0.02799494002
)


101