/*--------------------------------*- C++ -*----------------------------------*\
| =========                 |                                                 |
| \\      /  F ield         | OpenFOAM: The Open Source CFD Toolbox           |
|  \\    /   O peration     | Version:  2.3.1                                 |
|   \\  /    A nd           | Web:      www.OpenFOAM.org                      |
|    \\/     M anipulation  |                                                 |
\*---------------------------------------------------------------------------*/
FoamFile
{
    version     2.0;
    format      ascii;
    class       dictionary;
    location    "constant";
    object      PM44;
}
// * * * * * * * * * * * * * * * * * * * * * * * * * * * * * * * * * * * * * //

PM44_table
101
(

101
(
-1.006033576e-11
-0.0001157257341
-0.0006593801133
-0.002274001436
-0.006115650587
-0.01340824365
-0.02467108731
-0.04136209203
-0.06218257774
-0.08659478015
-0.1129539985
-0.1400363835
-0.1653711675
-0.1899144069
-0.2102970476
-0.2265508634
-0.2389970402
-0.2477554756
-0.2512738064
-0.2531124923
-0.250929162
-0.2465363173
-0.2405872064
-0.2330384415
-0.2244393124
-0.2151196479
-0.2053309134
-0.1953128587
-0.1850822692
-0.1749046403
-0.1647985616
-0.1549622678
-0.145899894
-0.1354868504
-0.1262682433
-0.1173299192
-0.1088002671
-0.1008839408
-0.09297469715
-0.08491488029
-0.07722021789
-0.07054330181
-0.06369826726
-0.05720591615
-0.0513444051
-0.04545895205
-0.04005479831
-0.03468531579
-0.02971322688
-0.02483612508
-0.02034531598
-0.01604099478
-0.01195838379
-0.008117895437
-0.004529168845
-0.001153925964
0.002278852929
0.005206453444
0.008177513355
0.01086060398
0.0134614738
0.01586533833
0.01810597751
0.02023340551
0.0222150375
0.02408319619
0.02580871762
0.02741203813
0.02894193878
0.03032815059
0.03162310462
0.03282562631
0.03397856798
0.03500192343
0.03591532902
0.03671874643
0.03750726093
0.03821098731
0.0388237119
0.03936151319
0.0398321087
0.04027819967
0.04064661326
0.04097402077
0.04124863712
0.04147020307
0.04165052951
0.04179540162
0.04191248727
0.04200163625
0.04206574162
0.04209828918
0.04211603612
0.04211897181
0.04210256035
0.04204054757
0.04193805324
0.0431609239
0.04433960939
0.04563215919
0.04685766021
)


101
(
-1.006097452e-11
-0.0001047648145
-0.0006231373208
-0.00218117007
-0.005915605792
-0.01303030919
-0.02404119858
-0.04038201927
-0.06082315182
-0.0848327187
-0.1108288307
-0.1376040142
-0.1627772147
-0.1871605705
-0.207629946
-0.2240553883
-0.2367253713
-0.2457662103
-0.2497513482
-0.251837088
-0.2501140047
-0.2460732532
-0.2404361564
-0.2332078123
-0.2248832573
-0.2158050159
-0.2062274617
-0.1963856426
-0.1863264719
-0.1762781543
-0.1662910204
-0.1565377999
-0.1474570528
-0.1373833927
-0.1281180673
-0.1192025845
-0.1106797899
-0.1027198904
-0.09487195993
-0.08693473863
-0.0792707843
-0.07245058986
-0.06566145049
-0.05916333801
-0.05320832632
-0.0473476152
-0.04188400908
-0.0365308045
-0.0315099935
-0.0266333922
-0.02208436647
-0.01774700719
-0.01362711063
-0.009739022845
-0.006093299461
-0.002664783467
0.0007493026786
0.003783775748
0.006764084044
0.009510875448
0.01214211884
0.01459689147
0.01688957283
0.01905748129
0.02108575373
0.0229953353
0.02476992589
0.02642123502
0.02798572153
0.02942258449
0.03076010454
0.0320022468
0.03318086368
0.03424953425
0.03521446947
0.03607500519
0.03689399329
0.0376357296
0.03829209016
0.03887273528
0.03938496322
0.0398585828
0.04026518238
0.04062552473
0.04093568499
0.04119445873
0.04140808244
0.04158194615
0.04172558001
0.04183929763
0.04192939187
0.04198845854
0.04202571375
0.04204758047
0.04205193921
0.04201236487
0.04193508326
0.04315753794
0.04433575607
0.04562769074
0.04685255734
)


101
(
-1.006148175e-11
-8.382033904e-05
-0.0005530203414
-0.002000456558
-0.005524566649
-0.01228919573
-0.02280277312
-0.03845019187
-0.05813550313
-0.08133973482
-0.1066027665
-0.1327519087
-0.1575804108
-0.1816305481
-0.2022362204
-0.2189836149
-0.2320838817
-0.2416712331
-0.2465621208
-0.2491641565
-0.2483332983
-0.2450156672
-0.2400080478
-0.2334251357
-0.2256646579
-0.2170819074
-0.2079394667
-0.1984650857
-0.1887553433
-0.1789817948
-0.1692397933
-0.1596661265
-0.1505855575
-0.1410826922
-0.1318377452
-0.1229720537
-0.1144702134
-0.1064426402
-0.09868151257
-0.0909577194
-0.08338494095
-0.0763564159
-0.06962000557
-0.06312124798
-0.0570199137
-0.05116940537
-0.04561196869
-0.04026458168
-0.0351667831
-0.03027436449
-0.02563080302
-0.02122316439
-0.01703007101
-0.01305256472
-0.009299250278
-0.005764024582
-0.002350184556
0.0008482089039
0.003879831126
0.006738721483
0.009443187589
0.01199410067
0.01438816693
0.01664240343
0.0187630805
0.02075859339
0.02262879533
0.02437585972
0.02601722797
0.02754992029
0.02897593505
0.03030213718
0.03154416931
0.03269772843
0.03375816381
0.03472443921
0.0356167804
0.0364373138
0.03718071906
0.03784748929
0.03844333275
0.03898146384
0.03946292852
0.03989199614
0.04027250531
0.04060415983
0.04088889597
0.04112597993
0.04132622906
0.04149288317
0.0416356896
0.04174807441
0.04183257797
0.04189577909
0.04194452055
0.04195376751
0.04192997098
0.04315182513
0.04432939983
0.04562070172
0.04684490638
)


101
(
-1.006187132e-11
-6.477354595e-05
-0.0004875089165
-0.001829446249
-0.005151500219
-0.011577978
-0.02160885231
-0.03658018344
-0.05552079706
-0.07792753198
-0.1024539062
-0.1279657527
-0.1524174635
-0.1761218047
-0.1967986907
-0.2138290947
-0.2273297461
-0.2374311047
-0.2431591691
-0.2463244973
-0.2463175052
-0.2437423221
-0.2393748384
-0.2334320756
-0.2262501884
-0.2181772386
-0.2094843526
-0.2003963703
-0.1910417827
-0.1815644395
-0.1720766847
-0.1627012734
-0.15368463
-0.1445610565
-0.1354962228
-0.1267075617
-0.1182477129
-0.1101916364
-0.1024617701
-0.09488024537
-0.08742848969
-0.08033050696
-0.07357435025
-0.06707970556
-0.06090198118
-0.05501152266
-0.04939412532
-0.04401531422
-0.03886792827
-0.03393750438
-0.02923115028
-0.02475326021
-0.02049077874
-0.0164357794
-0.01259036359
-0.008954843266
-0.005486045677
-0.002191981948
0.0009264766362
0.003877691976
0.006669438684
0.009309001166
0.01179756483
0.01414274671
0.01635332511
0.01843707029
0.02039789203
0.02223787046
0.02396536111
0.02558603659
0.02710179544
0.02851654794
0.02983860488
0.03107232366
0.03221791411
0.03327563018
0.03425361743
0.03515655278
0.035985684
0.03673933693
0.03741973306
0.03803479903
0.03859097166
0.03909289323
0.03954450071
0.03994707561
0.04030536164
0.0406149472
0.04087952118
0.04110549722
0.04130504546
0.04147286512
0.04161513557
0.04172777377
0.04182546023
0.04189112917
0.04192569692
0.04314747817
0.04432500672
0.04561639616
0.04684072508
)


101
(
-1.00621553e-11
-4.753614095e-05
-0.0004264364518
-0.00166784877
-0.004795955173
-0.01089605623
-0.02045880584
-0.03477154557
-0.05297924576
-0.0745970437
-0.09838454156
-0.1232491108
-0.1472942893
-0.1706391269
-0.1913277009
-0.2085991753
-0.2224688958
-0.2330520046
-0.2395529638
-0.2433106389
-0.2440761098
-0.2422478148
-0.2385324672
-0.2332264423
-0.2266332759
-0.2190840811
-0.2108547046
-0.2021703172
-0.193180503
-0.1840172921
-0.1747972348
-0.1656366837
-0.1567302752
-0.1478796953
-0.1390449367
-0.1303856316
-0.1219972735
-0.1139483996
-0.1062327683
-0.09873931489
-0.09139902645
-0.08431059166
-0.07753702848
-0.07103840216
-0.06482064461
-0.05888601539
-0.05321780099
-0.04779730967
-0.04260572832
-0.03763258605
-0.0328731689
-0.02833186518
-0.02400287706
-0.0198773413
-0.01595173711
-0.01222628106
-0.008682954407
-0.005308128627
-0.002103933256
0.0009362176641
0.003817051014
0.006545619709
0.009125537858
0.01156178545
0.01386197054
0.0160341516
0.01808413333
0.02001511149
0.02183175698
0.02354014144
0.02514411998
0.02664755937
0.02805577446
0.02937377746
0.0306042604
0.03174869513
0.03281217496
0.0337991108
0.03471346247
0.03555485263
0.03632273896
0.03702033043
0.03765514446
0.03823323118
0.03875939775
0.03923495628
0.03966591674
0.0400509583
0.04038886736
0.04068028611
0.04094255532
0.04117097958
0.0413735689
0.04154574792
0.04169740927
0.04182478959
0.04192184539
0.04314403583
0.0443219402
0.04561308171
0.04683716704
)


101
(
-1.006234861e-11
-3.202128922e-05
-0.000369638049
-0.001515375636
-0.004457481364
-0.010242827
-0.01935197799
-0.03302378329
-0.05051099191
-0.07134915255
-0.09439688362
-0.1186054687
-0.1422166776
-0.1651874892
-0.185833173
-0.2033017807
-0.2175076951
-0.2285403098
-0.2357537072
-0.2401178287
-0.2416161365
-0.2405293301
-0.2374764396
-0.2328058778
-0.2268083589
-0.2197956515
-0.2120433318
-0.2037782593
-0.1951648042
-0.1863318344
-0.1773951774
-0.1684663052
-0.1597054803
-0.151072203
-0.1424698601
-0.1339821535
-0.1256990562
-0.1176932974
-0.1099978108
-0.1025606261
-0.0953094187
-0.08826609928
-0.0814973084
-0.07499675457
-0.06875776866
-0.06278813999
-0.05707632864
-0.05161302778
-0.0463787651
-0.04136286084
-0.03655471938
-0.03195567833
-0.02756336135
-0.02337100911
-0.01937265228
-0.01556645762
-0.0119452669
-0.00849245025
-0.005206873624
-0.002081396268
0.0008872206447
0.003704821047
0.006375416741
0.008902796321
0.01129296932
0.01355366812
0.0156920907
0.01771292318
0.01961972599
0.02141730219
0.02310970148
0.0247015355
0.02619739981
0.02760220521
0.02891953444
0.03015130162
0.03130099526
0.03237267393
0.03337187382
0.03430007988
0.03515709515
0.03594191883
0.0366597723
0.03731768865
0.0379215271
0.03847341307
0.03897973942
0.03944025096
0.03985662699
0.04022050713
0.04055085913
0.04084569553
0.04111179428
0.04135054358
0.04156244268
0.04175506774
0.04191879692
0.04314095017
0.04431881653
0.04561000102
0.04683414483
)


101
(
-1.00624598e-11
-1.814316721e-05
-0.0003169502066
-0.001371738637
-0.004135625191
-0.009617673548
-0.01828768098
-0.03133633145
-0.04811606154
-0.06818459548
-0.09049292938
-0.1140381319
-0.1371900785
-0.1597717966
-0.1803244975
-0.1979450084
-0.2124526833
-0.2239022957
-0.231771322
-0.23674354
-0.2389427024
-0.2385857292
-0.2362022772
-0.232167531
-0.2267704352
-0.220305276
-0.21304305
-0.2052118778
-0.19698704
-0.1884991424
-0.1798624051
-0.1711832086
-0.1625975265
-0.1541562695
-0.1457715141
-0.1374752653
-0.1293311122
-0.1214046609
-0.1137488829
-0.1063565149
-0.09917447432
-0.09218693765
-0.08544252043
-0.07894953148
-0.07270245152
-0.06670942893
-0.06096253086
-0.05545952831
-0.05018452704
-0.04512760855
-0.04027470953
-0.03562319269
-0.03117122605
-0.02691463622
-0.02284759184
-0.01896661142
-0.01526914
-0.01174016035
-0.008376590624
-0.005169781288
-0.002116441571
0.000788630719
0.003549195386
0.00616793595
0.008649094021
0.01099905625
0.01322567411
0.01533532521
0.01733216306
0.01922016418
0.02100229249
0.02268328307
0.02426752884
0.02576012643
0.02716540962
0.02848593505
0.02972399016
0.03088234413
0.03196708372
0.0329815709
0.03392718675
0.0348021526
0.03560765523
0.03634986189
0.03703522371
0.03766669263
0.0382510658
0.03878985124
0.03928545932
0.03972885316
0.04013194123
0.04049826093
0.04083402992
0.04114267533
0.0414209842
0.04168290725
0.04191645213
0.04313823549
0.04431586782
0.04560780804
0.04683279396
)


101
(
-1.006250038e-11
-5.81738991e-06
-0.0002682114982
-0.001236651821
-0.003829934502
-0.009019977463
-0.01726521821
-0.02970859671
-0.04579442051
-0.06510402676
-0.08667456955
-0.1095502773
-0.1322198723
-0.1543971415
-0.1748109752
-0.1925375708
-0.2073109741
-0.2191446757
-0.2276156621
-0.2331877734
-0.2360601311
-0.2364171444
-0.2347062013
-0.2313083701
-0.2265150671
-0.2206067143
-0.2138468737
-0.2064633733
-0.1986395057
-0.1905103764
-0.1821896184
-0.1737787158
-0.1653952372
-0.1571401473
-0.1489569935
-0.1408565106
-0.1328745423
-0.125060281
-0.1174710842
-0.110128291
-0.1030043449
-0.09607270062
-0.08936450404
-0.08288970674
-0.07664598642
-0.07064147902
-0.06486943849
-0.05933241931
-0.05401934085
-0.0489231538
-0.04402931886
-0.03933128083
-0.03482490916
-0.0305073977
-0.02637461003
-0.02242268433
-0.01865096683
-0.01504718899
-0.01160787586
-0.008323231977
-0.005188966142
-0.002199394664
0.0006491540095
0.003358787756
0.005931867796
0.008372649712
0.01068815012
0.01288599601
0.01497201676
0.01695073715
0.01882406742
0.02059577127
0.02226968699
0.02385090279
0.02534462171
0.02675452632
0.02808272905
0.029330262
0.03050270589
0.0316045441
0.03263883791
0.03360454197
0.03450086062
0.03533134986
0.03610242514
0.036817655
0.03748289887
0.03810311032
0.03867954788
0.03920694483
0.03968780201
0.04012940963
0.04054088087
0.04092295202
0.04127372075
0.04160804397
0.0419142939
0.04313643309
0.04431466125
0.04560840212
0.04683564684
)


101
(
-1.006247828e-11
5.039007916e-06
-0.0002232620536
-0.001109831268
-0.003539954405
-0.008449103628
-0.01628385103
-0.02813990932
-0.04354592464
-0.06210795828
-0.08294352918
-0.1051448925
-0.1273112091
-0.1490685278
-0.1693014042
-0.1870883899
-0.2020899952
-0.214274337
-0.2232963272
-0.2294521854
-0.2329722755
-0.2340246503
-0.2329851341
-0.2302251462
-0.2260380819
-0.2206940587
-0.2144478776
-0.2075251214
-0.2001145297
-0.1923569473
-0.1843672117
-0.1762428487
-0.1680868389
-0.1600247812
-0.1520334788
-0.1441247629
-0.1363168864
-0.1286405579
-0.12114613
-0.1138685225
-0.1068022665
-0.09992520392
-0.09325941491
-0.08681148576
-0.08058068359
-0.07457563517
-0.06878926791
-0.06322632551
-0.05787973132
-0.05274624964
-0.04781354883
-0.04307382209
-0.03851982221
-0.03414696328
-0.02995227606
-0.02593299077
-0.02208937428
-0.0184114813
-0.01489742397
-0.01153716134
-0.008325231644
-0.005254891376
-0.002321754939
0.0004767125757
0.003141751951
0.005675138309
0.008081460786
0.01036817678
0.01254260667
0.01461126896
0.01657641453
0.01844049836
0.02020610169
0.02187755495
0.02346048302
0.02495996317
0.02637927974
0.02771837612
0.02898115779
0.03017221032
0.03129654884
0.03235394843
0.03334286559
0.03426444749
0.03512460988
0.03592784738
0.03667828101
0.03738267614
0.03804359585
0.03865682619
0.03922163571
0.03974186269
0.04023319865
0.04069346597
0.04112138558
0.04153109684
0.04191245833
0.04313601485
0.04431610888
0.04561373533
0.04684640816
)


101
(
-1.00624063e-11
1.45076519e-05
-0.0001819443085
-0.0009909975073
-0.00326523606
-0.007904414976
-0.01534281667
-0.0266295407
-0.04137036626
-0.05919684506
-0.07930142806
-0.100824859
-0.1224691174
-0.143791127
-0.1638043845
-0.1816066825
-0.196797726
-0.2092985457
-0.2188231184
-0.2255402364
-0.2296831334
-0.2314102201
-0.2310370158
-0.2289148395
-0.2253356874
-0.2205619008
-0.2148394288
-0.2083897944
-0.2014046378
-0.1940306578
-0.1863856843
-0.1785650406
-0.1706602336
-0.1628057455
-0.1550052292
-0.1472829329
-0.1396522855
-0.1321303277
-0.1247554495
-0.1175640671
-0.1105644461
-0.1037441784
-0.09712508235
-0.09071066443
-0.08450061783
-0.07850439713
-0.07271416812
-0.06713453543
-0.061761109
-0.0565942654
-0.05162463018
-0.04684573314
-0.04224923113
-0.03782796649
-0.03357728355
-0.02949517802
-0.02558292099
-0.02183245542
-0.01824423676
-0.01480920059
-0.0115215842
-0.008373645672
-0.005359817712
-0.002476163412
0.0002789340429
0.002905681524
0.005405285826
0.00778306083
0.01004646631
0.01220415833
0.01426046621
0.0162178382
0.01807722752
0.01984138002
0.02151536792
0.02310531529
0.02461607384
0.02604824769
0.02740426238
0.02868697928
0.02990272368
0.03105359496
0.03213719269
0.03315277228
0.03410446948
0.0349992437
0.03583984991
0.03663097375
0.03738006432
0.03808179152
0.03873631842
0.03933911609
0.0399126813
0.04045663606
0.04096538759
0.04145436774
0.04191251833
0.04313895228
0.04432257575
0.04562487373
0.04686317373
)


101
(
-1.00616005e-11
2.266880276e-05
-0.0001441023451
-0.0008798717565
-0.003005328892
-0.007385263746
-0.0144413211
-0.02517669207
-0.03926742696
-0.05637101744
-0.07574969831
-0.09659286991
-0.1176983347
-0.1385701744
-0.1583283156
-0.1761017792
-0.1914425313
-0.2042249576
-0.2142055256
-0.2214569172
-0.2261970687
-0.2285763999
-0.2288606633
-0.2273746151
-0.2244042378
-0.2202051844
-0.2150150971
-0.2090501694
-0.2025024738
-0.1955237045
-0.1882359603
-0.1807345017
-0.173102474
-0.1654744338
-0.1578716873
-0.1503339452
-0.1428795378
-0.1355201629
-0.1282833903
-0.1211995177
-0.1142818491
-0.1075262463
-0.1009587692
-0.09458376367
-0.08840108499
-0.08242127443
-0.07663667862
-0.07105050194
-0.06565831135
-0.06046374076
-0.05546048199
-0.05064469369
-0.04600863462
-0.04154419538
-0.03724438758
-0.03310566594
-0.02912978369
-0.02530963743
-0.02164843323
-0.01813908168
-0.01477657665
-0.01155292488
-0.008461568448
-0.005496951555
-0.002655729216
6.261002738e-05
0.002656973509
0.005128760589
0.007483589747
0.009730838065
0.01187733728
0.01392751363
0.01588189214
0.0177413831
0.01950938785
0.02119189705
0.02279472053
0.02432033453
0.025771878
0.02714966995
0.02845867717
0.02970441351
0.03088537135
0.03199861123
0.0330450233
0.03403337331
0.03496880458
0.03585084412
0.03669003149
0.03748438184
0.03823265278
0.03892332699
0.03958196191
0.0402140195
0.04080773917
0.04137942596
0.04191630023
0.04314662167
0.04433479885
0.04563861074
0.04688056069
)


101
(
-1.005900925e-11
2.960121596e-05
-0.0001095821921
-0.0007761758667
-0.002759776906
-0.006890984676
-0.01357853139
-0.02378048954
-0.03723665994
-0.05363063199
-0.07228955319
-0.09245137794
-0.113003259
-0.1334106271
-0.152881144
-0.1705829534
-0.1860330363
-0.199061287
-0.2094530129
-0.2172079764
-0.2225187331
-0.2255264915
-0.2264557542
-0.2256019115
-0.2232400981
-0.219619001
-0.2149685307
-0.2094988961
-0.2034004702
-0.1968283662
-0.1899093626
-0.1827408204
-0.1754006946
-0.1680193348
-0.1606275907
-0.1532782702
-0.1459995105
-0.138805329
-0.1317179389
-0.1247599209
-0.1179421955
-0.1112641024
-0.1047561235
-0.09842705723
-0.09227819017
-0.08632126556
-0.08054989442
-0.07496668718
-0.06956567041
-0.06435104925
-0.05931912797
-0.05446935533
-0.0497962274
-0.04529200503
-0.04094844574
-0.03675990271
-0.03272683628
-0.02884192603
-0.02511038014
-0.02152766076
-0.01809071396
-0.01479213585
-0.01162513853
-0.008583066381
-0.005660333747
-0.002854633079
-0.000166856551
0.002400969879
0.004850642561
0.007189768258
0.009426637498
0.01156853442
0.01361779857
0.01557438119
0.01743957303
0.0192176951
0.02091474005
0.02253437502
0.02408200124
0.02555771136
0.02696335244
0.02830518959
0.02958543916
0.03080038647
0.03194667954
0.03303046137
0.03406379208
0.03504251456
0.03597456499
0.03686463294
0.03771054987
0.03849491595
0.03924286335
0.03996618921
0.04064994871
0.04130726514
0.04192521656
0.04315816125
0.04434904022
0.04564136128
0.04687705934
)


101
(
-1.005708358e-11
3.538216601e-05
-7.823223029e-05
-0.000679635069
-0.002528128511
-0.006420913949
-0.01275359892
-0.02244001968
-0.03527758464
-0.05097579883
-0.06892212774
-0.08840272808
-0.1083882412
-0.1283174823
-0.1474706435
-0.165059774
-0.1805784635
-0.1938158316
-0.2045753115
-0.2128005238
-0.2186537302
-0.2222645959
-0.2238232471
-0.2235951201
-0.2218402168
-0.2187989949
-0.2146939339
-0.2097289809
-0.2040911901
-0.1979372072
-0.1913979802
-0.1845744593
-0.1775426893
-0.1704276677
-0.1632640633
-0.1561129312
-0.149012615
-0.1419844473
-0.1350520975
-0.1282329587
-0.1215321812
-0.1149475918
-0.1085111735
-0.1022362096
-0.09612822041
-0.0902007848
-0.08444911877
-0.07887672775
-0.07347638866
-0.06825098907
-0.06319794603
-0.05831897042
-0.05361154388
-0.04907017989
-0.04468668739
-0.04045381729
-0.03637021741
-0.03242728136
-0.02863011265
-0.02497647901
-0.02146617372
-0.01809295557
-0.01485091601
-0.01173337743
-0.008733236624
-0.005845305808
-0.003068410733
-0.0004054694925
0.002141368937
0.004575709806
0.006904990469
0.009138322774
0.01128118085
0.0133348105
0.01529937203
0.01717680491
0.01897152093
0.02068714011
0.02233111957
0.02390596307
0.02541184184
0.02685213374
0.02823246388
0.02955197613
0.03080385491
0.03198736355
0.03312016847
0.03420060428
0.03523140431
0.03621867319
0.03716671389
0.03805062129
0.03889339401
0.03971114406
0.04049050455
0.04123682192
0.04193872534
0.04316630768
0.04435023576
0.0456017861
0.04679729759
)


101
(
-1.005687803e-11
4.008745494e-05
-4.990248575e-05
-0.0005899760131
-0.002309930528
-0.005974378652
-0.01196564748
-0.02115429783
-0.03338959301
-0.04840646996
-0.06564835053
-0.08444904494
-0.1038572744
-0.1232955778
-0.1421042761
-0.1595416724
-0.1750881927
-0.188497321
-0.1995818733
-0.2082422634
-0.2146082831
-0.2187954636
-0.2209650085
-0.2213532718
-0.2202018667
-0.2177410555
-0.2141857229
-0.209733464
-0.2045669556
-0.1988425224
-0.1926940494
-0.1862266724
-0.1795172886
-0.172686384
-0.1657694228
-0.1588309635
-0.1519169596
-0.1450574621
-0.1382823583
-0.131609601
-0.1250396625
-0.118565137
-0.1122154963
-0.1060056751
-0.09994676183
-0.09405616233
-0.08833079082
-0.08277592271
-0.07738453551
-0.07215764506
-0.0670920795
-0.06219113834
-0.05745435448
-0.05287872875
-0.04845851665
-0.04418567434
-0.04005737965
-0.0360631396
-0.0322067549
-0.02848682888
-0.02490561111
-0.02145891871
-0.01814208977
-0.01494968947
-0.01187451598
-0.008908926877
-0.006048671106
-0.003294769547
-0.0006514607663
0.001880589989
0.004305223651
0.006631260313
0.00886651684
0.01101540366
0.01307934558
0.01505887474
0.01695520721
0.01877015676
0.02051172383
0.02218582736
0.02379426116
0.02533676604
0.02681828873
0.02824294854
0.02960467205
0.03089439
0.03212875501
0.03331382884
0.03444976013
0.03553718652
0.03659072189
0.03758035628
0.03852366824
0.03944014381
0.04032080742
0.04115981643
0.04194916302
0.04315053681
0.04430407671
0.04546757881
0.0465529156
)


101
(
-1.005665616e-11
4.379137592e-05
-2.444506337e-05
-0.0005069286086
-0.002104732043
-0.005550704161
-0.01121379877
-0.01992231239
-0.03157198981
-0.04592250357
-0.06246906926
-0.0805923219
-0.09941419364
-0.1183497289
-0.1367894333
-0.1540380707
-0.1695721168
-0.1831149299
-0.1944827284
-0.2035415893
-0.2103894136
-0.2151248511
-0.2178840815
-0.2188764533
-0.2183230929
-0.2164417215
-0.2134389255
-0.2095058602
-0.2048202458
-0.1995365525
-0.1937899334
-0.1876893768
-0.1813146343
-0.1747833613
-0.1681309602
-0.1614223128
-0.1547072522
-0.1480230322
-0.1414075609
-0.1348850232
-0.1284549204
-0.1221049674
-0.1158585039
-0.1097283726
-0.1037288955
-0.09788321932
-0.09219164002
-0.08666080787
-0.08128543201
-0.07606584958
-0.07099708576
-0.06608223013
-0.06132289225
-0.05671790864
-0.05226407693
-0.04795533403
-0.04378750679
-0.0397482044
-0.03583960016
-0.03205942193
-0.02841132655
-0.02489397783
-0.02150386425
-0.01823715574
-0.01508755735
-0.0120471519
-0.00910886275
-0.00627023653
-0.003534668359
-0.0009051944427
0.001617115547
0.004038174345
0.006366028272
0.008607774263
0.01076838954
0.01284986303
0.01485100842
0.01676944883
0.01861074589
0.02038395291
0.02209512171
0.02374304685
0.02532846097
0.02685781253
0.02833046062
0.02973262359
0.03107260125
0.03236383926
0.03360960651
0.03480209517
0.03596378803
0.03706471772
0.0381130846
0.03913302835
0.04012043579
0.04105564391
0.04193553402
0.04307370564
0.0441557001
0.04516573973
0.0461396516
)


101
(
-1.005643448e-11
4.656662309e-05
-1.714238873e-06
-0.0004302253535
-0.001912086105
-0.005149216625
-0.01049716485
-0.01874301578
-0.02982400132
-0.04352365996
-0.05938501934
-0.07683439971
-0.09506266108
-0.113484675
-0.1315332482
-0.1485583485
-0.1640404426
-0.1776784309
-0.189288033
-0.1987077558
-0.2060050253
-0.2112593421
-0.214584734
-0.2161659071
-0.2162027612
-0.2148982102
-0.212449248
-0.2090403029
-0.2048438433
-0.2000114902
-0.1946779676
-0.1889549416
-0.1829258555
-0.1767076196
-0.1703361286
-0.1638750446
-0.1573749278
-0.1508771111
-0.1444267982
-0.1380569234
-0.1317715825
-0.125556858
-0.1194289363
-0.1133950198
-0.1074685492
-0.101677515
-0.09602793958
-0.09052867274
-0.08517584989
-0.07997108848
-0.07490835812
-0.06998890199
-0.06521474334
-0.06058690999
-0.05610407966
-0.05176288356
-0.04756044004
-0.04348248913
-0.03952874607
-0.03569530651
-0.03198619681
-0.02840240319
-0.02494219111
-0.02160299848
-0.01837960676
-0.01526589723
-0.01225328705
-0.009336067132
-0.006514546518
-0.003791667411
-0.001171963813
0.001346113612
0.003768093906
0.006101471742
0.008354623013
0.01053413401
0.01264004239
0.01466500445
0.01660963997
0.01848216804
0.02029365993
0.02204724963
0.02373967636
0.02537392033
0.02695601766
0.02847367826
0.02992451664
0.03132260334
0.03268090701
0.03398318058
0.03525376508
0.03647105999
0.0376278325
0.03875497113
0.03985306224
0.04088656276
0.0418583133
0.04287982162
0.04383183787
0.04460912071
0.04535011969
)


101
(
-1.005619902e-11
4.8484423e-05
1.8422844e-05
-0.0003595993825
-0.001731541949
-0.004769227323
-0.009814810135
-0.01761526008
-0.02814463905
-0.04120940306
-0.05639658309
-0.07317672979
-0.09080576381
-0.1087046082
-0.1263420985
-0.1431114321
-0.1585029559
-0.1721975301
-0.1840076716
-0.1937498128
-0.2014629507
-0.2072058941
-0.2110717419
-0.2132234894
-0.2138399251
-0.2131076283
-0.2112122756
-0.2083308387
-0.2046302911
-0.2002589027
-0.1953496057
-0.1900151911
-0.1843424998
-0.1784489945
-0.1723727737
-0.1661760667
-0.1599083521
-0.1536120495
-0.1473368351
-0.1411237971
-0.1349861777
-0.128912559
-0.1229153361
-0.1169941193
-0.1111571799
-0.1054334416
-0.09983495852
-0.09437553789
-0.08905290483
-0.08387014548
-0.07882156963
-0.07390693616
-0.06912701588
-0.06448402729
-0.05997855405
-0.05560954291
-0.05137671391
-0.04726576858
-0.04327436801
-0.03939589194
-0.0356333724
-0.03198880563
-0.02846322717
-0.025054967
-0.02176013204
-0.01857467188
-0.01549013091
-0.01249930799
-0.009598682949
-0.006789386127
-0.00407630041
-0.001461408891
0.001056205062
0.003481887133
0.005824568562
0.008095573687
0.01030045661
0.01243179334
0.01448298078
0.01645626054
0.01836497804
0.02022078361
0.02202017402
0.023760158
0.02544881667
0.0270806186
0.02864666886
0.03015194235
0.03162225933
0.03303723908
0.03441525515
0.03575114852
0.03701966526
0.03825486221
0.03946495037
0.04059693267
0.04165880266
0.04249477823
0.04324591666
0.04371480636
0.04408068347
)


101
(
-1.005595401e-11
4.961443357e-05
3.611803523e-05
-0.0002947884143
-0.001562656521
-0.004410059086
-0.009165810765
-0.01653790406
-0.02653283571
-0.03897906294
-0.05350409708
-0.06962075194
-0.08664658757
-0.1040137629
-0.1212222691
-0.1377061901
-0.1529699525
-0.1666825242
-0.1786523221
-0.1886777564
-0.1967719893
-0.2029723246
-0.2073513173
-0.2100527037
-0.2112351355
-0.2110681354
-0.2097245238
-0.2073725032
-0.2041730551
-0.2002708968
-0.1957963755
-0.1908618323
-0.1855564797
-0.1799985885
-0.174230069
-0.1683128431
-0.1622948874
-0.1562175495
-0.1501315109
-0.1440835603
-0.1380969048
-0.1321675777
-0.1263088011
-0.1205142418
-0.1147840623
-0.1091434332
-0.1036076315
-0.09819695126
-0.09291309182
-0.08776015688
-0.08273366541
-0.0778328574
-0.07305679478
-0.06840744155
-0.06388678388
-0.05949624002
-0.0552379625
-0.05109933466
-0.04707746927
-0.04316269221
-0.03935535122
-0.03565790895
-0.03207317896
-0.0286011506
-0.02523947254
-0.02198495752
-0.01883109147
-0.01577076987
-0.01279772139
-0.009910038214
-0.007110401545
-0.004403098154
-0.00179058933
0.000728504679
0.003159803827
0.005516151023
0.007811040139
0.01004254653
0.01219917362
0.01427520914
0.01628025588
0.01823179668
0.02013346428
0.02197847587
0.02377101208
0.02551045172
0.02719178978
0.02880493647
0.03038330895
0.03191056089
0.03339436044
0.03484509589
0.0362279302
0.03756996869
0.0388886019
0.04011639378
0.04126127121
0.04183593046
0.04231309116
0.04241517033
0.04249170869
)


101
(
-1.005572566e-11
5.00242006e-05
5.152097693e-05
-0.0002355338722
-0.001404993996
-0.004071043278
-0.008549261172
-0.01550980854
-0.02498751394
-0.03683190375
-0.0507078071
-0.06616784812
-0.08258814443
-0.09941635521
-0.1161800052
-0.1323512982
-0.1474520751
-0.161144492
-0.1732331919
-0.183502426
-0.1919419997
-0.198567409
-0.2034311154
-0.206658746
-0.2083907124
-0.2087793563
-0.2079835845
-0.2061613516
-0.2034666727
-0.2000404449
-0.1960101743
-0.1914866149
-0.1865598603
-0.1813484518
-0.1758988148
-0.1702742254
-0.1645218835
-0.1586812106
-0.1528014451
-0.1469315314
-0.1411023772
-0.1353202013
-0.1296036373
-0.1239453348
-0.1183378542
-0.1127981172
-0.1073399408
-0.1019887108
-0.09675271587
-0.09163825661
-0.08664205254
-0.08176404119
-0.07700192315
-0.0723559042
-0.06782864917
-0.06342354077
-0.05914567615
-0.05498506815
-0.05093955444
-0.04699737082
-0.04315498199
-0.03941422719
-0.03577806392
-0.03224915206
-0.02882717003
-0.02550863054
-0.02228977167
-0.019164122
-0.01612460779
-0.0131662937
-0.01028951266
-0.007497898464
-0.004794853473
-0.002183223581
0.00033668662
0.002775173192
0.005150781672
0.007470193791
0.009725569336
0.01190364644
0.01400486415
0.01604539233
0.01804083494
0.01998759304
0.0218797772
0.02371921182
0.02550916722
0.02722939376
0.02890955126
0.03054471691
0.03213219091
0.03369132261
0.03518393231
0.03663047181
0.03804962668
0.03936874426
0.04058539761
0.04082623378
0.04096303118
0.04066118958
0.04036166146
)


101
(
-1.005549476e-11
4.977930919e-05
6.475711244e-05
-0.0001815789955
-0.001258114833
-0.003751492577
-0.007964202523
-0.01452971408
-0.02350742404
-0.03476694027
-0.04800740415
-0.06281890813
-0.07863275573
-0.09491589612
-0.111220674
-0.1270545732
-0.1419591309
-0.1555941331
-0.1677614344
-0.178234222
-0.186982354
-0.1939998548
-0.1993186521
-0.2030472077
-0.2053093606
-0.2062410913
-0.2059868498
-0.2046930448
-0.2025053968
-0.1995602729
-0.1959822845
-0.1918801526
-0.1873434435
-0.1824897195
-0.1773698042
-0.1720493871
-0.1665765334
-0.1609891699
-0.1553339605
-0.1496585832
-0.1439982044
-0.1383683653
-0.1327965863
-0.127279884
-0.1218070434
-0.1163857191
-0.111023069
-0.1057453037
-0.1005669972
-0.09550033311
-0.09054348008
-0.08569735872
-0.08095971979
-0.07632814419
-0.07180425708
-0.06739288966
-0.06310167534
-0.05892453662
-0.05486150438
-0.05090032023
-0.04703420076
-0.04326081393
-0.0395831317
-0.03600537022
-0.03253099059
-0.02915593506
-0.02587841139
-0.02269279443
-0.019592752
-0.01657239137
-0.01362961281
-0.01076395039
-0.007978908693
-0.005280050032
-0.002672698362
-0.0001529923519
0.002296170449
0.00469064688
0.007032428305
0.009305706917
0.01149943914
0.01362505791
0.01570405105
0.01774405347
0.01973127183
0.02166300676
0.02355006098
0.02537283882
0.02714774958
0.02888406343
0.03057077971
0.03222867137
0.03382281527
0.03536828126