/*--------------------------------*- C++ -*----------------------------------*\
| =========                 |                                                 |
| \\      /  F ield         | OpenFOAM: The Open Source CFD Toolbox           |
|  \\    /   O peration     | Version:  2.3.1                                 |
|   \\  /    A nd           | Web:      www.OpenFOAM.org                      |
|    \\/     M anipulation  |                                                 |
\*---------------------------------------------------------------------------*/
FoamFile
{
    version     2.0;
    format      ascii;
    class       dictionary;
    location    "constant";
    object      PM47;
}
// * * * * * * * * * * * * * * * * * * * * * * * * * * * * * * * * * * * * * //

PM47_table
101
(

101
(
1.988294226e-14
-5.557325952e-15
1.546251037e-14
1.792666113e-14
7.586709144e-15
-1.225731005e-16
6.799858583e-15
1.89442005e-15
9.33402842e-16
-8.165405152e-16
-2.868476211e-15
-4.431476431e-15
-8.267649067e-15
-1.013513303e-14
-1.184368123e-14
-1.483697478e-14
-1.968848872e-14
-1.408184898e-14
-2.651299099e-14
-2.037246075e-14
-1.897866051e-14
-2.744177018e-14
-2.552894021e-14
-2.294608081e-14
-2.203025159e-14
-2.098640644e-14
-1.924450209e-14
-1.880193299e-14
-1.696931811e-14
-1.555951278e-14
-1.355779779e-14
-9.789094093e-15
-1.539477466e-14
-1.099971869e-14
-8.721175758e-15
-8.635043685e-15
-7.162934745e-15
-3.245688012e-15
-3.893913523e-15
-3.783696237e-15
-2.017675931e-15
-1.842161423e-15
-1.410044886e-15
-6.176241596e-16
-3.845337125e-16
-1.796604331e-17
2.683738843e-16
5.92463046e-16
9.119513669e-16
1.180837188e-15
1.440204933e-15
1.675364482e-15
1.873466027e-15
2.026375129e-15
2.174655994e-15
2.642870703e-15
2.514289112e-15
2.797880046e-15
2.849400879e-15
3.001784588e-15
3.051331146e-15
3.044811538e-15
3.128694297e-15
3.146155131e-15
3.183735546e-15
3.138545812e-15
3.075611837e-15
3.155206989e-15
3.055814789e-15
2.992097623e-15
2.952581667e-15
3.010169305e-15
2.73834829e-15
1.858995018e-15
2.10702668e-15
3.153167448e-15
2.983192413e-15
2.354427049e-15
1.961614518e-15
1.665669086e-15
1.554423515e-15
1.18850293e-15
4.73861714e-16
1.242108778e-15
1.426888741e-15
8.600573548e-16
4.527936864e-16
6.593402698e-17
-8.277897071e-16
2.60914375e-16
1.376875156e-16
-8.318417077e-16
-6.263549458e-16
-1.068057689e-15
-3.700499203e-16
-8.237749491e-16
-1.017992379e-15
-1.387200176e-21
-5.521714749e-31
-3.067651235e-32
1.090989072e-30
)


101
(
1.860227161e-14
-6.56634118e-15
1.140883469e-14
1.098362357e-14
-7.18620073e-16
-8.556601172e-15
-1.614426274e-15
-4.927048538e-15
-4.028221263e-15
-3.528041877e-15
-3.060466057e-15
-2.033073018e-15
-2.908907647e-15
-2.11154682e-15
-1.300313373e-15
-1.657950042e-15
-3.687642932e-15
2.333366209e-15
-6.051739967e-15
-2.636530268e-16
1.214456056e-15
-4.440182235e-15
-2.909357187e-15
-1.453060835e-15
-1.085127076e-15
-8.1193939e-16
-2.986345149e-16
-8.004024224e-16
-4.924733785e-16
-6.067899581e-16
-3.161099525e-16
1.080698848e-15
-3.132265469e-15
-1.167010648e-15
-9.302493621e-16
-1.222139244e-15
-8.935069697e-16
7.014723787e-16
-1.467946213e-16
-3.351135775e-16
6.573629247e-17
-2.265245157e-16
-2.401265805e-16
-1.802203627e-16
-3.42907081e-16
-3.976904569e-16
-5.200169444e-16
-5.827770283e-16
-6.394919483e-16
-6.936410393e-16
-7.365760318e-16
-7.787442186e-16
-8.211850563e-16
-8.753358531e-16
-9.279669556e-16
-8.364148612e-16
-9.893441422e-16
-9.174265453e-16
-1.009540054e-15
-9.906057083e-16
-1.049775756e-15
-1.101348872e-15
-1.126962858e-15
-1.174724846e-15
-1.204106996e-15
-1.268107948e-15
-1.320068618e-15
-1.3155871e-15
-1.372812676e-15
-1.388995379e-15
-1.416456762e-15
-1.398170098e-15
-1.51672913e-15
-1.85594058e-15
-1.827109321e-15
-1.555700757e-15
-1.505759173e-15
-1.490646805e-15
-1.558110688e-15
-1.66161422e-15
-1.691300669e-15
-1.797762879e-15
-2.029512789e-15
-1.847897865e-15
-1.813555372e-15
-1.711128275e-15
-1.708265491e-15
-1.820475126e-15
-2.122026754e-15
-1.992031356e-15
-2.129580345e-15
-2.152581046e-15
-2.286600061e-15
-2.643551486e-15
-2.902875887e-15
-4.086136229e-15
1.81931116e-16
5.602818503e-15
4.893971031e-15
4.271798452e-15
4.217574263e-15
)


101
(
1.735797444e-14
-5.720330199e-15
1.126276166e-14
1.047094159e-14
-9.422404487e-16
-8.679691869e-15
-2.389071275e-15
-5.019652031e-15
-4.336846742e-15
-3.821654292e-15
-3.37221901e-15
-2.454210648e-15
-3.114335768e-15
-2.58063498e-15
-1.857158338e-15
-2.085202183e-15
-3.832788669e-15
5.024805913e-16
-5.108673709e-15
-2.247141367e-15
-3.491011863e-16
-4.282238735e-15
-4.508619646e-15
-3.492509855e-15
-3.0683893e-15
-2.929657588e-15
-2.68323656e-15
-3.053056817e-15
-3.131500934e-15
-3.303519271e-15
-3.291081849e-15
-2.483121483e-15
-4.730163582e-15
-4.773611597e-15
-4.334980327e-15
-4.337581128e-15
-4.328777264e-15
-3.429839671e-15
-3.458432181e-15
-3.723059919e-15
-3.576368515e-15
-3.564540274e-15
-3.574692832e-15
-3.490747375e-15
-3.477721032e-15
-3.480687783e-15
-3.49515607e-15
-3.497540008e-15
-3.478921699e-15
-3.453236657e-15
-3.418981465e-15
-3.384130893e-15
-3.354422993e-15
-3.336688748e-15
-3.326633301e-15
-3.258117014e-15
-3.247290736e-15
-3.213072048e-15
-3.199884798e-15
-3.18098259e-15
-3.177439701e-15
-3.192990429e-15
-3.209865054e-15
-3.239467753e-15
-3.273424785e-15
-3.313311021e-15
-3.360150754e-15
-3.389009649e-15
-3.42918272e-15
-3.46903962e-15
-3.508131855e-15
-3.542794003e-15
-3.632618478e-15
-3.85452672e-15
-4.031338929e-15
-4.018341431e-15
-3.942504918e-15
-3.880512349e-15
-3.876377022e-15
-3.944334675e-15
-4.023634932e-15
-4.128704571e-15
-4.309519129e-15
-4.423150134e-15
-4.468938078e-15
-4.43161587e-15
-4.363733901e-15
-4.407750287e-15
-4.654309803e-15
-4.856145205e-15
-4.992605794e-15
-5.124008494e-15
-5.310741507e-15
-5.765440411e-15
-6.75776208e-15
-8.355765144e-15
2.583351951e-16
1.047701099e-14
8.822320592e-15
7.361626859e-15
7.258964459e-15
)


101
(
1.614997135e-14
-4.881124381e-15
1.113822188e-14
9.982799566e-15
-1.159562094e-15
-8.795580139e-15
-3.121571979e-15
-5.144721126e-15
-4.622722994e-15
-4.106252443e-15
-3.672297595e-15
-2.850574668e-15
-3.335796356e-15
-2.999564536e-15
-2.379228763e-15
-2.510971958e-15
-4.006056563e-15
-9.72871906e-16
-4.661339897e-15
-3.604419447e-15
-1.858051741e-15
-4.466864032e-15
-5.624322188e-15
-5.23445694e-15
-4.908433765e-15
-4.865037596e-15
-4.827298406e-15
-5.172701885e-15
-5.484206709e-15
-5.783513626e-15
-5.977210428e-15
-5.621980075e-15
-6.824312106e-15
-7.602415476e-15
-7.486280928e-15
-7.50601708e-15
-7.514836269e-15
-6.976595837e-15
-6.777348035e-15
-6.902943506e-15
-6.876819121e-15
-6.798283662e-15
-6.752429951e-15
-6.651753187e-15
-6.557807591e-15
-6.499300239e-15
-6.445531058e-15
-6.39314966e-15
-6.319571277e-15
-6.237240629e-15
-6.141951881e-15
-6.045336279e-15
-5.951247454e-15
-5.866140766e-15
-5.793518656e-15
-5.696217863e-15
-5.610744138e-15
-5.53727836e-15
-5.46917981e-15
-5.406548092e-15
-5.35545043e-15
-5.323375314e-15
-5.305455231e-15
-5.301753421e-15
-5.307206695e-15
-5.316527383e-15
-5.335363788e-15
-5.35806165e-15
-5.386759707e-15
-5.420435003e-15
-5.453319282e-15
-5.50383282e-15
-5.594043225e-15
-5.767549438e-15
-5.969227642e-15
-6.083470668e-15
-6.095430408e-15
-6.06924653e-15
-6.05283568e-15
-6.072266431e-15
-6.124805698e-15
-6.236622489e-15
-6.424478305e-15
-6.620658795e-15
-6.78225253e-15
-6.866559904e-15
-6.832075953e-15
-6.794985439e-15
-6.938125696e-15
-7.213790849e-15
-7.526341313e-15
-7.739877861e-15
-7.981537439e-15
-8.429759889e-15
-9.75626031e-15
-1.230641417e-14
3.532234064e-16
1.50883037e-14
1.258082683e-14
1.034368903e-14
1.016710716e-14
)


101
(
1.497817831e-14
-4.0492069e-15
1.103469843e-14
9.51923241e-15
-1.369407027e-15
-8.903937338e-15
-3.813234367e-15
-5.297946334e-15
-4.889717003e-15
-4.381135227e-15
-3.961463083e-15
-3.224723699e-15
-3.569803882e-15
-3.379552989e-15
-2.868220354e-15
-2.934210201e-15
-4.207926459e-15
-2.171973255e-15
-4.557047227e-15
-4.571028048e-15
-3.229259889e-15
-4.905681869e-15
-6.476721569e-15
-6.690955065e-15
-6.594282377e-15
-6.663348924e-15
-6.797645477e-15
-7.184786353e-15
-7.660052993e-15
-8.10790205e-15
-8.48810863e-15
-8.484817819e-15
-9.17986878e-15
-1.016535948e-14
-1.044610797e-14
-1.062790623e-14
-1.0599899e-14
-1.031893688e-14
-1.011390419e-14
-1.01225389e-14
-1.013945757e-14
-1.007115878e-14
-1.000472252e-14
-9.89945006e-15
-9.772683258e-15
-9.670834098e-15
-9.571394724e-15
-9.480625321e-15
-9.377069793e-15
-9.261875412e-15
-9.127022973e-15
-8.984409763e-15
-8.842232068e-15
-8.706763427e-15
-8.578711848e-15
-8.440219711e-15
-8.307522426e-15
-8.184263895e-15
-8.067134437e-15
-7.954785785e-15
-7.853769725e-15
-7.773116731e-15
-7.706272316e-15
-7.658858696e-15
-7.622605847e-15
-7.592301319e-15
-7.574805251e-15
-7.568553365e-15
-7.565711407e-15
-7.572307823e-15
-7.578659797e-15
-7.61373109e-15
-7.693153021e-15
-7.839344223e-15
-8.018660127e-15
-8.158419281e-15
-8.236036129e-15
-8.281632577e-15
-8.299607695e-15
-8.297945368e-15
-8.296245604e-15
-8.381912008e-15
-8.574409368e-15
-8.802755478e-15
-9.024913657e-15
-9.214565437e-15
-9.291817258e-15
-9.274631925e-15
-9.342098486e-15
-9.602133546e-15
-9.972518742e-15
-1.033116789e-14
-1.05602354e-14
-1.103436655e-14
-1.279670167e-14
-1.653151652e-14
2.217235503e-16
1.978620729e-14
1.652002187e-14
1.364750976e-14
1.344585582e-14
)


101
(
1.384249966e-14
-3.225168106e-15
1.095171829e-14
9.080210424e-15
-1.571123549e-15
-9.004511767e-15
-4.465237213e-15
-5.475220784e-15
-5.141038841e-15
-4.645811456e-15
-4.240112939e-15
-3.578677411e-15
-3.813060565e-15
-3.729280418e-15
-3.326498837e-15
-3.353402024e-15
-4.437240997e-15
-3.158281465e-15
-4.684794595e-15
-5.303302521e-15
-4.438390446e-15
-5.515582624e-15
-7.203968228e-15
-7.911804925e-15
-8.119505391e-15
-8.343708608e-15
-8.63720273e-15
-9.106724578e-15
-9.719561002e-15
-1.032257324e-14
-1.088316748e-14
-1.117215028e-14
-1.167333361e-14
-1.26807669e-14
-1.322969866e-14
-1.356519717e-14
-1.369900929e-14
-1.360092928e-14
-1.347256152e-14
-1.347053129e-14
-1.351433089e-14
-1.348207891e-14
-1.343502628e-14
-1.334843407e-14
-1.322379871e-14
-1.311235643e-14
-1.300235593e-14
-1.291066214e-14
-1.281147631e-14
-1.269592282e-14
-1.255720285e-14
-1.240253191e-14
-1.224597784e-14
-1.209508028e-14
-1.195019216e-14
-1.179523391e-14
-1.163928103e-14
-1.149593465e-14
-1.135222913e-14
-1.120780587e-14
-1.108189856e-14
-1.097517661e-14
-1.087611824e-14
-1.079519231e-14
-1.072552663e-14
-1.066212803e-14
-1.060764569e-14
-1.056103257e-14
-1.052493917e-14
-1.049452922e-14
-1.046195076e-14
-1.045927598e-14
-1.050672251e-14
-1.061648442e-14
-1.075246156e-14
-1.086239874e-14
-1.094001363e-14
-1.100398705e-14
-1.105530205e-14
-1.105781022e-14
-1.100504068e-14
-1.101837133e-14
-1.116025477e-14
-1.137823771e-14
-1.161596803e-14
-1.185157215e-14
-1.201759316e-14
-1.204839342e-14
-1.208915998e-14
-1.227305127e-14
-1.265912619e-14
-1.310433773e-14
-1.339163991e-14
-1.388782155e-14
-1.611047123e-14
-2.091178344e-14
2.176013458e-16
2.474440423e-14
2.017618313e-14
1.610499775e-14
1.580427212e-14
)


101
(
1.274283326e-14
-2.409288012e-15
1.088879074e-14
8.665699199e-15
-1.764046414e-15
-9.09697943e-15
-5.07867657e-15
-5.672697524e-15
-5.379367556e-15
-4.899971792e-15
-4.508384102e-15
-3.913851388e-15
-4.062478917e-15
-4.055114798e-15
-3.75623942e-15
-3.766660536e-15
-4.690688561e-15
-3.981179179e-15
-4.962579808e-15
-5.900280291e-15
-5.490453884e-15
-6.223941458e-15
-7.882676124e-15
-8.95060164e-15
-9.483126585e-15
-9.904574547e-15
-1.036257649e-14
-1.094309504e-14
-1.168832981e-14
-1.244832222e-14
-1.318850258e-14
-1.374358497e-14
-1.423642545e-14
-1.524704576e-14
-1.597964242e-14
-1.651197816e-14
-1.683306457e-14
-1.692719547e-14
-1.693696719e-14
-1.700043453e-14
-1.710240931e-14
-1.713181545e-14
-1.714828503e-14
-1.712261295e-14
-1.704920571e-14
-1.698462769e-14
-1.692199339e-14
-1.688498045e-14
-1.684596688e-14
-1.679621322e-14
-1.672495219e-14
-1.66295392e-14
-1.653633845e-14
-1.645552868e-14
-1.637711782e-14
-1.628278986e-14
-1.619212234e-14
-1.610736211e-14
-1.601414376e-14
-1.591600812e-14
-1.583481271e-14
-1.576517734e-14
-1.569376176e-14
-1.563645263e-14
-1.558596929e-14
-1.553215295e-14
-1.547275253e-14
-1.541706107e-14
-1.536234192e-14
-1.53072019e-14
-1.52502458e-14
-1.520167258e-14
-1.519533914e-14
-1.524231821e-14
-1.530900225e-14
-1.534368157e-14
-1.534794509e-14
-1.534976635e-14
-1.537172597e-14
-1.534424589e-14
-1.521610151e-14
-1.509273663e-14
-1.50961211e-14
-1.520675155e-14
-1.53727363e-14
-1.555303749e-14
-1.570808222e-14
-1.57631505e-14
-1.574616903e-14
-1.58085317e-14
-1.610661235e-14
-1.653717049e-14
-1.687472091e-14
-1.733287959e-14
-1.985891137e-14
-2.567755158e-14
-2.829446912e-16
2.913119729e-14
2.339025221e-14
1.833552638e-14
1.803438969e-14
)


101
(
1.167906973e-14
2.906257294e-15
1.879088345e-14
8.275612584e-15
-1.947567707e-15
-9.181023015e-15
-5.654588803e-15
-5.886805019e-15
-5.60697459e-15
-5.143566607e-15
-4.766430161e-15
-4.231664006e-15
-4.315573006e-15
-4.362250017e-15
-4.159873143e-15
-4.172313727e-15
-4.964908267e-15
-4.679211466e-15
-5.332923372e-15
-6.421916233e-15
-6.405100652e-15
-6.978590388e-15
-8.550485152e-15
-9.857663843e-15
-1.069711959e-14
-1.134545544e-14
-1.19831446e-14
-1.269898239e-14
-1.358306472e-14
-1.450533653e-14
-1.543275992e-14
-1.624016073e-14
-1.683921368e-14
-1.789857899e-14
-1.877709438e-14
-1.951455959e-14
-2.004956034e-14
-2.036028368e-14
-2.056244835e-14
-2.076570851e-14
-2.098736282e-14
-2.114160659e-14
-2.128956723e-14
-2.139643887e-14
-2.145644932e-14
-2.153127942e-14
-2.161528972e-14
-2.173925047e-14
-2.187892661e-14
-2.202023717e-14
-2.213584854e-14
-2.223373009e-14
-2.234658353e-14
-2.246714285e-14
-2.259551244e-14
-2.27164578e-14
-2.282965735e-14
-2.293376835e-14
-2.302352918e-14
-2.309155622e-14
-2.316841305e-14
-2.324770804e-14
-2.32974421e-14
-2.335213378e-14
-2.33967198e-14
-2.342398941e-14
-2.343471619e-14
-2.342174928e-14
-2.338021755e-14
-2.331145588e-14
-2.322187315e-14
-2.311050595e-14
-2.304468188e-14
-2.301719582e-14
-2.297915874e-14
-2.289344229e-14
-2.276335826e-14
-2.262418134e-14
-2.251413984e-14
-2.235430944e-14
-2.20883519e-14
-2.177397252e-14
-2.154898954e-14
-2.141982116e-14
-2.139511936e-14
-2.13759545e-14
-2.137396528e-14
-2.132224091e-14
-2.117679476e-14
-2.104907582e-14
-2.110529412e-14
-2.135559109e-14
-2.164474387e-14
-2.195317589e-14
-2.466389172e-14
-3.145430399e-14
-1.515423311e-15
3.277690194e-14
2.561043632e-14
1.936694058e-14
1.913213309e-14
)


101
(
1.065108874e-14
3.547654176e-15
1.859847696e-14
7.909884528e-15
-2.121046375e-15
-9.256256017e-15
-6.1938411e-15
-6.114027682e-15
-5.825626097e-15
-5.376612393e-15
-5.014258652e-15
-4.533226892e-15
-4.570039893e-15
-4.654678678e-15
-4.540105446e-15
-4.569040927e-15
-5.256752554e-15
-5.283089529e-15
-5.756802018e-15
-6.905341935e-15
-7.208571967e-15
-7.744698433e-15
-9.224795571e-15
-1.068010857e-14
-1.178769211e-14
-1.267707435e-14
-1.351212298e-14
-1.438537023e-14
-1.542033929e-14
-1.651194121e-14
-1.763429836e-14
-1.868941636e-14
-1.946715034e-14
-2.064111917e-14
-2.166661462e-14
-2.261220445e-14
-2.3391695e-14
-2.396706214e-14
-2.442886035e-14
-2.486295101e-14
-2.530310391e-14
-2.567732252e-14
-2.605845822e-14
-2.641498711e-14
-2.674011658e-14
-2.709785416e-14
-2.748164841e-14
-2.793458867e-14
-2.841834618e-14
-2.890688074e-14
-2.937761002e-14
-2.985178346e-14
-3.033010017e-14
-3.081566369e-14
-3.13207323e-14
-3.178715904e-14
-3.223545095e-14
-3.265037068e-14
-3.304328291e-14
-3.339326527e-14
-3.372318486e-14
-3.402731875e-14
-3.427202686e-14
-3.450644589e-14
-3.470690358e-14
-3.486030474e-14
-3.496329021e-14
-3.498892024e-14
-3.494594224e-14
-3.486518234e-14
-3.474844365e-14
-3.460143914e-14
-3.445784374e-14
-3.429914605e-14
-3.411212629e-14
-3.387520837e-14
-3.355299451e-14
-3.320811868e-14
-3.289138077e-14
-3.252790227e-14
-3.204550869e-14
-3.151095414e-14
-3.099086391e-14
-3.055101731e-14
-3.019844854e-14
-2.987884933e-14
-2.961551562e-14
-2.930907695e-14
-2.895712528e-14
-2.853859919e-14
-2.821799685e-14
-2.819191386e-14
-2.831448741e-14
-2.833721734e-14
-3.109673985e-14
-3.8351667e-14
-3.733980598e-15
3.522119057e-14
2.660634595e-14
1.900745829e-14
1.880452061e-14
)


101
(
9.658759345e-15
-1.599043777e-17
1.08146743e-14
1.82873443e-14
-2.283908275e-15
-9.322315641e-15
-6.697293821e-15
-6.351013945e-15
-6.036734103e-15
-5.599338474e-15
-5.251870384e-15
-4.819321201e-15
-4.823622204e-15
-4.934868783e-15
-4.899090605e-15
-4.955464558e-15
-5.562531915e-15
-5.816218692e-15
-6.206864508e-15
-7.37076581e-15
-7.924796275e-15
-8.500403136e-15
-9.91232569e-15
-1.145415353e-14
-1.278381773e-14
-1.391502697e-14
-1.49630805e-14
-1.601333549e-14
-1.721216803e-14
-1.848170696e-14
-1.98078862e-14
-2.111152878e-14
-2.211425386e-14
-2.346850698e-14
-2.467894822e-14
-2.586312567e-14
-2.693866474e-14
-2.78511713e-14
-2.865990123e-14
-2.943419147e-14
-3.02153983e-14
-3.094017319e-14
-3.17049774e-14
-3.247178977e-14
-3.323155912e-14
-3.404572035e-14
-3.489959784e-14
-3.583770884e-14
-3.680351714e-14
-3.778605435e-14
-3.87680017e-14
-3.975388471e-14
-4.072210998e-14
-4.168943749e-14
-4.262153071e-14
-4.350755742e-14
-4.436283186e-14
-4.51475967e-14
-4.589933812e-14
-4.655966336e-14
-4.71617651e-14
-4.769722415e-14
-4.815337547e-14
-4.855700492e-14
-4.887956735e-14
-4.911623379e-14
-4.928543433e-14
-4.933576552e-14
-4.930867083e-14
-4.92177253e-14
-4.904608001e-14
-4.880204023e-14
-4.852940899e-14
-4.819485205e-14
-4.790620479e-14
-4.746184111e-14
-4.690988687e-14
-4.635977608e-14
-4.579891204e-14
-4.5163313e-14
-4.443592334e-14
-4.36760481e-14
-4.286357588e-14
-4.20904962e-14
-4.134330707e-14
-4.069301988e-14
-4.008548525e-14
-3.945372181e-14
-3.882935643e-14
-3.811097731e-14
-3.739100699e-14
-3.70072923e-14
-3.683500069e-14
-3.650606693e-14
-3.913084611e-14
-4.654013462e-14
-7.106582646e-15
3.658167827e-14
2.6790467e-14
1.795332323e-14
1.759430492e-14
)


101
(
8.701945958e-15
7.619923417e-16
1.082624361e-14
1.77835788e-14
-2.435527628e-15
-9.378732393e-15
-7.165671604e-15
-6.594546834e-15
-6.241288294e-15
-5.812044535e-15
-5.479243811e-15
-5.090612162e-15
-5.074391208e-15
-5.204357663e-15
-5.238619207e-15
-5.33063348e-15
-5.87875193e-15
-6.295982399e-15
-6.666313609e-15
-7.827177767e-15
-8.57484987e-15
-9.235812753e-15
-1.061378768e-14
-1.220661698e-14
-1.371538902e-14
-1.507713144e-14
-1.634728841e-14
-1.759138688e-14
-1.896907376e-14
-2.042912262e-14
-2.197218456e-14
-2.353462118e-14
-2.480164531e-14
-2.64072433e-14
-2.7871365e-14
-2.935623309e-14
-3.079896916e-14
-3.213527908e-14
-3.339373689e-14
-3.463346576e-14
-3.590096408e-14
-3.71336015e-14
-3.843794075e-14
-3.977556033e-14
-4.11293554e-14
-4.254390003e-14
-4.398386675e-14
-4.549277275e-14
-4.702407594e-14
-4.85801436e-14
-5.013031762e-14
-5.166126785e-14
-5.314631664e-14
-5.457014508e-14
-5.59202249e-14
-5.726511132e-14
-5.849678604e-14
-5.96328865e-14
-6.06832067e-14
-6.161079172e-14
-6.243607285e-14
-6.315968349e-14
-6.377343294e-14
-6.426658595e-14
-6.465239642e-14
-6.495577562e-14
-6.514959655e-14
-6.520833695e-14
-6.515546479e-14
-6.498823736e-14
-6.472218447e-14
-6.437232845e-14
-6.398609254e-14
-6.349982924e-14
-6.297165473e-14
-6.234674529e-14
-6.159111616e-14
-6.082872292e-14
-6.00043169e-14
-5.910902785e-14
-5.814475684e-14
-5.713366659e-14
-5.607837781e-14
-5.499800469e-14
-5.386599571e-14
-5.285028266e-14
-5.190363881e-14
-5.096069453e-14
-5.008076099e-14
-4.905816768e-14
-4.793923407e-14
-4.718213352e-14
-4.667606914e-14
-4.600674199e-14
-4.830448407e-14
-5.550316111e-14
-1.129051999e-14
3.691069319e-14
2.66047882e-14
1.760046303e-14
1.767272814e-14
)


101
(
7.780497399e-15
1.529075106e-15
1.085489382e-14
6.957528307e-15
-2.575383719e-15
-9.425116752e-15
-7.599723744e-15
-6.841668192e-15
-6.439966531e-15
-6.01496154e-15
-5.696263068e-15
-5.347628399e-15
-5.320737406e-15
-5.464372407e-15
-5.560582532e-15
-5.694108352e-15
-6.202372638e-15
-6.736790409e-15
-7.124809664e-15
-8.280149836e-15
-9.17666267e-15
-9.944198517e-15
-1.132250797e-14
-1.295000517e-14
-1.459932128e-14
-1.616931925e-14
-1.766308023e-14
-1.911708239e-14
-2.06937553e-14
-2.236375868e-14
-2.414555839e-14
-2.599372006e-14
-2.757712132e-14
-2.951135955e-14
-3.131641997e-14
-3.318829509e-14
-3.508533825e-14
-3.693706403e-14
-3.875160084e-14
-4.058508949e-14
-4.247099713e-14
-4.433936415e-14
-4.629857222e-14
-4.831430316e-14
-5.034850881e-14
-5.242404036e-14
-5.449255003e-14
-5.660138746e-14
-5.871229708e-14
-6.083021576e-14
-6.291009731e-14
-6.493754705e-14
-6.687864813e-14
-6.869527309e-14
-7.045303878e-14
-7.2144196e-14
-7.365761724e-14
-7.504194048e-14
-7.631458322e-14
-7.744476547e-14
-7.841931738e-14
-7.925649586e-14
-7.994649279e-14
-8.049226956e-14
-8.08989936e-14
-8.120632296e-14
-8.137940556e-14
-8.141985149e-14
-8.130186296e-14
-8.109011476e-14
-8.071199819e-14
-8.01918619e-14
-7.965276917e-14
-7.904689724e-14
-7.828726129e-14
-7.748025619e-14
-7.653616848e-14
-7.553282613e-14
-7.448457901e-14
-7.33750114e-14
-7.216468184e-14
-7.091111428e-14
-6.965595036e-14
-6.830060908e-14
-6.683732255e-14
-6.549537405e-14
-6.425851921e-14
-6.303715314e-14
-6.186408306e-14
-6.05452818e-14
-5.912292014e-14
-5.799169677e-14
-5.716444954e-14
-5.618671963e-14
-5.807998449e-14
-6.487081435e-14
-1.569338575e-14
3.707776598e-14
2.618233324e-14
1.647120083e-14
1.652653089e-14
)


101
(
6.89425109e-15
6.018425448e-15
1.089992552e-14
6.687799615e-15
-2.702970571e-15
-9.461068734e-15
-8.000156898e-15
-7.08957514e-15
-6.633169625e-15
-6.208334425e-15
-5.902772651e-15
-5.590764903e-15
-5.561239797e-15
-5.715597418e-15
-5.866571025e-15
-6.045315333e-15
-6.530963595e-15
-7.150260036e-15
-7.577665424e-15
-8.732202065e-15
-9.74304769e-15
-1.062334384e-14
-1.202818996e-14
-1.368585101e-14
-1.544594459e-14
-1.720053398e-14
-1.891497414e-14
-2.059407761e-14
-2.239386216e-14
-2.430050048e-14
-2.635273266e-14
-2.852743299e-14
-3.048959842e-14
-3.283460769e-14
-3.507576879e-14
-3.742718243e-14
-3.986410513e-14
-4.231419197e-14
-4.477889826e-14
-4.730472482e-14
-4.989409398e-14
-5.24666245e-14
-5.51290644e-14
-5.784682141e-14
-6.056379555e-14
-6.329050102e-14
-6.597170185e-14
-6.864713884e-14
-7.12876963e-14
-7.390390903e-14
-7.642472457e-14
-7.885428295e-14
-8.116702719e-14
-8.331055198e-14
-8.5356642e-14
-8.725035594e-14
-8.898105529e-14
-9.05241915e-14
-9.195965853e-14
-9.320468038e-14
-9.426976522e-14
-9.51566779e-14
-9.586503217e-14
-9.640393881e-14
-9.681369942e-14
-9.709421014e-14
-9.720734446e-14
-9.719262172e-14
-9.698336912e-14
-9.667154353e-14
-9.618340254e-14
-9.552684117e-14
-9.482512241e-14
-9.406591882e-14
-9.319879652e-14
-9.217727361e-14
-9.107151136e-14
-8.983369512e-14
-8.859692451e-14
-8.727200604e-14
-8.587497e-14
-8.437865996e-14
-8.291435823e-14
-8.135312029e-14
-7.965401321e-14
-7.799573896e-14
-7.647215292e-14
-7.502861292e-14
-7.356203858e-14
-7.201803217e-14
-7.034874368e-14
-6.88907588e-14
-6.773925568e-14
-6.647086548e-14
-6.79042753e-14
-7.409382562e-14
-2.013661018e-14
3.700444083e-14
2.579006813e-14
1.589110289e-14
1.614988269e-14
)


101
(
6.043035291e-15
6.609785409e-15
1.096063041e-14
6.441569703e-15
-2.817819852e-15
-9.486190397e-15
-8.367644005e-15
-7.335655816e-15
-6.821005211e-15
-6.392358325e-15
-6.098658166e-15
-5.820347251e-15
-5.794710187e-15
-5.958341576e-15
-6.1578024e-15
-6.38393789e-15
-6.862513006e-15
-7.544819794e-15
-8.02404625e-15
-9.184435426e-15
-1.028447466e-14
-1.127504732e-14
-1.272489258e-14
-1.441787444e-14
-1.627166921e-14
-1.819150193e-14
-2.012069809e-14
-2.203691422e-14
-2.408324334e-14
-2.625627945e-14
-2.861633303e-14
-3.116367313e-14
-3.356648728e-14
-3.639848921e-14
-3.91598623e-14
-4.207204207e-14
-4.512137572e-14
-4.823574303e-14
-5.141236626e-14
-5.467658995e-14
-5.8000636e-14
-6.128834686e-14
-6.464483694e-14
-6.802717038e-14
-7.137172613e-14
-7.469084077e-14
-7.791915711e-14
-8.108536799e-14
-8.417867154e-14
-8.718435909e-14
-9.003152837e-14
-9.2775076e-14
-9.537843359e-14
-9.775412326e-14
-9.997565065e-14
-1.020322041e-13
-1.039055404e-13
-1.055594085e-13
-1.070677313e-13
-1.08371795e-13
-1.094762054e-13
-1.103614128e-13
-1.110464526e-13
-1.115731346e-13
-1.119621511e-13
-1.12156205e-13
-1.122085979e-13
-1.121996586e-13
-1.119114105e-13
-1.113785821e-13
-1.107765923e-13
-1.100301353e-13
-1.091741542e-13
-1.082662811e-13
-1.072536151e-13
-1.061222185e-13
-1.048251603e-13
-1.033979452e-13
-1.01969645e-13
-1.004775073e-13
-9.888771946e-14
-9.718826536e-14
-9.552376471e-14
-9.384671254e-14
-9.195297157e-14
-8.997546675e-14
-8.81964486e-14
-8.653860949e-14
-8.486499666e-14
-8.309658634e-14
-8.120064233e-14
-7.949728143e-14
-7.803676174e-14
-7.65075579e-14
-7.740763136e-14
-8.294286891e-14
-2.436484489e-14
3.701801848e-14
2.568833132e-14
1.551559149e-14
1.577967909e-14
)


101
(
5.226664116e-15
3.759567118e-15
1.780967981e-14
6.218549242e-15
-2.919545155e-15
-9.500153407e-15
-8.702825819e-15
-7.577490521e-15
-7.00329783e-15
-6.567130992e-15
-6.283978232e-15
-6.036610104e-15
-6.020193139e-15
-6.192914744e-15
-6.43558835e-15
-6.710479185e-15
-7.194780484e-15
-7.926016059e-15
-8.462137392e-15
-9.634749096e-15
-1.080600585e-14
-1.190132934e-14
-1.341257421e-14
-1.515155982e-14
-1.709080013e-14
-1.916227932e-14
-2.130105882e-14
-2.346365392e-14
-2.577753089e-14
-2.824742163e-14
-3.095543626e-14
-3.392141971e-14
-3.681489464e-14
-4.019300866e-14
-4.353798968e-14
-4.707000711e-14
-5.07779093e-14
-5.45888167e-14
-5.849498093e-14
-6.249663141e-14
-6.654394217e-14
-7.051493228e-14
-7.4507349e-14
-7.847967151e-14
-8.237651661e-14
-8.620996936e-14
-8.989673812e-14
-9.347134981e-14
-9.69184942e-14
-1.002035956e-13
-1.033046506e-13
-1.062916881e-13
-1.090941653e-13
-1.116377568e-13
-1.139935681e-13
-1.161614357e-13
-1.181093719e-13
-1.198190218e-13
-1.213370539e-13
-1.226734315e-13
-1.237707213e-13
-1.246281963e-13
-1.252802452e-13
-1.257983118e-13
-1.261301905e-13
-1.262512204e-13
-1.262193868e-13
-1.26022775e-13
-1.257886156e-13
-1.251585377e-13
-1.244561902e-13
-1.236406615e-13
-1.226054007e-13
-1.215594931e-13
-1.204083978e-13
-1.191510656e-13
-1.17709747e-13
-1.161412166e-13
-1.14530603e-13
-1.128624026e-13
-1.110610599e-13
-1.092684258e-13
-1.073862566e-13
-1.055448229e-13
-1.035056559e-13
-1.01327333e-13
-9.92993852e-14
-9.742682942e-14
-9.557629892e-14
-9.35886427e-14
-9.1523249e-14
-8.959259123e-14
-8.781153613e-14
-8.60563468e-14
-8.642454345e-14
-9.111308354e-14
-2.799468396e-14
3.732281376e-14
2.583554533e-14
1.510207786e-14
1.466635352e-14
)


101
(
4.444939359e-15
4.4773035e-15
1.77328999e-14
6.018424577e-15
-3.007781399e-15
-9.502628795e-15
-9.006282618e-15
-7.812799685e-15
-7.179638472e-15
-6.732693096e-15
-6.458800413e-15
-6.23969155e-15
-6.236852844e-15
-6.419539298e-15
-6.701337199e-15
-7.025685716e-15
-7.525908897e-15
-8.296748441e-15
-8.890663923e-15
-1.007810271e-14
-1.130951006e-14
-1.250547406e-14
-1.409255215e-14
-1.589146864e-14
-1.791556648e-14
-2.013089494e-14
-2.247498553e-14
-2.489113981e-14
-2.749415628e-14
-3.029253643e-14
-3.338352632e-14
-3.680131126e-14
-4.021951262e-14
-4.418045794e-14
-4.814413355e-14
-5.232549028e-14
-5.670694754e-14
-6.121055386e-14
-6.582456731e-14
-7.053259604e-14
-7.52518994e-14
-7.98376763e-14
-8.439386744e-14
-8.88779998e-14
-9.32374223e-14
-9.749246659e-14
-1.015658217e-13
-1.054851989e-13
-1.091985837e-13
-1.12703685e-13
-1.160086283e-13
-1.191646231e-13
-1.220975536e-13
-1.247744086e-13
-1.272190084e-13
-1.294346754e-13
-1.314309558e-13
-1.331634681e-13
-1.346744161e-13
-1.361067171e-13
-1.370742152e-13
-1.379163292e-13
-1.38558299e-13
-1.390560598e-13
-1.393082067e-13
-1.393770113e-13
-1.392707715e-13
-1.389140498e-13
-1.385964079e-13
-1.380197295e-13
-1.372004152e-13
-1.362875592e-13
-1.351049896e-13
-1.339422985e-13
-1.326906486e-13
-1.312631574e-13
-1.297168662e-13
-1.280356342e-13
-1.2627737e-13
-1.244397472e-13
-1.22546267e-13
-1.205545338e-13
-1.184936316e-13
-1.164830407e-13
-1.143438805e-13
-1.120300733e-13
-1.097489816e-13
-1.076665599e-13
-1.056360563e-13
-1.034596873e-13
-1.012664369e-13
-9.907979654e-14
-9.702666818e-14
-9.504276447e-14
-9.485795092e-14
-9.855280086e-14
-3.119129508e-14
3.780018725e-14
2.62272482e-14
1.611837845e-14
1.603216915e-14
)


101
(
3.697650487e-15
8.311360095e-15
1.122843125e-14
5.840872589e-15
-3.082152371e-15
-9.493217333e-15
-9.278474798e-15
-8.039443705e-15
-7.349441038e-15
-6.888948427e-15
-6.623088907e-15
-6.429784894e-15
-6.444006795e-15
-6.638199744e-15
-6.956049366e-15
-7.329644435e-15
-7.85444921e-15
-8.659404163e-15
-9.310680589e-15
-1.051426325e-14
-1.180005211e-14
-1.309155171e-14
-1.476595317e-14
-1.66390949e-14
-1.875319034e-14
-2.110826651e-14
-2.365454599e-14
-2.633206537e-14
-2.924641402e-14
-3.240223748e-14
-3.589907723e-14
-3.978260575e-14
-4.373875658e-14
-4.829007448e-14
-5.288127805e-14
-5.771441607e-14
-6.275628709e-14
-6.792110821e-14
-7.319265213e-14
-7.853787208e-14
-8.385466541e-14
-8.899306765e-14
-9.403892848e-14
-9.894501341e-14
-1.036794877e-13
-1.082859312e-13
-1.126922689e-13
-1.16890344e-13
-1.208234666e-13
-1.245264679e-13
-1.279930537e-13
-1.312628219e-13
-1.342952648e-13
-1.370691794e-13
-1.39567207e-13
-1.418182745e-13
-1.438595719e-13
-1.455919075e-13
-1.470828212e-13
-1.484905237e-13
-1.495715214e-13
-1.502923913e-13
-1.509382734e-13
-1.513852289e-13
-1.51594249e-13
-1.516360889e-13
-1.51443511e-13
-1.511062768e-13
-1.50608965e-13
-1.49985296e-13
-1.491542873e-13
-1.480682619e-13
-1.468527373e-13
-1.455795705e-13
-1.441539815e-13
-1.425866158e-13
-1.409373839e-13
-1.391925936e-13
-1.372850398e-13
-1.353318629e-13
-1.333117216e-13
-1.311011705e-13
-1.289642704e-13
-1.26779686e-13
-1.245105093e-13
-1.220951501e-13
-1.196122843e-13
-1.172488723e-13
-1.150817738e-13
-1.127526246e-13
-1.104010308e-13
-1.079951672e-13
-1.057021861e-13
-1.034854846e-13
-1.026883351e-13
-1.053839518e-13
-3.391214492e-14
3.864215e-14
2.692331503e-14
1.658889843e-14
1.62944976e-14
)


101
(
2.984568477e-15
8.852396566e-15
1.134333572e-14
5.685459839e-15
7.900853834e-15
-9.471670862e-15
-9.519930043e-15
-8.255544547e-15
-7.512136088e-15
-7.035739354e-15
-6.776834521e-15
-6.607198128e-15
-6.641227122e-15