/*--------------------------------*- C++ -*----------------------------------*\
| =========                 |                                                 |
| \\      /  F ield         | OpenFOAM: The Open Source CFD Toolbox           |
|  \\    /   O peration     | Version:  2.3.1                                 |
|   \\  /    A nd           | Web:      www.OpenFOAM.org                      |
|    \\/     M anipulation  |                                                 |
\*---------------------------------------------------------------------------*/
FoamFile
{
    version     2.0;
    format      ascii;
    class       dictionary;
    location    "constant";
    object      PM49;
}
// * * * * * * * * * * * * * * * * * * * * * * * * * * * * * * * * * * * * * //

PM49_table
101
(

101
(
7.243737981e-27
1.405314339e-25
2.35588125e-24
3.980380314e-24
-1.524383382e-23
-6.017990218e-23
-1.040011277e-22
-1.950923674e-22
-2.990028693e-22
-4.135496423e-22
-5.185980795e-22
-6.050588465e-22
-6.741676344e-22
-6.977455455e-22
-6.858373792e-22
-6.476855955e-22
-5.822113623e-22
-4.941778201e-22
-4.06410583e-22
-3.225746855e-22
-2.487373193e-22
-1.75146798e-22
-1.251086674e-22
-9.042835912e-23
-6.386120707e-23
-4.419256188e-23
-3.015901609e-23
-1.964945672e-23
-1.298899694e-23
-8.465481247e-24
-5.530310819e-24
-3.661419734e-24
-1.271618022e-24
-1.08938166e-24
-9.635799854e-25
-1.302537113e-25
1.280470659e-25
-1.906010378e-24
-1.330780422e-24
-6.854524552e-25
-5.031665036e-25
-3.412828942e-25
-2.325184279e-25
-1.691363987e-25
-1.071281917e-25
-6.806537757e-26
-3.935168802e-26
-2.330890353e-26
-1.276548238e-26
-7.327201228e-27
-3.893617995e-27
-1.721700132e-27
-6.019768476e-28
-1.168210142e-28
1.214582679e-28
4.124963522e-28
3.050497694e-28
2.731072302e-28
2.21176471e-28
1.694673845e-28
1.181734687e-28
7.759845332e-29
5.262525467e-29
3.434496093e-29
2.067354785e-29
1.21396357e-29
7.058667627e-30
4.021334826e-30
2.120358139e-30
1.061158018e-30
5.138462098e-31
2.383276847e-31
1.038001028e-31
4.077136122e-32
1.4576489e-32
3.931938586e-33
1.003389219e-33
3.947670101e-34
1.250319301e-34
3.405581145e-35
8.986435686e-36
1.879371735e-36
3.030534897e-37
3.101114156e-38
-1.257408924e-38
-8.106827649e-40
2.044217327e-39
7.438858112e-40
1.216411826e-40
2.166847532e-41
2.967899507e-42
4.594658509e-43
6.498370512e-44
5.471860584e-45
6.983941396e-46
8.241053742e-47
2.964136674e-49
3.670038692e-55
3.624478753e-63
-9.35924712e-55
7.759611604e-53
)


101
(
1.477822231e-27
1.248989243e-25
2.177995175e-24
3.627048752e-24
-1.272040999e-23
-4.871909109e-23
-7.934899133e-23
-1.422377162e-22
-2.063741591e-22
-2.708087827e-22
-3.204502565e-22
-3.520918918e-22
-3.696609104e-22
-3.558327533e-22
-3.226979902e-22
-2.797013168e-22
-2.276707875e-22
-1.694529305e-22
-1.218928331e-22
-8.114404312e-23
-5.054530456e-23
-2.22798535e-23
-8.222472483e-24
-1.136223096e-24
3.144884868e-24
5.334643705e-24
6.122003996e-24
6.431782448e-24
5.849911391e-24
5.168962321e-24
4.398699508e-24
3.655036224e-24
3.504421449e-24
2.474524078e-24
1.791246452e-24
1.641319341e-24
1.357571538e-24
-6.623183599e-27
1.234967652e-25
1.243235493e-25
1.162866358e-25
1.199041175e-25
1.043088185e-25
8.727927847e-26
7.876304037e-26
6.655972183e-26
5.730397233e-26
4.622975768e-26
3.7185735e-26
2.868123287e-26
2.205237067e-26
1.66819589e-26
1.245098729e-26
9.152430217e-27
6.660752913e-27
4.842321826e-27
3.369589742e-27
2.366533639e-27
1.613386554e-27
1.092732316e-27
7.237666341e-28
4.728102805e-28
3.030014235e-28
1.908845058e-28
1.179047601e-28
7.140789102e-29
4.214785621e-29
2.428325912e-29
1.365483588e-29
7.438568646e-30
3.922983251e-30
1.997270581e-30
9.912044531e-31
4.712003785e-31
2.141278841e-31
9.286021166e-32
3.8438202e-32
1.530013453e-32
5.856361973e-33
2.120627383e-33
7.207381414e-34
2.229982902e-34
6.521064574e-35
1.719996182e-35
3.99084565e-36
8.502383703e-37
1.923648374e-37
5.800194034e-38
1.346993008e-38
2.679428208e-39
5.784527832e-40
1.241832547e-40
2.79048749e-41
4.867033586e-42
8.87949126e-43
1.523120282e-43
2.151004436e-45
2.005674587e-45
-1.966789401e-35
-2.507736538e-35
2.198179809e-31
)


101
(
-3.189151381e-27
1.608206644e-25
2.414183006e-24
5.369627187e-24
-2.673490261e-24
-1.998004986e-23
-2.433929252e-23
-3.819618899e-23
-3.854462812e-23
-2.696098307e-23
3.428772851e-24
4.824466278e-23
9.890666414e-23
1.594470462e-22
2.18219885e-22
2.653802578e-22
2.983580128e-22
3.182133144e-22
3.148199273e-22
2.994954055e-22
2.7072569e-22
2.372156157e-22
2.006982211e-22
1.643501466e-22
1.31506315e-22
1.033808482e-22
8.005649999e-23
6.141270011e-23
4.675712824e-23
3.546311241e-23
2.686782357e-23
2.031932459e-23
1.55185788e-23
1.176473397e-23
8.771841748e-24
6.681302154e-24
5.407028427e-24
3.75314334e-24
2.732017339e-24
2.104592e-24
1.628439181e-24
1.257744672e-24
9.720398602e-25
7.458528036e-25
5.71073184e-25
4.377496977e-25
3.346575228e-25
2.545596491e-25
1.92285429e-25
1.442295628e-25
1.072871528e-25
7.928230002e-26
5.823031557e-26
4.243187946e-26
3.062705103e-26
2.193104341e-26
1.552245588e-26
1.088370404e-26
7.550665676e-27
5.173596057e-27
3.511839304e-27
2.35513407e-27
1.558492169e-27
1.019598941e-27
6.572513479e-28
4.160314781e-28
2.589291331e-28
1.580734081e-28
9.520637111e-29
5.613936276e-29
3.230035036e-29
1.811988464e-29
9.971285004e-30
5.330827507e-30
2.75966278e-30
1.382124731e-30
6.662203868e-31
3.104470016e-31
1.39714611e-31
6.079818245e-32
2.546783827e-32
1.001702513e-32
3.75153418e-33
1.325393385e-33
4.322239004e-34
1.295455092e-34
3.569854927e-35
1.033559137e-35
2.903446336e-36
7.022035719e-37
1.504109403e-37
3.500862343e-38
8.591358177e-39
1.959721407e-39
4.595143287e-40
8.9836557e-41
1.2662162e-42
-1.83769484e-42
1.314560573e-39
-2.065229761e-29
-4.130459491e-29
)


101
(
-6.96805512e-27
1.832743858e-25
2.549765324e-24
6.47744016e-24
4.034915207e-24
-9.596908639e-25
1.125735849e-23
2.763845192e-23
6.572162767e-23
1.226453748e-22
2.007194978e-22
2.918439024e-22
3.85333032e-22
4.784891922e-22
5.596705952e-22
6.184485919e-22
6.505633143e-22
6.575872647e-22
6.326409296e-22
5.886689966e-22
5.269213834e-22
4.569109616e-22
3.859530621e-22
3.17549775e-22
2.556936668e-22
2.024399725e-22
1.580181208e-22
1.220436757e-22
9.363484417e-23
7.152451525e-23
5.454543436e-23
4.161278749e-23
3.176655003e-23
2.440012672e-23
1.853078284e-23
1.432823731e-23
1.129876266e-23
8.559867946e-24
6.504510912e-24
5.030496097e-24
3.911810511e-24
3.043813321e-24
2.370963311e-24
1.839563316e-24
1.422543738e-24
1.100569129e-24
8.491928342e-25
6.536055845e-25
5.003108114e-25
3.813822424e-25
2.88747286e-25
2.174436455e-25
1.629457438e-25
1.214776469e-25
8.99681845e-26
6.605394756e-26
4.818947562e-26
3.489531599e-26
2.507653906e-26
1.781801134e-26
1.257340583e-26
8.801992323e-27
6.098656874e-27
4.192507916e-27
2.851642622e-27
1.909679545e-27
1.262255702e-27
8.233096308e-28
5.312373804e-28
3.382022701e-28
2.104381365e-28
1.286266729e-28
7.726105575e-29
4.55480602e-29
2.622457901e-29
1.472766266e-29
8.007673083e-30
4.244706496e-30
2.183001627e-30
1.092313808e-30
5.319322706e-31
2.481113423e-31
1.108682452e-31
4.765600781e-32
1.937866936e-32
7.385705067e-33
2.610790972e-33
8.958593065e-34
3.041863225e-34
9.643553285e-35
2.660021724e-35
7.064338449e-36
1.824912022e-36
4.596403918e-37
1.218513041e-37
2.548900486e-38
7.759951964e-40
-1.738056369e-39
5.294320947e-38
-8.356638842e-38
-6.599487287e-31
)


101
(
-1.002367701e-26
1.956157207e-25
2.614387284e-24
7.157241064e-24
8.525739789e-24
1.1825632e-23
3.503404598e-23
7.135878801e-23
1.350141379e-22
2.230015236e-22
3.35353668e-22
4.621714043e-22
5.916373423e-22
7.169155809e-22
8.255333218e-22
9.057353524e-22
9.509959389e-22
9.615174514e-22
9.315679988e-22
8.737272168e-22
7.912151229e-22
6.947257306e-22
5.952305198e-22
4.975454403e-22
4.072450312e-22
3.277598395e-22
2.600688392e-22
2.040806912e-22
1.590064147e-22
1.232503086e-22
9.534215906e-23
7.369299525e-23
5.687686252e-23
4.426671108e-23
3.429275776e-23
2.684785074e-23
2.09998061e-23
1.639507705e-23
1.279722859e-23
1.003854952e-23
7.912842915e-24
6.23934586e-24
4.924952248e-24
3.879298634e-24
3.04583514e-24
2.390679986e-24
1.873065084e-24
1.466795215e-24
1.145425072e-24
8.918680328e-25
6.905968771e-25
5.321643986e-25
4.085321604e-25
3.126294433e-25
2.381616457e-25
1.801741749e-25
1.357126364e-25
1.015704347e-25
7.565881172e-26
5.582857742e-26
4.093757612e-26
2.988556114e-26
2.162140997e-26
1.555857995e-26
1.111414878e-26
7.846725125e-27
5.483355584e-27
3.789665533e-27
2.588967405e-27
1.757675949e-27
1.171736258e-27
7.703510076e-28
4.981558433e-28
3.174867624e-28
1.986073117e-28
1.218956228e-28
7.326998549e-29
4.306835453e-29
2.455844249e-29
1.369766195e-29
7.464841271e-30
3.982168807e-30
2.038994452e-30
1.014120809e-30
4.841489113e-31
2.209731995e-31
9.444874072e-32
3.882584334e-32
1.550172236e-32
6.022526121e-33
2.114001149e-33
6.971995786e-34
2.254382961e-34
6.701968536e-35
2.052443681e-35
4.960420471e-36
2.901607285e-37
-1.512886911e-37
3.797548619e-36
-4.258749251e-35
-4.50059557e-34
)


101
(
-1.248571639e-26
2.004124061e-25
2.629142402e-24
7.548644789e-24
1.153852113e-23
2.05799782e-23
5.151155704e-23
1.020319449e-22
1.845906984e-22
2.968347079e-22
4.378939164e-22
5.970480799e-22
7.616343128e-22
9.219704632e-22
1.064055926e-21
1.174297451e-21
1.243640736e-21
1.269685861e-21
1.246386699e-21
1.18528408e-21
1.090418168e-21
9.73581835e-22
8.489281575e-22
7.228136165e-22
6.028089527e-22
4.943629058e-22
3.996895569e-22
3.194417012e-22
2.533316451e-22
1.997518203e-22
1.570673795e-22
1.232706796e-22
9.651995008e-23
7.615622629e-23
5.994862877e-23
4.73731713e-23
3.752047099e-23
2.973393891e-23
2.361215023e-23
1.882956218e-23
1.506787694e-23
1.205762319e-23
9.659880906e-24
7.73175134e-24
6.170650984e-24
4.922060774e-24
3.922447244e-24
3.13005497e-24
2.495497817e-24
1.985391021e-24
1.573655363e-24
1.241830023e-24
9.771103794e-25
7.672953526e-25
6.011779561e-25
4.683329454e-25
3.634478401e-25
2.808431575e-25
2.160813918e-25
1.649770663e-25
1.255043024e-25
9.518654863e-26
7.166499829e-26
5.369784265e-26
4.002432884e-26
2.95878004e-26
2.168050208e-26
1.574015606e-26
1.132309859e-26
8.089512876e-27
5.709888262e-27
3.989019755e-27
2.751221371e-27
1.873100562e-27
1.255559044e-27
8.28855033e-28
5.397625617e-28
3.444181173e-28
2.145680585e-28
1.310349334e-28
7.837913847e-29
4.622988291e-29
2.642456702e-29
1.470966638e-29
7.974499243e-30
4.165627883e-30
2.075234457e-30
9.886560211e-31
4.599685112e-31
2.096944686e-31
8.889748777e-32
3.506852115e-32
1.381262699e-32
5.071926968e-33
1.857455706e-33
5.252391497e-34
4.750635141e-35
-2.854425324e-35
1.363729412e-33
-3.157668508e-33
-2.26156687e-31
)


101
(
-1.445691357e-26
1.996388861e-25
2.609061967e-24
7.745831494e-24
1.356200474e-23
2.670627756e-23
6.340958089e-23
1.248208369e-22
2.226548983e-22
3.557152394e-22
5.231154915e-22
7.138017001e-22
9.145170119e-22
1.113402166e-21
1.294716047e-21
1.442710576e-21
1.545664817e-21
1.597926893e-21
1.59197347e-21
1.537746455e-21
1.438960438e-21
1.308014934e-21
1.161924836e-21
1.008570172e-21
8.576720287e-22
7.173298178e-22
5.915246919e-22
4.82056742e-22
3.895857677e-22
3.128647497e-22
2.50347964e-22
1.998696826e-22
1.590375776e-22
1.273676377e-22
1.018998778e-22
8.167629996e-23
6.556696949e-23
5.268865122e-23
4.24661485e-23
3.437171408e-23
2.791667404e-23
2.267044436e-23
1.844456221e-23
1.500556961e-23
1.217981022e-23
9.883365726e-24
8.01581007e-24
6.513750669e-24
5.294890793e-24
4.300684e-24
3.485464728e-24
2.813361286e-24
2.266824739e-24
1.824894298e-24
1.466937743e-24
1.173899932e-24
9.373816133e-25
7.457420862e-25
5.911556408e-25
4.657676869e-25
3.658266339e-25
2.86602549e-25
2.232935322e-25
1.734261167e-25
1.341914089e-25
1.032346749e-25
7.880715194e-26
5.977150396e-26
4.496900189e-26
3.362687695e-26
2.496398476e-26
1.834826602e-26
1.335347774e-26
9.60826827e-27
6.831432159e-27
4.794843799e-27
3.331404085e-27
2.279285966e-27
1.53366954e-27
1.01284901e-27
6.560293271e-28
4.187474026e-28
2.626038627e-28
1.603427915e-28
9.617758752e-29
5.606182083e-29
3.155941568e-29
1.703156594e-29
9.033709343e-30
4.66974596e-30
2.318646169e-30
1.067837672e-30
4.934872427e-31
2.17584196e-31
9.254989841e-32
3.305138374e-32
5.477727365e-33
5.83926617e-33
2.03106596e-31
3.459471559e-30
4.120441505e-30
)


101
(
-1.601920196e-26
2.008035774e-25
2.653504083e-24
7.812303065e-24
1.491906619e-23
3.109932957e-23
7.23793726e-23
1.427182696e-22
2.536983364e-22
4.056852652e-22
5.984037472e-22
8.207947194e-22
1.059278854e-21
1.300299778e-21
1.52645047e-21
1.719698875e-21
1.865562916e-21
1.95483819e-21
1.977570372e-21
1.941457415e-21
1.848764742e-21
1.711620774e-21
1.549293471e-21
1.37132266e-21
1.18938746e-21
1.014777187e-21
8.538677204e-22
7.100022474e-22
5.852028895e-22
4.790234064e-22
3.904325671e-22
3.173623475e-22
2.569376245e-22
2.090828541e-22
1.700659855e-22
1.384802556e-22
1.128135101e-22
9.196093623e-23
7.519967797e-23
6.172757522e-23
5.085673005e-23
4.193028356e-23
3.464343728e-23
2.863231554e-23
2.362813835e-23
1.950219161e-23
1.60931388e-23
1.330955098e-23
1.102425046e-23
9.132018212e-24
7.549602436e-24
6.225297608e-24
5.130041267e-24
4.221259391e-24
3.472369145e-24
2.850217823e-24
2.334643997e-24
1.906031882e-24
1.552644954e-24
1.258676003e-24
1.017817838e-24
8.215286404e-25
6.596038434e-25
5.28628233e-25
4.225422549e-25
3.366997352e-25
2.669944592e-25
2.104714762e-25
1.647238669e-25
1.280128499e-25
9.899278196e-26
7.591974984e-26
5.796335145e-26
4.38659638e-26
3.281912362e-26
2.429855538e-26
1.783809536e-26
1.294629715e-26
9.278128353e-27
6.535159032e-27
4.539469164e-27
3.108440983e-27
2.107868392e-27
1.39517613e-27
9.11303629e-28
5.791831542e-28
3.620423438e-28
2.172993564e-28
1.286637964e-28
7.445487515e-29
4.164770394e-29
2.200944566e-29
1.169736768e-29
6.019453385e-30
2.945137168e-30
1.29232275e-30
3.477938867e-31
7.268681364e-31
1.360497098e-29
2.797679562e-29
-8.216558392e-29
)


101
(
-1.723844765e-26
1.91723054e-25
2.585635028e-24
7.790765962e-24
1.582238195e-23
3.432377258e-23
7.940562488e-23
1.574312274e-22
2.801852298e-22
4.499216073e-22
6.674849505e-22
9.221477796e-22
1.200268329e-21
1.487105025e-21
1.763756393e-21
2.010006202e-21
2.208569429e-21
2.346503017e-21
2.410674342e-21
2.405873463e-21
2.331752807e-21
2.198968342e-21
2.027993855e-21
1.830502717e-21
1.619472729e-21
1.409726837e-21
1.210542029e-21
1.027228096e-21
8.636675306e-22
7.207449067e-22
5.985056832e-22
4.954267004e-22
4.083037213e-22
3.377991846e-22
2.792870252e-22
2.310636231e-22
1.911961966e-22
1.582810205e-22
1.314037742e-22
1.094118901e-22
9.141750152e-23
7.644915245e-23
6.408151834e-23
5.377043335e-23
4.509441786e-23
3.784709654e-23
3.176582195e-23
2.673266705e-23
2.253285291e-23
1.899582407e-23
1.600059461e-23
1.347015386e-23
1.13309451e-23
9.521042625e-24
8.004698016e-24
6.714520053e-24
5.627407429e-24
4.701687977e-24
3.925752671e-24
3.266886302e-24
2.711472491e-24
2.247687545e-24
1.855263789e-24
1.529817895e-24
1.258999472e-24
1.033890854e-24
8.464824643e-25
6.892447514e-25
5.580311605e-25
4.495083593e-25
3.608158383e-25
2.880136769e-25
2.287706494e-25
1.803859958e-25
1.410753394e-25
1.095158844e-25
8.427063804e-26
6.431316525e-26
4.86984302e-26
3.632806109e-26
2.673124372e-26
1.950478738e-26
1.409575301e-26
1.0046493e-26
7.033567049e-27
4.824395247e-27
3.288854401e-27
2.164723008e-27
1.40672084e-27
8.972771801e-28
5.552102718e-28
3.321709259e-28
1.978939574e-28
1.156703937e-28
6.396590181e-29
3.215736308e-29
1.329405038e-29
3.396947246e-29
4.39630969e-28
1.657333518e-27
-3.410661463e-28
)


101
(
-1.816796345e-26
1.773961573e-25
2.432573979e-24
8.079999116e-24
1.641340625e-23
3.674113392e-23
8.507808376e-23
1.69921551e-22
3.035043263e-22
4.901865105e-22
7.323377966e-22
1.019929149e-21
1.339615584e-21
1.676013844e-21
2.009026886e-21
2.316470712e-21
2.578285021e-21
2.777748751e-21
2.89793297e-21
2.940070376e-21
2.900086566e-21
2.785856138e-21
2.617824586e-21
2.409367246e-21
2.174415965e-21
1.931231535e-21
1.6921635e-21
1.464991632e-21
1.256118814e-21
1.068453788e-21
9.037380151e-22
7.615489405e-22
6.386860804e-22
5.372351923e-22
4.514162422e-22
3.795117478e-22
3.191765591e-22
2.685576319e-22
2.263791039e-22
1.911705878e-22
1.619160933e-22
1.372504954e-22
1.166980236e-22
9.938318492e-23
8.467229866e-23
7.223918537e-23
6.163989726e-23
5.271465294e-23
4.512954199e-23
3.867544224e-23
3.316435532e-23
2.845311742e-23
2.439864814e-23
2.091182789e-23
1.790602714e-23
1.532295511e-23
1.311641921e-23
1.119840523e-23
9.565482175e-24
8.149203676e-24
6.92565021e-24
5.878677253e-24
4.976727441e-24
4.208121301e-24
3.551084465e-24
2.990987146e-24
2.518258276e-24
2.111247489e-24
1.764559931e-24
1.467972473e-24
1.216814217e-24
1.003689057e-24
8.254002723e-25
6.758628e-25
5.499020244e-25
4.43979552e-25
3.559056531e-25
2.840382247e-25
2.250910775e-25
1.762890101e-25
1.365863187e-25
1.052338064e-25
8.032848491e-26
6.082872236e-26
4.528314447e-26
3.313020777e-26
2.41550446e-26
1.718060729e-26
1.205765802e-26
8.383263637e-27
5.645900776e-27
3.732542504e-27
2.452256192e-27
1.589498421e-27
9.837740168e-28
5.539133049e-28
3.167290125e-28
8.445668296e-28
7.575400457e-27
3.927046118e-26
5.035455091e-26
)


101
(
-1.885120705e-26
1.66396982e-25
2.35377306e-24
7.938938982e-24
1.678588027e-23
3.858513626e-23
8.976192782e-23
1.807580789e-22
3.244667056e-22
5.275191585e-22
7.940841067e-22
1.115282647e-21
1.478486432e-21
1.868287699e-21
2.263800548e-21
2.641182579e-21
2.977636156e-21
3.252826686e-21
3.445688434e-21
3.553278636e-21
3.566719257e-21
3.489831618e-21
3.341686177e-21
3.135242926e-21
2.886166231e-21
2.614997901e-21
2.336898645e-21
2.062936698e-21
1.802946628e-21
1.562531791e-21
1.345709899e-21
1.153829539e-21
9.842353697e-22
8.416750579e-22
7.187110683e-22
6.139475721e-22
5.247224558e-22
4.485925345e-22
3.838117232e-22
3.287238689e-22
2.822721511e-22
2.42576241e-22
2.091475826e-22
1.807266663e-22
1.56359719e-22
1.355059519e-22
1.174141065e-22
1.019010174e-22
8.853825571e-23
7.707278554e-23
6.717651467e-23
5.861327601e-23
5.115241654e-23
4.460403734e-23
3.885558843e-23
3.39199019e-23
2.958190397e-23
2.576064042e-23
2.243607189e-23
1.952168999e-23
1.695124386e-23
1.470520577e-23
1.273218985e-23
1.100326937e-23
9.499254776e-24
8.19462974e-24
7.065005108e-24
6.079544048e-24
5.220796992e-24
4.465415215e-24
3.808833807e-24
3.236647356e-24
2.744552116e-24
2.319261346e-24
1.950164417e-24
1.629124532e-24
1.354970397e-24
1.123584149e-24
9.245400941e-25
7.549108753e-25
6.117620783e-25
4.927582213e-25
3.9441525e-25
3.139397379e-25
2.460458961e-25
1.899489667e-25
1.462872214e-25
1.11110296e-25
8.337375974e-26
6.179016739e-26
4.468261429e-26
3.206467372e-26
2.277680855e-26
1.601967681e-26
1.086094825e-26
6.747118795e-27
4.983143049e-27
1.30272086e-26
8.105833189e-26
2.292729069e-25
2.115519917e-25
)


101
(
-1.932400669e-26
1.54625154e-25
2.270597553e-24
7.440249913e-24
1.700142405e-23
4.000523517e-23
9.368388467e-23
1.902893264e-22
3.435493782e-22
5.624961115e-22
8.533282767e-22
1.208870725e-21
1.617607451e-21
2.064802551e-21
2.529297826e-21
2.985966974e-21
3.409461115e-21
3.776035897e-21
4.060623064e-21
4.255555811e-21
4.345631489e-21
4.329693385e-21
4.223657959e-21
4.037565464e-21
3.788997615e-21
3.49981073e-21
3.18805103e-21
2.868320344e-21
2.554382771e-21
2.254870709e-21
1.976781586e-21
1.724225976e-21
1.495839534e-21
1.300228639e-21
1.128014068e-21
9.786938951e-22
8.494734252e-22
7.372698141e-22
6.399587145e-22
5.560379675e-22
4.841644841e-22
4.218146648e-22
3.686176307e-22
3.22988783e-22
2.834533567e-22
2.492024011e-22
2.190838942e-22
1.928829607e-22
1.700163023e-22
1.501888555e-22
1.328562574e-22
1.177068444e-22
1.043674244e-22
9.247125749e-23
8.196885933e-23
7.276384909e-23
6.452911759e-23
5.716925688e-23
5.068605296e-23
4.494253216e-23
3.97864578e-23
3.519259999e-23
3.108780347e-23
2.741985932e-23
2.415686431e-23
2.128632454e-23
1.874727863e-23
1.650246755e-23
1.450795656e-23
1.271104796e-23
1.111818777e-23
9.699312537e-24
8.438529012e-24
7.322760823e-24
6.333115859e-24
5.454741127e-24
4.682212388e-24
4.003349601e-24
3.406340353e-24
2.881601106e-24
2.420561603e-24
2.023219623e-24
1.684259837e-24
1.393553589e-24
1.140951224e-24
9.228300933e-25
7.425451289e-25
5.931256129e-25
4.685080795e-25
3.656042217e-25
2.805584098e-25
2.145239995e-25
1.62396607e-25
1.216145455e-25
8.846315909e-26
5.939846481e-26
5.186644395e-26
1.257606548e-25
6.02767879e-25
1.650371246e-24
1.877578631e-24
)


101
(
-1.961608536e-26
1.434050806e-25
2.184988581e-24
7.273431625e-24
1.710140425e-23
4.109935177e-23
9.69831648e-23
1.987217086e-22
3.610837627e-22
5.955214456e-22
9.103979701e-22
1.301078387e-21
1.757415426e-21
2.266026807e-21
2.806239412e-21
3.352163503e-21
3.876503342e-21
4.352207189e-21
4.750288976e-21
5.05788144e-21
5.251309148e-21
5.324246971e-21
5.287542667e-21
5.146880799e-21
4.920332886e-21
4.630144522e-21
4.297230961e-21
3.939109224e-21
3.573581e-21
3.212177967e-21
2.865679049e-21
2.542393091e-21
2.243084618e-21
1.981289837e-21
1.745554757e-21
1.537200001e-21
1.353765363e-21
1.191803796e-21
1.049232967e-21
9.248609266e-22
8.165312502e-22
7.210136247e-22
6.383263978e-22
5.666411204e-22
5.038340082e-22
4.488752918e-22
4.000873618e-22
3.571161467e-22
3.191525593e-22
2.859162742e-22
2.563681629e-22
2.302823936e-22
2.072053687e-22
1.863870121e-22
1.677645737e-22
1.51069686e-22
1.361315477e-22
1.225096718e-22
1.10437673e-22
9.955656522e-23
8.970793637e-23
8.074410806e-23
7.259950755e-23
6.519752613e-23
5.855615187e-23
5.257934828e-23
4.716586491e-23
4.234101103e-23
3.795228943e-23
3.396921495e-23
3.037204789e-23
2.709956098e-23
2.410399368e-23
2.140035364e-23
1.895073165e-23
1.673178073e-23
1.473169493e-23
1.294633095e-23
1.131874218e-23
9.849117487e-24
8.519419755e-24
7.346135712e-24
6.303800475e-24
5.382577277e-24
4.56522018e-24
3.830326035e-24
3.190897523e-24
2.649073936e-24
2.178097443e-24
1.774027548e-24
1.425006641e-24
1.142950278e-24
9.066317783e-25
7.149820131e-25
5.476388403e-25
3.907520756e-25
3.902606302e-25
8.793087671e-25
3.299509423e-24
7.138636609e-24
7.303055889e-24
)


101
(
-1.975229576e-26
1.30570806e-25
2.098411109e-24
7.094146327e-24
1.711371534e-23
4.193306739e-23
9.975243725e-23
2.061898565e-22
3.77287743e-22
6.268817461e-22
9.654908026e-22
1.392151451e-21
1.898184775e-21
2.472228456e-21
3.095123347e-21
3.740910364e-21
4.38138252e-21
4.986346189e-21
5.522581133e-21
5.972239972e-21
6.299612733e-21
6.494088701e-21
6.560039838e-21
6.498440533e-21
6.325317726e-21
6.060836256e-21
5.728077868e-21
5.34657829e-21
4.938133305e-21
4.517367255e-21
4.099724247e-21
3.69858014e-21
3.317285742e-21
2.976034982e-21
2.661126926e-21
2.377140232e-21
2.122767019e-21
1.894697072e-21
1.691400498e-21
1.511852806e-21
1.352974881e-21
1.210606411e-21
1.08550184e-21
9.755064262e-22
8.779506412e-22
7.919261331e-22
7.149738504e-22
6.46435376e-22
5.853626542e-22
5.311365152e-22
4.821374308e-22
4.387237938e-22
4.001932437e-22
3.649389005e-22
3.330174401e-22
3.041764651e-22
2.781150327e-22
2.540217728e-22
2.322814924e-22
2.125226611e-22
1.945251734e-22
1.778403197e-22
1.624087444e-22
1.483077375e-22
1.354899684e-22
1.235934442e-22
1.127803614e-22
1.028325839e-22
9.381845397e-23
8.557767963e-23
7.79223062e-23
7.084015556e-23
6.42202455e-23
5.813419641e-23
5.249707654e-23
4.728309551e-23
4.255959498e-23
3.819625491e-23
3.413853892e-23
3.040952198e-23
2.692053707e-23
2.376572573e-23
2.089532684e-23
1.830063197e-23
1.592601624e-23
1.37409837e-23
1.178411981e-23
1.006270763e-23
8.537663648e-24
7.191549078e-24
5.972013325e-24
4.970790893e-24
4.076035264e-24
3.341229667e-24
2.65971465e-24
1.988898029e-24
2.173207586e-24
4.581130338e-24
1.398605362e-23
2.86707196e-23
2.886823724e-23
)


101
(
-1.975382983e-26
1.182148323e-25
2.060233852e-24
6.906458268e-24
1.705732002e-23
4.255035109e-23
1.020594902e-22
2.12791765e-22
3.922862169e-22
6.567432873e-22
1.018861012e-21
1.482208339e-21
2.040111879e-21
2.683802053e-21
3.396730663e-21
4.153667024e-21
4.926411145e-21
5.682298797e-21
6.383829173e-21
7.007249786e-21
7.50399385e-21
7.859782924e-21
8.071473755e-21
8.132677453e-21
8.055588127e-21
7.85579265e-21
7.555855602e-21
7.175723402e-21
6.741645094e-21
6.272353488e-21
5.78888383e-21
5.309005945e-21
4.837745985e-21
4.405710961e-21
3.996288224e-21
3.619344715e-21
3.275703024e-21
2.962882451e-21
2.680730993e-21
2.428313212e-21
2.202159151e-21
1.995980136e-21
1.81171945e-21
1.647341837e-21
1.499954013e-21
1.368858696e-21
1.250482829e-21
1.144375627e-21
1.048870042e-21
9.627529303e-22
8.844430393e-22
8.147735702e-22
7.523052423e-22
6.947477722e-22
6.422985154e-22
5.944174096e-22
5.506411493e-22
5.097320483e-22
4.72100383e-22
4.378401373e-22
4.06101347e-22
3.764325628e-22
3.486592661e-22
3.233319791e-22
2.996960234e-22
2.773497257e-22
2.56707723e-22
2.375572656e-22
2.200736778e-22
2.036989573e-22
1.883365912e-22
1.739525971e-22
1.60262599e-22
1.474684942e-22
1.353437226e-22
1.238953729e-22
1.133531245e-22
1.033862215e-22
9.416296038e-23
8.533610598e-23
7.693196424e-23
6.919914871e-23
6.196707677e-23
5.530255568e-23
4.912410392e-23
4.330166461e-23
3.792249023e-23
3.30697458e-23
2.870615211e-23
2.476216284e-23
2.107156564e-23
1.798406656e-23
1.513534847e-23
1.276126315e-23
1.045681832e-23
8.05133812e-24
9.279817487e-24
1.834203624e-23
4.759513705e-23
1.026344187e-22
1.230328868e-22
)


101
(
-1.963881452e-26
1.064761714e-25
1.970346966e-24
6.713187786e-24
1.694546228e-23
4.298209174e-23
1.039530587e-22
2.185973647e-22
4.06173028e-22
6.852398687e-22
1.07076362e-21
1.571243997e-21
2.183267241e-21
2.901152258e-21
3.711932703e-21
4.592022292e-21
5.513669683e-21
6.442727598e-21
7.338049767e-21
8.167553843e-21
8.875487966e-21
9.441411235e-21
9.854208385e-21
1.009362852e-20
1.016838109e-20
1.008733363e-20
9.867020177e-21
9.526342487e-21
9.097247955e-21
8.603225545e-21
8.070320301e-21
7.519505447e-21
6.957489301e-21
6.428580297e-21
5.912511463e-21
5.427245111e-21
4.976497781e-21
4.559305632e-21
4.178211143e-21
3.833600132e-21
3.520430822e-21
3.230050272e-21
2.967096035e-21
2.728934596e-21
2.512277108e-21
2.317665695e-21
2.141098109e-21
1.982162403e-21
1.836766834e-21
1.70464247e-21
1.5842112e-21
1.476053919e-21
1.377896876e-21
1.287700617e-21
1.204568872e-21
1.127494697e-21
1.05716919e-21
9.907281629e-22
9.284278488e-22
8.706160816e-22
8.176413107e-22
7.67531783e-22
7.203755252e-22
6.770508949e-22
6.350355931e-22
5.956185784e-22
5.583594511e-22
5.235059478e-22
4.908351134e-22
4.595957435e-22
4.306579646e-22
4.029013971e-22
3.76318426e-22
3.510061455e-22
3.26278243e-22
3.025856952e-22
2.800457265e-22
2.590764557e-22
2.391108159e-22
2.195704065e-22
2.009265277e-22
1.832232936e-22
1.662155388e-22
1.50558369e-22
1.355999157e-22
1.213684548e-22
1.079544601e-22
9.558998863e-23
8.422931731e-23
7.384974426e-23
6.4017347e-23
5.55302531e-23
4.766895042e-23
4.093814717e-23
3.419896987e-23
2.682229713e-23
3.207065995e-23
5.988446063e-23
1.361522888e-22
2.283349736e-22
2.339856666e-22
)


101
(
-1.942284698e-26
9.409659407e-26
1.840279875e-24
6.516330319e-24
1.678764414e-23
4.325192031e-23
1.054705996e-22
2.236606974e-22
4.189833533e-22
7.124342751e-22
1.121355151e-21
1.659285542e-21
2.327668359e-21
3.124505513e-21
4.041280692e-21
5.057180219e-21
6.145155302e-21
7.270820904e-21
8.390496999e-21
9.460266682e-21
1.042801242e-20
1.126170951e-20
1.194168464e-20
1.242719487e-20
1.272362175e-20
1.283132194e-20
1.275548507e-20
1.251206292e-20
1.213890453e-20
1.16626556e-20
1.111136578e-20
1.05098102e-20
9.868788609e-21
9.246890459e-21
8.620203445e-21
8.017813932e-21
7.446373289e-21
6.906901631e-21
6.406306043e-21
5.947952615e-21
5.526245397e-21
5.13097321e-21
4.767656786e-21
4.43287027e-21
4.124106606e-21
3.844629033e-21
3.590044297e-21
3.358739345e-21
3.144818741e-21
2.950197767e-21
2.771648158e-21
2.609373989e-21
2.461159138e-21
2.324987619e-21
2.197926986e-21
2.07915921e-21
1.971451758e-21
1.867499197e-21
1.768908288e-21
1.676458244e-21
1.591198194e-21
1.510849315e-21
1.435136075e-21
1.363470174e-21
1.29335717e-21
1.227730853e-21
1.162724017e-21
1.101386552e-21
1.043439466e-21
9.881453554e-22
9.357973244e-22
8.846366253e-22
8.353094474e-22
7.87386272e-22
7.395088533e-22
6.925349101e-22
6.478321413e-22
6.051360584e-22
5.637212022e-22
5.234556626e-22
4.843521854e-22
4.455018341e-22
4.082532631e-22
3.735852134e-22
3.39809184e-22
3.073126812e-22
2.760592186e-22
2.470105336e-22
2.196688e-22
1.947672028e-22
1.711072379e-22
1.498139565e-22
1.303019267e-22
1.132483105e-22
9.56962974e-23
7.595017333e-23
9.302233962e-23
1.655213409e-22
3.416052289e-22
5.609837859e-22
5.745562486e-22
)


101
(
-1.91189498e-26
8.302075721e-26
1.755936946e-24
6.317323477e-24
1.723773633e-23
4.337776406e-23
1.066420752e-22
2.28026733e-22
4.306758614e-22
7.382012797e-22
1.170757984e-21
1.746475618e-21
2.473457916e-21
3.353832748e-21
4.384378262e-21
5.548384302e-21
6.820607157e-21
8.168080092e-21
9.545540494e-21
1.089881644e-20
1.218197313e-20
1.334935427e-20
1.436871186e-20
1.518105373e-20
1.578429957e-20
1.616972823e-20
1.632645278e-20
1.62629566e-20
1.602200292e-20
1.562915917e-20
1.511097228e-20
1.449828805e-20
1.380921039e-20
1.311466021e-20
1.238715505e-20
1.167046989e-20
1.097376809e-20
1.02997065e-20
9.653883108e-21
9.064155509e-21
8.522963413e-21
8.001857774e-21
7.516123668e-21
7.06245604e-21
6.638351954e-21
6.250986611e-21
5.895278163e-21
5.569653566e-21
5.268927678e-21
4.993853266e-21
4.739235061e-21
4.505301863e-21
4.290375722e-21
4.092695e-21
3.906860324e-21
3.733690244e-21
3.576085228e-21
3.421052098e-21
3.273806416e-21
3.135223412e-21
3.001544665e-21
2.878231059e-21
2.763151336e-21
2.649677006e-21
2.539197684e-21
2.432959027e-21
2.325745505e-21
2.223606806e-21
2.126094561e-21
2.032611411e-21
1.939126699e-21
1.849058326e-21
1.761454448e-21
1.674266261e-21
1.586181661e-21
1.498842996e-21
1.411775455e-21
1.326648516e-21
1.245687892e-21
1.166416024e-21
1.086958475e-21
1.006372916e-21
9.290613452e-22
8.557022371e-22
7.829600984e-22
7.131234495e-22
6.448799751e-22
5.806595505e-22
5.191857293e-22
4.637201549e-22
4.10420757e-22
3.611644244e-22
3.165288403e-22
2.767795112e-22
2.35272894e-22
1.879927042e-22
2.349112905e-22
4.031397421e-22
7.794623797e-22
1.260506811e-21
1.331010891e-21
)


101
(