/*--------------------------------*- C++ -*----------------------------------*\
| =========                 |                                                 |
| \\      /  F ield         | OpenFOAM: The Open Source CFD Toolbox           |
|  \\    /   O peration     | Version:  2.3.1                                 |
|   \\  /    A nd           | Web:      www.OpenFOAM.org                      |
|    \\/     M anipulation  |                                                 |
\*---------------------------------------------------------------------------*/
FoamFile
{
    version     2.0;
    format      ascii;
    class       dictionary;
    location    "constant";
    object      PM57;
}
// * * * * * * * * * * * * * * * * * * * * * * * * * * * * * * * * * * * * * //

PM57_table
101
(

101
(
2.338200023e-45
1.399802577e-43
-2.581128178e-42
-6.757333184e-41
-5.063184007e-40
-2.029290688e-39
-5.531152356e-39
-1.375685083e-38
-3.012139144e-38
-6.088723388e-38
-1.153974293e-37
-2.11182303e-37
-3.657682292e-37
-6.351282614e-37
-1.081077205e-36
-1.791034671e-36
-2.889127013e-36
-4.740357938e-36
-7.15339367e-36
-1.113704079e-35
-1.65543074e-35
-2.322664304e-35
-3.240392573e-35
-4.397717871e-35
-5.751098348e-35
-7.258830831e-35
-8.855742902e-35
-1.042462986e-34
-1.187579727e-34
-1.307937841e-34
-1.390486384e-34
-1.423280985e-34
-1.390900137e-34
-1.272305883e-34
-1.094727478e-34
1.476612265e-34
-1.993718739e-34
-1.708160223e-33
-2.129784603e-33
-2.161766671e-33
-2.167078834e-33
-2.158168283e-33
-2.121105858e-33
-2.060341091e-33
-1.984649214e-33
-1.885668729e-33
-1.772750237e-33
-1.641226125e-33
-1.498503438e-33
-1.342199148e-33
-1.178950634e-33
-1.00880749e-33
-8.341482235e-34
-6.576253058e-34
-4.816348176e-34
-3.083826379e-34
-1.349772766e-34
2.910295787e-35
1.885947889e-34
3.388011683e-34
4.800225716e-34
6.103862412e-34
7.294408918e-34
8.367269032e-34
9.31194624e-34
1.013051596e-33
1.081908034e-33
1.137835634e-33
1.180817999e-33
1.211044835e-33
1.229100048e-33
1.235646962e-33
1.230886711e-33
1.481347663e-33
1.16431423e-33
5.38357423e-34
4.046067185e-34
4.795469504e-34
5.296294591e-34
5.589964041e-34
5.718826517e-34
5.679650764e-34
6.729061362e-34
5.185373073e-34
2.097672869e-34
1.518942621e-34
1.950926952e-34
2.116876737e-34
2.662064969e-34
1.424354962e-34
6.88188534e-35
7.829608052e-35
8.441282822e-35
5.786361362e-35
3.02765893e-35
1.69635644e-35
2.70684805e-36
4.146192374e-42
-6.559413627e-52
-9.978725638e-52
-4.388872687e-52
)


101
(
1.592097572e-45
1.017596049e-43
-9.884568161e-43
-3.192648731e-41
-2.39228307e-40
-9.378771234e-40
-2.490202671e-39
-6.070454815e-39
-1.298051539e-38
-2.5583577e-38
-4.713822804e-38
-8.356591446e-38
-1.391373926e-37
-2.326827244e-37
-3.77109268e-37
-5.858404465e-37
-8.729630726e-37
-1.312032217e-36
-1.686316357e-36
-2.254789053e-36
-2.543778558e-36
-2.095083786e-36
-8.694599678e-37
2.123606672e-36
8.024410194e-36
1.808795813e-35
3.377737788e-35
5.676401626e-35
8.851188156e-35
1.305909468e-34
1.843194335e-34
2.50734452e-34
3.310938871e-34
4.265567255e-34
5.358282857e-34
6.600128754e-34
4.05905678e-34
-1.172568273e-34
-2.511979948e-36
1.349871228e-34
2.915553222e-34
4.623682488e-34
6.536625789e-34
8.600259869e-34
1.077772496e-33
1.309721187e-33
1.549834328e-33
1.799526262e-33
2.05333221e-33
2.311334796e-33
2.568271373e-33
2.82357016e-33
3.074471898e-33
3.318281593e-33
3.552597803e-33
3.775908154e-33
3.989052505e-33
4.183711037e-33
4.364025187e-33
4.525009014e-33
4.667259137e-33
4.788506509e-33
4.887870635e-33
4.965169538e-33
5.019561384e-33
5.050979958e-33
5.058760474e-33
5.043011054e-33
5.004637348e-33
4.943212414e-33
4.859894149e-33
4.755448766e-33
4.63149188e-33
4.489191698e-33
4.108618079e-33
3.806681283e-33
3.677786149e-33
3.525159248e-33
3.351233335e-33
3.160000402e-33
2.955572802e-33
2.740973032e-33
2.520137669e-33
2.20125565e-33
1.927198686e-33
1.744638638e-33
1.551951008e-33
1.355541587e-33
1.161575098e-33
9.31533423e-34
7.690313893e-34
6.201679244e-34
4.783508453e-34
3.455272787e-34
2.368409307e-34
1.470753908e-34
5.262701224e-35
7.216363359e-35
2.093145891e-34
5.330618559e-34
7.269193446e-34
)


101
(
1.378021831e-45
1.22030338e-43
1.951491024e-42
1.556247973e-41
8.42778431e-41
3.363308969e-40
1.085869901e-39
2.981482187e-39
7.328953823e-39
1.659699878e-38
3.545098149e-38
7.242612042e-38
1.437323634e-37
2.787432653e-37
5.305037578e-37
9.917799888e-37
1.824288725e-36
3.282436351e-36
5.797086758e-36
9.991995585e-36
1.678377539e-35
2.745903142e-35
4.374418209e-35
6.782416591e-35
1.02267278e-34
1.500078366e-34
2.142327072e-34
2.982609975e-34
4.054254959e-34
5.38795256e-34
7.011619627e-34
8.9469263e-34
1.121209101e-33
1.385425721e-33
1.685405534e-33
2.02274447e-33
2.398241383e-33
2.810828581e-33
3.261097215e-33
3.749477213e-33
4.271900953e-33
4.82088388e-33
5.402299488e-33
6.012010898e-33
6.643506697e-33
7.300314473e-33
7.974324632e-33
8.667109252e-33
9.369907029e-33
1.008264381e-32
1.079568118e-32
1.150711238e-32
1.221195595e-32
1.290430345e-32
1.357810447e-32
1.422844454e-32
1.486081618e-32
1.545040481e-32
1.600889452e-32
1.652104938e-32
1.698896336e-32
1.740394781e-32
1.776181911e-32
1.806120445e-32
1.829772224e-32
1.846910878e-32
1.857106964e-32
1.86015365e-32
1.856240586e-32
1.84482535e-32
1.826161798e-32
1.800191206e-32
1.767367372e-32
1.727544353e-32
1.681173419e-32
1.628247307e-32
1.569290945e-32
1.504267653e-32
1.433123358e-32
1.356567771e-32
1.275534363e-32
1.191283289e-32
1.104525915e-32
1.016233782e-32
9.269033722e-33
8.372407296e-33
7.476864558e-33
6.59040631e-33
5.726829047e-33
4.901814666e-33
4.118347757e-33
3.386920858e-33
2.712014985e-33
2.101966147e-33
1.561756211e-33
1.078573366e-33
6.078575661e-34
1.042439465e-33
2.6028614e-33
5.853377168e-33
7.723100023e-33
)


101
(
1.184120278e-45
1.167813828e-43
1.912822772e-42
1.543222555e-41
8.442907217e-41
3.409052748e-40
1.115068519e-39
3.103588463e-39
7.735129971e-39
1.776203258e-38
3.846431256e-38
7.965610419e-38
1.60183682e-37
3.147515434e-37
6.070511684e-37
1.150673626e-36
2.14719467e-36
3.924040584e-36
7.043817429e-36
1.235728638e-35
2.114923702e-35
3.529217874e-35
5.739676867e-35
9.091886227e-35
1.401658122e-34
2.103302678e-34
3.074047659e-34
4.380564394e-34
6.09493037e-34
8.290106517e-34
1.103900655e-33
1.440753574e-33
1.845677064e-33
2.330610543e-33
2.896557871e-33
3.549227343e-33
4.293609449e-33
5.131624433e-33
6.068845182e-33
7.11109184e-33
8.254373396e-33
9.485218018e-33
1.08162804e-32
1.224350993e-32
1.375547672e-32
1.536092588e-32
1.704581433e-32
1.881455421e-32
2.065044742e-32
2.255342462e-32
2.450299165e-32
2.649337247e-32
2.851289248e-32
3.054680603e-32
3.257891496e-32
3.459492558e-32
3.660599399e-32
3.855216617e-32
4.045398376e-32
4.227299569e-32
4.400829448e-32
4.563459593e-32
4.713537533e-32
4.850131682e-32
4.971644767e-32
5.076869293e-32
5.164116883e-32
5.23217432e-32
5.280881204e-32
5.308210591e-32
5.314176594e-32
5.29801966e-32
5.260359934e-32
5.200172899e-32
5.117948453e-32
5.013477226e-32
4.888060104e-32
4.741589734e-32
4.573124225e-32
4.3837414e-32
4.175164277e-32
3.950906614e-32
3.713307634e-32
3.465219547e-32
3.208400413e-32
2.945403509e-32
2.677193843e-32
2.406399106e-32
2.136036537e-32
1.872211443e-32
1.616298817e-32
1.372401293e-32
1.141968495e-32
9.273854416e-33
7.294361033e-33
5.42602995e-33
3.890219603e-33
6.749368333e-33
1.495691905e-32
3.047018504e-32
3.900390281e-32
)


101
(
1.009286902e-45
1.116070088e-43
1.872950962e-42
1.528849404e-41
8.449310462e-41
3.451012968e-40
1.143148299e-39
3.223865205e-39
8.141906423e-39
1.894514888e-38
4.156182692e-38
8.71704143e-38
1.774463862e-37
3.528690598e-37
6.887536117e-37
1.321687537e-36
2.497776415e-36
4.627625416e-36
8.425905924e-36
1.501191059e-35
2.611826091e-35
4.434746834e-35
7.344389521e-35
1.185499733e-34
1.863678021e-34
2.853282821e-34
4.256148756e-34
6.191156084e-34
8.793233511e-34
1.220775607e-33
1.65882078e-33
2.208498813e-33
2.884806452e-33
3.711819141e-33
4.699586929e-33
5.863255634e-33
7.217630884e-33
8.773309898e-33
1.054724931e-32
1.255799851e-32
1.480755764e-32
1.727926617e-32
1.999655372e-32
2.295974913e-32
2.615511783e-32
2.960102914e-32
3.327931884e-32
3.720061476e-32
4.13399158e-32
4.569825242e-32
5.024058588e-32
5.495469085e-32
5.981789438e-32
6.480045195e-32
6.986804656e-32
7.498877066e-32
8.017821843e-32
8.531885302e-32
9.043779957e-32
9.545399027e-32
1.003542092e-31
1.050783915e-31
1.09581192e-31
1.13830596e-31
1.177828733e-31
1.213998485e-31
1.246336976e-31
1.274442142e-31
1.298127634e-31
1.316824537e-31
1.330401178e-31
1.338544161e-31
1.341255079e-31
1.338187208e-31
1.329287847e-31
1.314398971e-31
1.293738519e-31
1.267293666e-31
1.234717527e-31
1.196086239e-31
1.151551301e-31
1.101824282e-31
1.04750343e-31
9.892910962e-32
9.276001396e-32
8.631945414e-32
7.962784841e-32
7.274286833e-32
6.572329264e-32
5.873747024e-32
5.1829382e-32
4.513932331e-32
3.868711625e-32
3.254781519e-32
2.667466761e-32
2.088840952e-32
1.727364839e-32
2.915749068e-32
5.868581799e-32
1.099870932e-31
1.36838311e-31
)


101
(
8.524313602e-46
1.065144507e-43
1.83195427e-42
1.513138486e-41
8.446818904e-41
3.488994333e-40
1.169986593e-39
3.341769426e-39
8.547398838e-39
2.014073805e-38
4.472866182e-38
9.493270895e-38
1.954354351e-37
3.928988946e-37
7.75157941e-37
1.503782874e-36
2.873701843e-36
5.388163025e-36
9.933083575e-36
1.793607595e-35
3.165646127e-35
5.457292871e-35
9.182423584e-35
1.506867197e-34
2.409865614e-34
3.755250957e-34
5.70339072e-34
8.448688852e-34
1.222002154e-33
1.727544524e-33
2.389853546e-33
3.238249522e-33
4.303568631e-33
5.629290339e-33
7.243737939e-33
9.180678914e-33
1.147417653e-32
1.415374341e-32
1.725862251e-32
2.083219143e-32
2.489381015e-32
2.943269949e-32
3.449166721e-32
4.008338414e-32
4.619925644e-32
5.287632746e-32
6.009871331e-32
6.789074458e-32
7.622263865e-32
8.510105776e-32
9.447524468e-32
1.04325979e-31
1.146156684e-31
1.252927069e-31
1.362951326e-31
1.475635354e-31
1.591134664e-31
1.70741245e-31
1.824753294e-31
1.941643148e-31
2.057657958e-31
2.171562616e-31
2.282343813e-31
2.38918828e-31
2.49109573e-31
2.587124518e-31
2.676169509e-31
2.757220811e-31
2.829640862e-31
2.892078425e-31
2.944024735e-31
2.984583034e-31
3.01348811e-31
3.029842071e-31
3.033234702e-31
3.023061727e-31
2.99946641e-31
2.962431258e-31
2.911128471e-31
2.845407767e-31
2.765025497e-31
2.670985504e-31
2.564505521e-31
2.447119791e-31
2.319628316e-31
2.183731173e-31
2.039916437e-31
1.889373777e-31
1.732940744e-31
1.57418316e-31
1.414409904e-31
1.25741897e-31
1.103488742e-31
9.544921144e-32
8.069877953e-32
6.559134021e-32
5.941548743e-32
9.684425661e-32
1.807634267e-31
3.178867112e-31
3.868073055e-31
)


101
(
7.124814015e-46
1.015106168e-43
1.789914329e-42
1.49610418e-41
8.435282048e-41
3.522810361e-40
1.19546223e-39
3.456750927e-39
8.949660411e-39
2.134286741e-38
4.794868508e-38
1.0290244e-37
2.140535176e-37
4.346102785e-37
8.657204838e-37
1.695682483e-36
3.27201815e-36
6.19902646e-36
1.155109528e-35
2.110031804e-35
3.770673211e-35
6.586562737e-35
1.12367903e-34
1.870788395e-34
3.037132586e-34
4.806709906e-34
7.417114511e-34
1.116539617e-33
1.641176496e-33
2.357690104e-33
3.313803192e-33
4.560870633e-33
6.15511585e-33
8.169471399e-33
1.066332785e-32
1.370258574e-32
1.735516982e-32
2.168516533e-32
2.677100928e-32
3.269922681e-32
3.952491068e-32
4.726076814e-32
5.598465203e-32
6.573589117e-32
7.652497131e-32
8.842286255e-32
1.01429891e-31
1.155977385e-31
1.3090191e-31
1.47364398e-31
1.649232099e-31
1.835562835e-31
2.03209911e-31
2.238048295e-31
2.452426677e-31
2.674265037e-31
2.903637309e-31
3.137328449e-31
3.375542618e-31
3.615732761e-31
3.85693177e-31
4.096874681e-31
4.333595753e-31
4.56536988e-31
4.790206042e-31
5.006130126e-31
5.210941647e-31
5.402508472e-31
5.579277845e-31
5.738458962e-31
5.878707554e-31
5.997970624e-31
6.095283754e-31
6.168697658e-31
6.216971959e-31
6.238467104e-31
6.2327279e-31
6.199629122e-31
6.137499745e-31
6.045759263e-31
5.922967043e-31
5.769811363e-31
5.588173615e-31
5.380993082e-31
5.149710922e-31
4.897518969e-31
4.62518602e-31
4.335332233e-31
4.028347228e-31
3.711024232e-31
3.385788237e-31
3.062148399e-31
2.74014732e-31
2.4238183e-31
2.099653315e-31
1.756286687e-31
1.695600822e-31
2.674709699e-31
4.685835815e-31
7.796336694e-31
9.298457339e-31
)


101
(
5.883842139e-46
9.710471652e-44
1.760927719e-42
1.477765277e-41
8.414576031e-41
3.552284906e-40
1.219456398e-39
3.568255388e-39
9.346693631e-39
2.254531955e-38
5.120460528e-38
1.110351201e-37
2.33191713e-37
4.777406757e-37
9.598138147e-37
1.895892716e-36
3.689217041e-36
7.052159895e-36
1.326212629e-35
2.446643816e-35
4.419106632e-35
7.807470657e-35
1.34799696e-34
2.272560118e-34
3.738009886e-34
5.996828905e-34
9.383543618e-34
1.432740797e-33
2.136202877e-33
3.112856447e-33
4.437380393e-33
6.192735796e-33
8.472630189e-33
1.139243927e-32
1.505922896e-32
1.958905817e-32
2.510384365e-32
3.172427106e-32
3.959171684e-32
4.886151978e-32
5.965112337e-32
7.202447882e-32
8.611940045e-32
1.020252092e-31
1.197938098e-31
1.395523782e-31
1.613411551e-31
1.852606972e-31
2.113110409e-31
2.395465641e-31
2.699075549e-31
3.023785026e-31
3.36894913e-31
3.733503995e-31
4.11601587e-31
4.515053839e-31
4.930533474e-31
5.357749504e-31
5.796662652e-31
6.243360733e-31
6.696010624e-31
7.150854878e-31
7.604505897e-31
8.053726882e-31
8.494950255e-31
8.924485066e-31
9.338389074e-31
9.73280168e-31
1.01045868e-30
1.044867428e-30
1.076208712e-30
1.104078018e-30
1.128226265e-30
1.148291632e-30
1.164002907e-30
1.174993061e-30
1.181060213e-30
1.182139121e-30
1.177911335e-30
1.168272339e-30
1.152842659e-30
1.131522402e-30
1.104474245e-30
1.07218986e-30
1.034920872e-30
9.932238402e-31
9.471280047e-31
8.971860833e-31
8.432544109e-31
7.865035888e-31
7.271464363e-31
6.673668051e-31
6.071313697e-31
5.471294233e-31
4.835752869e-31
4.139254732e-31
4.185658002e-31
6.411024635e-31
1.063970754e-30
1.688868842e-30
1.981138307e-30
)


101
(
4.791073948e-46
9.223538153e-44
1.71654637e-42
1.458144888e-41
8.384605372e-41
3.577254887e-40
1.241854571e-39
3.675732573e-39
9.736469477e-39
2.374165379e-38
5.447815448e-38
1.192828297e-37
2.527309054e-37
5.219999244e-37
1.056738825e-36
2.102736733e-36
4.121325598e-36
7.938322417e-36
1.504538663e-35
2.798895146e-35
5.101367095e-35
9.10073638e-35
1.5874984e-34
2.705440954e-34
4.500834962e-34
7.306526588e-34
1.157338101e-33
1.789298896e-33
2.701665934e-33
3.986876297e-33
5.755040242e-33
8.131740872e-33
1.126243041e-32
1.532065597e-32
2.048144128e-32
2.69333355e-32
3.487768908e-32
4.452022609e-32
5.60960285e-32
6.98625439e-32
8.60351349e-32
1.047681105e-31
1.262941271e-31
1.507867541e-31
1.783718232e-31
2.09262333e-31
2.435726797e-31
2.814820607e-31
3.230468722e-31
3.683797685e-31
4.174449688e-31
4.702499268e-31
5.267366025e-31
5.867763473e-31
6.501791577e-31
7.16757722e-31
7.864689342e-31
8.586741007e-31
9.333170274e-31
1.009841012e-30
1.087945648e-30
1.167054427e-30
1.246632889e-30
1.326136466e-30
1.404979846e-30
1.482537538e-30
1.558157813e-30
1.631214364e-30
1.701150563e-30
1.767114635e-30
1.82855785e-30
1.884752533e-30
1.935224798e-30
1.979346669e-30
2.016588476e-30
2.046254399e-30
2.067877158e-30
2.081232944e-30
2.08572093e-30
2.081217725e-30
2.067021489e-30
2.042592541e-30
2.00789509e-30
1.96351185e-30
1.90996326e-30
1.848138946e-30
1.777817626e-30
1.700064409e-30
1.614362223e-30
1.522440611e-30
1.424270066e-30
1.32414055e-30
1.222022304e-30
1.118931754e-30
1.00591274e-30
8.774914338e-31
9.193200868e-31
1.371287507e-30
2.16596804e-30
3.291722367e-30
3.807659808e-30
)


101
(
3.836405718e-46
8.709409912e-44
1.658387626e-42
1.444313132e-41
8.345302781e-41
3.597571135e-40
1.262547529e-39
3.778642643e-39
1.011694256e-38
2.492525051e-38
5.775025764e-38
1.275947947e-37
2.725433815e-37
5.670746279e-37
1.155737295e-36
2.314391683e-36
4.564010062e-36
8.847366728e-36
1.687781037e-35
3.161680356e-35
5.806496017e-35
1.044375362e-34
1.837710516e-34
3.160959371e-34
5.310265079e-34
8.709246036e-34
1.394278859e-33
2.179334505e-33
3.32734074e-33
4.965410297e-33
7.247931643e-33
1.03549608e-32
1.44993883e-32
1.993075201e-32
2.691533277e-32
3.574014991e-32
4.671596139e-32
6.016756815e-32
7.646093756e-32
9.599582969e-32
1.191294845e-31
1.461564413e-31
1.774489537e-31
2.133109377e-31
2.539858028e-31
2.998089898e-31
3.510132394e-31
4.078952609e-31
4.706117464e-31
5.3936491e-31
6.141747942e-31
6.950983599e-31
7.821078471e-31
8.750667733e-31
9.737593283e-31
1.077940122e-30
1.187519555e-30
1.301681356e-30
1.420280507e-30
1.542579019e-30
1.668121446e-30
1.796090635e-30
1.925688181e-30
2.056097204e-30
2.18643171e-30
2.31570429e-30
2.44287039e-30
2.567005088e-30
2.687188917e-30
2.802165914e-30
2.911039104e-30
3.012631442e-30
3.10606157e-30
3.190631491e-30
3.264548504e-30
3.327657912e-30
3.378671189e-30
3.417012e-30
3.441760038e-30
3.452734265e-30
3.448772983e-30
3.42868674e-30
3.391969067e-30
3.338948645e-30
3.270595262e-30
3.188294252e-30
3.091302542e-30
2.981377945e-30
2.857429231e-30
2.721614164e-30
2.573550365e-30
2.420181481e-30
2.261989969e-30
2.100345192e-30
1.916445548e-30
1.699498893e-30
1.830305899e-30
2.662321278e-30
4.005695342e-30
5.815597123e-30
6.625030091e-30
)


101
(
3.009973564e-46
8.250577159e-44
1.613037993e-42
1.422225917e-41
8.296631456e-41
3.613098998e-40
1.281431373e-39
3.87645635e-39
1.048606422e-38
2.60893632e-38
6.100120639e-38
1.359178509e-37
2.924942196e-37
6.126320205e-37
1.256003593e-36
2.528924714e-36
5.012680795e-36
9.768525895e-36
1.873482817e-35
3.529523336e-35
6.522612509e-35
1.181161824e-34
2.093602011e-34
3.6293463e-34
6.148079733e-34
1.017234341e-33
1.643563112e-33
2.593590543e-33
3.998610239e-33
6.026369754e-33
8.884123465e-33
1.281828453e-32
1.812526423e-32
2.514947423e-32
3.427351709e-32
4.591143645e-32
6.051663893e-32
7.857123533e-32
1.006137937e-31
1.272313724e-31
1.589735446e-31
1.963337566e-31
2.398776732e-31
2.900960485e-31
3.474045913e-31
4.123050144e-31
4.852008992e-31
5.665504268e-31
6.566609874e-31
7.558638026e-31
8.642787454e-31
9.820431852e-31
1.109186505e-30
1.245599842e-30
1.391048743e-30
1.545212064e-30
1.707988429e-30
1.878354323e-30
2.056055456e-30
2.240126285e-30
2.429935125e-30
2.624379124e-30
2.822357076e-30
3.022746757e-30
3.22424561e-30
3.425371949e-30
3.624645619e-30
3.820650728e-30
4.012070421e-30
4.197177483e-30
4.374596139e-30
4.542556804e-30
4.699627971e-30
4.844830956e-30
4.975935381e-30
5.091300016e-30
5.190098309e-30
5.270851234e-30
5.332356067e-30
5.374070122e-30
5.394287036e-30
5.391286389e-30
5.363485903e-30
5.310548271e-30
5.234162779e-30
5.136236199e-30
5.015143634e-30
4.873409247e-30
4.709262699e-30
4.525838572e-30
4.321136436e-30
4.105111213e-30
3.880150672e-30
3.6478942e-30
3.372702017e-30
3.034432341e-30
3.337003873e-30
4.733580279e-30
6.778466903e-30
9.435446479e-30
1.06429278e-29
)


101
(
2.302156843e-46
7.803438144e-44
1.567086178e-42
1.391889657e-41
8.238588607e-41
3.623720834e-40
1.298408626e-39
3.968659447e-39
1.084180344e-38
2.722720455e-38
6.4210892e-38
1.441970788e-37
3.12442934e-37
6.583249664e-37
1.356698391e-36
2.744331171e-36
5.46259726e-36
1.06907207e-35
2.059110482e-35
3.896775007e-35
7.237394339e-35
1.317822644e-34
2.349832261e-34
4.100049934e-34
6.994195496e-34
1.165898304e-33
1.89867927e-33
3.020977615e-33
4.697300923e-33
7.141099136e-33
1.062012886e-32
1.545815266e-32
2.205033273e-32
3.085457488e-32
4.239493751e-32
5.724197108e-32
7.602648029e-32
9.942815441e-32
1.282019071e-31
1.631689599e-31
2.051252005e-31
2.548268451e-31
3.130926362e-31
3.8066514e-31
4.581970764e-31
5.46405909e-31
6.459209734e-31
7.574048501e-31
8.813713133e-31
1.018325981e-30
1.168540767e-30
1.332263946e-30
1.509611962e-30
1.700531916e-30
1.904759692e-30
2.121969159e-30
2.352003389e-30
2.593654564e-30
2.846476307e-30
3.109264939e-30
3.381182454e-30
3.660805301e-30
3.946680474e-30
4.2373094e-30
4.530965753e-30
4.825516224e-30
5.118934691e-30
5.409160823e-30
5.69440443e-30
5.971803532e-30
6.240600916e-30
6.498405369e-30
6.741926843e-30
6.969638091e-30
7.180422427e-30
7.369787894e-30
7.537252051e-30
7.680906691e-30
7.798465612e-30
7.889178804e-30
7.951118547e-30
7.981720862e-30
7.977939914e-30
7.938772128e-30
7.86592585e-30
7.762073881e-30
7.624926104e-30
7.457399519e-30
7.257813738e-30
7.030345256e-30
6.768983072e-30
6.48782659e-30
6.19240831e-30
5.885841444e-30
5.505268897e-30
5.015758888e-30
5.601306798e-30
7.744949435e-30
1.050959775e-29
1.38806043e-29
1.543741173e-29
)


101
(
1.703598078e-46
7.391988437e-44
1.520624841e-42
1.367460052e-41
8.171203654e-41
3.629335987e-40
1.313389023e-39
4.054757689e-39
1.11821559e-38
2.83319832e-38
6.735900087e-38
1.523764465e-37
3.322451961e-37
7.037970183e-37
1.456963303e-36
2.958573051e-36
5.908976633e-36
1.160283358e-35
2.242130744e-35
4.257799614e-35
7.938547768e-35
1.451744719e-34
2.601008704e-34
4.562282174e-34
7.827763336e-34
1.313024707e-33
2.15260547e-33
3.449254275e-33
5.402813388e-33
8.276149054e-33
1.240353116e-32
1.819521977e-32
2.615819825e-32
3.688073805e-32
5.105156922e-32
6.942602652e-32
9.284628257e-32
1.222293543e-31
1.585893493e-31
2.030271779e-31
2.566384271e-31
3.205064492e-31
3.957641029e-31
4.834749588e-31
5.845996454e-31
7.001230876e-31
8.30954096e-31
9.779992576e-31
1.142029141e-30
1.323764082e-30
1.523691641e-30
1.742196377e-30
1.979494736e-30
2.235611375e-30
2.510285199e-30
2.803214705e-30
3.114080924e-30
3.441590235e-30
3.784967999e-30
4.142819237e-30
4.513967619e-30
4.896695312e-30
5.289130724e-30
5.689341033e-30
6.094953092e-30
6.503332539e-30
6.911814646e-30
7.317333989e-30
7.717732295e-30
8.108988121e-30
8.49029689e-30
8.858690944e-30
9.209797929e-30
9.541236879e-30
9.850518862e-30
1.013463838e-29
1.038916473e-29
1.061494201e-29
1.080651369e-29
1.09635718e-29
1.108261439e-29
1.11632376e-29
1.119910446e-29
1.118784198e-29
1.113069524e-29
1.103288502e-29
1.089083955e-29
1.0705986e-29
1.048072388e-29
1.021754854e-29
9.906506476e-30
9.565373864e-30
9.205394648e-30
8.831183981e-30
8.342069259e-30
7.678994585e-30
8.653584745e-30
1.164523065e-29
1.492399461e-29
1.867630465e-29
2.053518761e-29
)


101
(
1.205215515e-46
6.965377428e-44
1.473747602e-42
1.341928781e-41
8.094539529e-41
3.629861741e-40
1.326289797e-39
4.134279321e-39
1.150516656e-38
2.93969747e-38
7.042520565e-38
1.603994002e-37
3.51754723e-37
7.48687114e-37
1.555933022e-36
3.169615081e-36
6.34709448e-36
1.249398331e-35
2.420083303e-35
4.607153312e-35
8.614247036e-35
1.580413262e-34
2.841918509e-34
5.005529279e-34
8.628222227e-34
1.454722248e-33
2.398212894e-33
3.865776522e-33
6.093446193e-33
9.395483259e-33
1.417645725e-32
2.093958591e-32
3.031342953e-32
4.303016672e-32
5.996239502e-32
8.207492354e-32
1.104517401e-31
1.462833996e-31
1.90882093e-31
2.456703447e-31
3.120914369e-31
3.91613845e-31
4.857408675e-31
5.959252426e-31
7.235073909e-31
8.697909803e-31
1.036015306e-30
1.223360427e-30
1.432884907e-30
1.665568347e-30
1.922159813e-30
2.203180746e-30
2.508964692e-30
2.839643489e-30
3.194955354e-30
3.574542643e-30
3.977957553e-30
4.403789018e-30
4.850946859e-30
5.317689185e-30
5.80244317e-30
6.303180048e-30
6.817527804e-30
7.342839821e-30
7.876184373e-30
8.414634812e-30
8.954221358e-30
9.489421827e-30
1.002055367e-29
1.054401494e-29
1.105282513e-29
1.154525832e-29
1.201808543e-29
1.24667554e-29
1.288802478e-29
1.327674509e-29
1.363046203e-29
1.394822746e-29
1.422343315e-29
1.445496141e-29
1.463972045e-29
1.477733955e-29
1.486042141e-29
1.488200956e-29
1.484711323e-29
1.476336891e-29
1.462160777e-29
1.442552473e-29
1.417908054e-29
1.388869996e-29
1.353869796e-29
1.314315746e-29
1.2730979e-29
1.230368686e-29
1.171428415e-29
1.0859795e-29
1.228649352e-29
1.606698496e-29
1.93709137e-29
2.270591e-29
2.45918703e-29
)


101
(
7.982122169e-47
6.536331667e-44
1.437028203e-42
1.315344188e-41
8.00869325e-41
3.625234513e-40
1.337036173e-39
4.206778797e-39
1.180895152e-38
3.041559653e-38
7.338931551e-38
1.682095749e-37
3.708250127e-37
7.926337861e-37
1.652746468e-36
3.375457495e-36
6.772374905e-36
1.335380126e-35
2.590646235e-35
4.939760382e-35
9.253532879e-35
1.701504505e-34
3.067742265e-34
5.420029217e-34
9.376320982e-34
1.587307896e-33
2.628672301e-33
4.258261383e-33
6.747769648e-33
1.046284404e-32
1.587947503e-32
2.359692514e-32
3.437077367e-32
4.908598666e-32
6.881222223e-32
9.474245747e-32
1.282265778e-31
1.707583159e-31
2.23980525e-31
2.896719778e-31
3.696609485e-31
4.658489533e-31
5.80156079e-31
7.144808486e-31
8.706060579e-31
1.05020524e-30
1.254897075e-30
1.486144135e-30
1.745314915e-30
2.033661418e-30
2.352189234e-30
2.701568988e-30
3.082282718e-30
3.494514653e-30
3.937960994e-30
4.412189757e-30
4.916563765e-30
5.449531261e-30
6.009628082e-30
6.594544908e-30
7.202408467e-30
7.830631387e-30
8.476167438e-30
9.135328031e-30
9.805050128e-30
1.048163292e-29
1.116010047e-29
1.183574117e-29
1.250063263e-29
1.315891418e-29
1.379856719e-29
1.441635893e-29
1.501320597e-29
1.557858252e-29
1.611003294e-29
1.660055429e-29
1.704755949e-29
1.744967875e-29
1.78009012e-29
1.809905969e-29
1.834153242e-29
1.852047431e-29
1.864189185e-29
1.868794179e-29
1.866319142e-29
1.857996344e-29
1.842975259e-29
1.821407644e-29
1.793796786e-29
1.761939587e-29
1.723155053e-29
1.678371089e-29
1.63291091e-29
1.586001707e-29
1.517807143e-29
1.413035867e-29
1.600468297e-29
2.031629903e-29
2.29147946e-29
2.46248708e-29
2.579857197e-29
)


101
(
4.740910643e-47
6.139893236e-44
1.389112515e-42
1.287758496e-41
7.913795436e-41
3.615410061e-40
1.345562179e-39
4.271840891e-39
1.209170843e-38
3.13814524e-38
7.623150845e-38
1.75751427e-37
3.8931119e-37
8.352801067e-37
1.746560221e-36
3.574167021e-36
7.180476211e-36
1.417263544e-35
2.751698172e-35
5.251045042e-35
9.846635993e-35
1.812963501e-34
3.274230639e-34
5.797172871e-34
1.005499691e-33
1.707488078e-33
2.837810656e-33
4.615466037e-33
7.345888807e-33
1.144402078e-32
1.745548883e-32
2.607486431e-32
3.818511972e-32
5.482727425e-32
7.727370479e-32
1.069561197e-31
1.455054258e-31
1.947386557e-31
2.566525186e-31
3.33405306e-31
4.272384744e-31
5.405172743e-31
6.756044948e-31
8.348839908e-31
1.020631953e-30
1.234933902e-30
1.479815161e-30
1.75702426e-30
2.068251349e-30
2.414964021e-30
2.798398524e-30
3.219385602e-30
3.678535437e-30
4.175973e-30
4.711362528e-30
5.284138503e-30
5.893200983e-30
6.536907619e-30
7.213294506e-30
7.917644945e-30
8.652804657e-30
9.410057136e-30
1.018719226e-29
1.097954945e-29
1.178417003e-29
1.259531603e-29
1.34076642e-29
1.421784817e-29
1.501057117e-29
1.578846296e-29
1.654674283e-29
1.727524149e-29
1.797779321e-29
1.863863013e-29
1.925578407e-29
1.98244409e-29
2.033555091e-29
2.078919934e-29
2.118242724e-29
2.151303573e-29
2.177024953e-29
2.195722165e-29
2.207780816e-29
2.210931471e-29
2.205649239e-29
2.193372873e-29
2.174018945e-29
2.147153887e-29
2.113655824e-29
2.076746754e-29
2.032005305e-29
1.980921967e-29
1.930224052e-29
1.879261719e-29
1.802231058e-29
1.678505624e-29
1.898842744e-29
2.339839557e-29
2.458233082e-29
2.451613048e-29
2.522547652e-29
)


101
(
2.246654698e-47
5.766145022e-44
1.331556808e-42
1.259227647e-41
7.810010576e-41
3.600363797e-40
1.351811236e-39
4.32908396e-39
1.235173922e-38
3.228841016e-38
7.893257273e-38
1.829707515e-37
4.07071799e-37
8.762787656e-37
1.836561362e-36
3.763904775e-36
7.567357911e-36
1.494170663e-35
2.901349716e-35
5.537008435e-35
1.038517397e-34
1.913049898e-34
3.45783269e-34
6.129800989e-34
1.065005538e-33
1.812506703e-33
3.02040993e-33
4.927773091e-33
7.870549893e-33
1.230888931e-32
1.885336755e-32
2.828911793e-32
4.162145083e-32
6.004443166e-32
8.503043887e-32
1.182506708e-31
1.616211495e-31
2.172904885e-31
2.876204069e-31
3.75160495e-31
4.825778472e-31
6.127091394e-31
7.683726171e-31
9.524522402e-31
1.16773787e-30
1.416744735e-30
1.701922161e-30
2.02531812e-30
2.38889245e-30
2.794238194e-30
3.242784608e-30
3.735472554e-30
4.27293038e-30
4.855182332e-30
5.481788445e-30
6.15183315e-30
6.863533571e-30
7.615232938e-30
8.404133308e-30
9.224470028e-30
1.00765272e-29
1.095689833e-29
1.185523404e-29
1.276888585e-29
1.369324464e-29
1.462096094e-29
1.554741308e-29
1.646325684e-29
1.736090943e-29
1.82310316e-29
1.907024795e-29
1.987549307e-29
2.063745947e-29
2.134786908e-29
2.200529374e-29
2.259892884e-29
2.311576917e-29
2.355749931e-29
2.392991929e-29
2.422241841e-29
2.442628759e-29
2.455617205e-29
2.45964109e-29
2.454251115e-29
2.439446743e-29
2.416241536e-29
2.385885279e-29
2.34815257e-29
2.302964041e-29
2.255788129e-29
2.200764651e-29
2.140029861e-29
2.08120972e-29
2.024437949e-29
1.938188428e-29
1.793427387e-29
2.032930814e-29
2.441607206e-29
2.370645658e-29
2.110896706e-29
2.072418383e-29
)


101
(
4.206848336e-48
5.394076726e-44
1.28395198e-42
1.229810806e-41
7.718948354e-41
3.580092073e-40
1.355736854e-39
4.378164307e-39
1.258747479e-38
3.313070648e-38
8.147410718e-38
1.898152901e-37
4.239703609e-37
9.152969811e-37
1.921980447e-36
3.942964276e-36
7.929351305e-36
1.565326527e-35
3.037978089e-35
5.794285184e-35
1.086228393e-34
2.00037842e-34
3.615779682e-34
6.412406423e-34
1.115062437e-33
1.900244813e-33
3.172413634e-33
5.187603248e-33
8.30795657e-33
1.303298629e-32
2.00308325e-32
3.016852405e-32
4.456334556e-32
6.455292016e-32
9.179828839e-32
1.282007143e-31
1.759533446e-31
2.375306318e-31
3.155669769e-31
4.131499464e-31
5.334491114e-31
6.795082048e-31
8.547037746e-31
1.06239994e-30
1.305889925e-30
1.588117606e-30
1.911956267e-30
2.279725496e-30
2.69357304e-30
3.155146893e-30
3.665950152e-30
4.226913103e-30
4.838550366e-30
5.500675429e-30
6.212592979e-30
6.972753377e-30
7.778633514e-30
8.628258006e-30
9.517622256e-30
1.044217248e-29
1.139464804e-29
1.237396999e-29
1.337396806e-29
1.438359764e-29
1.539807153e-29
1.640983873e-29
1.741281525e-29
1.839531364e-29
1.934754707e-29
2.026002285e-29
2.112515162e-29
2.194119576e-29
2.269426486e-29
2.33847877e-29
2.400509291e-29
2.45390927e-29
2.497886744e-29
2.532245294e-29
2.557303855e-29
2.572837476e-29
2.579120522e-29
2.57598114e-29
2.562137083e-29
2.538338073e-29
2.505547729e-29
2.46235839e-29
2.411672346e-29
2.354817427e-29
2.291098986e-29
2.22616041e-29
2.156000061e-29
2.081099542e-29
2.010278e-29
1.945545601e-29
1.849764467e-29
1.681921263e-29
1.933485898e-29
2.284172497e-29
2.022654541e-29
1.559518878e-29
1.418394356e-29
)


101
(
-8.123480483e-48
5.031990321e-44
1.236404523e-42
1.199570418e-41