/*--------------------------------*- C++ -*----------------------------------*\
| =========                 |                                                 |
| \\      /  F ield         | OpenFOAM: The Open Source CFD Toolbox           |
|  \\    /   O peration     | Version:  2.3.1                                 |
|   \\  /    A nd           | Web:      www.OpenFOAM.org                      |
|    \\/     M anipulation  |                                                 |
\*---------------------------------------------------------------------------*/
FoamFile
{
    version     2.0;
    format      ascii;
    class       dictionary;
    location    "constant";
    object      PM5;
}
// * * * * * * * * * * * * * * * * * * * * * * * * * * * * * * * * * * * * * //

PM5_table
101
(

101
(
-7.033954851e-12
-5.127368958e-14
4.80674726e-14
5.513008889e-14
5.590831275e-14
3.55957632e-14
6.282347217e-14
5.940901554e-14
7.433335882e-14
8.482409518e-14
1.04335052e-13
9.975446528e-14
1.540334583e-13
1.483784984e-13
1.529999298e-13
1.787887423e-13
2.202893723e-13
1.500941524e-13
2.806009037e-13
2.11902679e-13
1.986033058e-13
2.916221498e-13
2.778836951e-13
2.589313146e-13
2.604809951e-13
2.623655491e-13
2.5698804e-13
2.701455574e-13
2.659179868e-13
2.675970044e-13
2.573071358e-13
2.030148066e-13
3.405594863e-13
2.803678854e-13
2.548683605e-13
2.428022971e-13
2.146921076e-13
2.349309682e-13
2.784390494e-13
2.815826963e-13
2.180104934e-13
2.339559373e-13
2.355353646e-13
2.015373044e-13
2.125804275e-13
1.999776982e-13
2.089516579e-13
2.000703062e-13
2.042601964e-13
1.92055039e-13
1.862415053e-13
1.823941179e-13
1.751068033e-13
1.657008675e-13
1.584428542e-13
1.755683279e-13
1.520226487e-13
1.560864257e-13
1.489524581e-13
1.475524261e-13
1.420265739e-13
1.342178659e-13
1.315682681e-13
1.271335015e-13
1.238372285e-13
1.182884306e-13
1.127868964e-13
1.126628159e-13
1.071782983e-13
1.034098846e-13
1.009912664e-13
1.016356819e-13
9.361999505e-14
8.177789197e-14
7.197141477e-14
7.478167177e-14
7.437540033e-14
6.775199929e-14
6.106643813e-14
5.554678622e-14
5.596435869e-14
5.121052146e-14
4.622343476e-14
4.277475623e-14
3.824724025e-14
3.416255677e-14
3.087234569e-14
2.774774933e-14
2.413942174e-14
2.145240672e-14
1.775415656e-14
1.448712817e-14
1.204756468e-14
8.674477935e-15
6.547903303e-15
-3.287605045e-14
-6.333374103e-14
-9.537026455e-20
-2.995258458e-29
9.572294687e-31
6.189256415e-29
)


101
(
-6.930269825e-12
-2.532725727e-14
6.626294809e-14
6.239778053e-14
5.059301923e-14
1.724054136e-14
2.719878328e-14
7.484206749e-15
4.425087239e-15
-2.775515791e-15
-1.445451041e-15
-2.039363528e-14
1.220891389e-14
-5.662245955e-15
-1.30455187e-14
-2.993813092e-15
2.030327928e-14
-4.361784482e-14
5.032546623e-14
-1.012231515e-14
-2.248523316e-14
3.924179091e-14
2.511759424e-14
1.145515086e-14
9.380607935e-15
7.900971888e-15
2.796228144e-15
1.074107726e-14
7.887855253e-15
1.067408688e-14
5.723533154e-15
-2.607374011e-14
5.802254563e-14
2.067563291e-14
1.605556079e-14
6.00841917e-15
-9.408171697e-15
3.183145705e-15
2.791690146e-14
3.459218739e-14
6.910545619e-15
1.730501657e-14
1.424822063e-14
1.568480496e-16
7.138779135e-15
-5.810614517e-17
7.860717834e-15
4.493927611e-15
1.0021141e-14
5.423837948e-15
5.36062903e-15
4.004528068e-15
2.151393477e-15
-5.111975822e-16
-2.339206948e-15
6.362704959e-15
-2.208008454e-15
3.902193575e-15
9.996332299e-17
2.677030429e-15
1.205657361e-15
1.708351831e-16
2.9206476e-16
-2.948902813e-16
1.953796934e-16
-4.008303951e-16
-6.619204755e-16
9.006185121e-16
6.124380577e-16
1.732101398e-15
2.43442817e-15
4.187046509e-15
2.082063261e-15
-1.261487214e-15
-4.612984529e-15
-2.693794661e-15
-1.263128998e-15
-7.346155528e-16
-1.445347081e-15
-2.319809525e-15
-7.885430923e-16
-1.148222863e-15
-1.187660934e-15
-1.431626985e-15
-1.417870664e-15
-1.09363131e-15
-8.935869195e-16
-8.299434331e-16
-1.123014839e-15
-1.232455398e-15
-1.274277654e-15
-1.285109532e-15
-1.566600145e-15
-2.537653257e-15
-2.760754184e-14
-1.258062529e-13
-4.543674749e-13
-6.458687221e-13
-6.417437749e-13
-6.375982581e-13
-6.318144886e-13
)


101
(
-6.826866345e-12
-1.184879573e-14
6.912592331e-14
6.338644157e-14
5.067143914e-14
1.817171307e-14
2.561394371e-14
8.128061757e-15
4.090727486e-15
-2.580696455e-15
-2.072959881e-15
-1.828109719e-14
7.284270673e-15
-3.776218789e-15
-1.205672553e-14
-5.304176489e-15
1.455505173e-14
-3.15931536e-14
2.961507847e-14
2.034307307e-16
-1.89816126e-14
2.242288833e-14
2.513610877e-14
1.415876917e-14
9.244767068e-15
7.082769779e-15
3.026312388e-15
6.776134218e-15
6.722550401e-15
8.123074239e-15
5.929841841e-15
-1.460195428e-14
2.707592416e-14
2.742030115e-14
1.85436258e-14
9.808459427e-15
-2.9991727e-15
-1.543506977e-15
1.469853283e-14
2.70850897e-14
1.696396076e-14
1.445826586e-14
1.377169806e-14
5.729634783e-15
4.260225476e-15
1.606734001e-15
3.390220087e-15
3.843204608e-15
5.974900899e-15
5.507853823e-15
4.382186423e-15
3.296252726e-15
1.817327261e-15
-1.869680375e-16
-2.148695658e-15
6.18223261e-16
-4.096019785e-16
1.132499766e-16
-1.979616236e-16
-1.016759807e-17
-1.075496856e-16
-8.89207531e-16
-1.382230084e-15
-1.807897269e-15
-1.898034592e-15
-2.08541208e-15
-2.380863652e-15
-1.915107081e-15
-1.452343792e-15
-7.841873872e-16
-1.120472004e-17
8.417142933e-16
1.097233036e-16
-2.52049083e-15
-5.579752643e-15
-6.079476186e-15
-4.692251074e-15
-3.678970881e-15
-3.944442567e-15
-4.663758519e-15
-4.193732103e-15
-3.889408828e-15
-4.340297337e-15
-4.832616177e-15
-5.046955335e-15
-4.78596384e-15
-4.473180791e-15
-4.42208111e-15
-4.949186206e-15
-5.647550303e-15
-6.182907551e-15
-6.51376657e-15
-7.220373193e-15
-9.837324569e-15
-6.244477542e-14
-2.246435231e-13
-8.523384156e-13
-1.292014429e-12
-1.283839323e-12
-1.275613106e-12
-1.264034237e-12
)


101
(
-6.723748217e-12
1.493535949e-15
7.206178908e-14
6.441619404e-14
5.079620233e-14
1.907941084e-14
2.419926022e-14
8.625326118e-15
3.838138519e-15
-2.434753607e-15
-2.626811819e-15
-1.653542446e-14
3.2429871e-15
-2.874094695e-15
-1.109767695e-14
-7.12793242e-15
9.432663719e-15
-2.316138306e-14
1.534337307e-14
4.268884901e-15
-1.494195008e-14
1.062456847e-14
2.133976222e-14
1.52502556e-14
9.422523402e-15
6.302832845e-15
2.721763409e-15
3.886739011e-15
4.66936395e-15
5.6390593e-15
4.852244724e-15
-8.006714186e-15
1.071725262e-14
2.285651955e-14
1.956355648e-14
1.213988941e-14
1.607681761e-15
-2.281351593e-15
6.07270755e-15
1.807625315e-14
1.818420971e-14
1.447308327e-14
1.27305827e-14
7.813908197e-15
3.947901331e-15
1.536606318e-15
1.077007003e-15
1.691192899e-15
2.818947322e-15
3.39030929e-15
2.759195852e-15
1.796795466e-15
5.82976185e-16
-9.396123717e-16
-2.631642983e-15
-2.377841937e-15
-2.059270713e-15
-2.234038057e-15
-2.283636656e-15
-2.489839872e-15
-2.600457731e-15
-3.09034475e-15
-3.695664738e-15
-4.229457996e-15
-4.603714771e-15
-4.879111539e-15
-5.177898904e-15
-5.158816268e-15
-4.798156087e-15
-4.252503069e-15
-3.624788663e-15
-3.266133238e-15
-4.029407813e-15
-6.37452823e-15
-9.180673014e-15
-1.038027461e-14
-9.679272435e-15
-8.865164089e-15
-9.074749999e-15
-9.646569573e-15
-9.441513913e-15
-9.341508052e-15
-1.014045357e-14
-1.105981689e-14
-1.174648731e-14
-1.200577119e-14
-1.1869167e-14
-1.179935466e-14
-1.263440935e-14
-1.414532955e-14
-1.575107416e-14
-1.708917479e-14
-1.916732908e-14
-2.397645369e-14
-1.060232646e-13
-3.367047853e-13
-1.256994841e-12
-1.938202162e-12
-1.925968055e-12
-1.913662006e-12
-1.896298833e-12
)


101
(
-6.620919432e-12
1.469796229e-14
7.506800345e-14
6.548616653e-14
5.096475208e-14
1.996667055e-14
2.294469922e-14
8.999200755e-15
3.652529486e-15
-2.319387011e-15
-3.108822543e-15
-1.509178723e-14
-5.768944142e-17
-2.682560239e-15
-1.027652268e-14
-8.544142994e-15
4.923872374e-15
-1.748723701e-14
5.544303631e-15
4.668289908e-15
-1.157873727e-14
2.584019147e-15
1.585440177e-14
1.448102669e-14
9.307226935e-15
5.522710132e-15
2.029969215e-15
1.553496493e-15
2.261026731e-15
3.027513633e-15
2.96335308e-15
-4.822878885e-15
1.92444798e-15
1.524948196e-14
1.713692612e-14
1.266079539e-14
4.653480024e-15
-1.461522284e-15
1.05740355e-15
1.002346781e-14
1.465917693e-14
1.317663422e-14
1.134722874e-14
7.800099061e-15
3.604115596e-15
8.597781573e-16
-7.423164302e-16
-7.487186751e-16
-3.066706835e-16
3.171963252e-16
4.166914154e-17
-7.172907528e-16
-1.76677654e-15
-2.987885417e-15
-4.355885776e-15
-5.020053347e-15
-4.866454859e-15
-5.220045791e-15
-5.389341412e-15
-5.838882722e-15
-6.190748575e-15
-6.719183041e-15
-7.383419493e-15
-8.055852768e-15
-8.680461278e-15
-9.211920326e-15
-9.694319972e-15
-9.987756952e-15
-9.929109357e-15
-9.628740417e-15
-9.235938084e-15
-9.277590002e-15
-1.047230326e-14
-1.310081829e-14
-1.605462454e-14
-1.76308396e-14
-1.752664336e-14
-1.726962243e-14
-1.786596986e-14
-1.860090088e-14
-1.853512662e-14
-1.871755604e-14
-2.003736788e-14
-2.15966177e-14
-2.299132268e-14
-2.406362247e-14
-2.473121226e-14
-2.500052904e-14
-2.61674737e-14
-2.858666094e-14
-3.177402993e-14
-3.516577848e-14
-3.880749204e-14
-4.675627656e-14
-1.593564824e-13
-4.622564438e-13
-1.668907562e-12
-2.584354898e-12
-2.567954078e-12
-2.551453956e-12
-2.528292482e-12
)


101
(
-6.518383855e-12
2.776428184e-14
7.814136097e-14
6.659572122e-14
5.117639288e-14
2.083602331e-14
2.184078617e-14
9.270384139e-15
3.521434763e-15
-2.221493821e-15
-3.521597089e-15
-1.389550933e-14
-2.738569125e-15
-2.987841354e-15
-9.647389216e-15
-9.63455106e-15
9.978829417e-16
-1.389881824e-14
-1.199656953e-15
3.068757659e-15
-9.342838871e-15
-2.839895597e-15
9.958707442e-15
1.214411133e-14
8.516165238e-15
4.598066027e-15
1.038833481e-15
-5.315115417e-16
-2.64965668e-16
2.776877601e-16
5.625081035e-16
-3.945546685e-15
-3.19624935e-15
7.76097853e-15
1.241642095e-14
1.132280931e-14
5.795352914e-15
-5.520335475e-16
-1.665877257e-15
3.734828514e-15
9.275465777e-15
9.911420451e-15
8.953690158e-15
6.304044197e-15
2.378384269e-15
-5.118782101e-16
-2.751694699e-15
-3.417925109e-15
-3.609222205e-15
-3.300299411e-15
-3.581004461e-15
-4.282738261e-15
-5.292052459e-15
-6.411229984e-15
-7.582361006e-15
-8.541332217e-15
-8.711912856e-15
-9.328695416e-15
-9.730862324e-15
-1.048398769e-14
-1.119139651e-14
-1.199677119e-14
-1.288107008e-14
-1.377461666e-14
-1.468645904e-14
-1.557615809e-14
-1.643049357e-14
-1.714361625e-14
-1.752063426e-14
-1.764275648e-14
-1.765208207e-14
-1.817832303e-14
-1.997037669e-14
-2.322779804e-14
-2.672265628e-14
-2.881067132e-14
-2.933513536e-14
-2.984302126e-14
-3.122247686e-14
-3.253813591e-14
-3.278744684e-14
-3.328634695e-14
-3.521848643e-14
-3.762737293e-14
-4.001475982e-14
-4.22397148e-14
-4.414966626e-14
-4.536974919e-14
-4.729875309e-14
-5.048744148e-14
-5.563364555e-14
-6.162568613e-14
-6.781687805e-14
-7.994711055e-14
-2.255951243e-13
-6.009063602e-13
-2.088293223e-12
-3.230431737e-12
-3.209978022e-12
-3.189410421e-12
-3.160479836e-12
)


101
(
-6.416145541e-12
4.068448873e-14
8.127856586e-14
6.774408055e-14
5.143035064e-14
2.168995533e-14
2.087884044e-14
9.457837737e-15
3.43458018e-15
-2.131460948e-15
-3.867210422e-15
-1.290139054e-14
-4.897516839e-15
-3.619608491e-15
-9.224816682e-15
-1.046726213e-14
-2.381738508e-15
-1.18469962e-14
-5.899485896e-15
5.144084771e-16
-8.261087127e-15
-6.570964637e-15
4.346457804e-15
8.704159325e-15
6.893053864e-15
3.351708948e-15
-2.289444364e-16
-2.547926065e-15
-2.838054717e-15
-2.588625531e-15
-2.17933014e-15
-4.618947831e-15
-6.682402499e-15
1.288988054e-15
6.516609333e-15
7.931047303e-15
4.996858313e-15
-4.287670135e-16
-3.369257187e-15
-9.973636168e-16
3.631391017e-15
5.250337658e-15
5.310660165e-15
3.501641939e-15
2.772875637e-17
-2.817558512e-15
-5.396936942e-15
-6.580938447e-15
-7.323414601e-15
-7.453547101e-15
-7.980338773e-15
-8.823389388e-15
-9.974840876e-15
-1.121813118e-14
-1.242419764e-14
-1.355973321e-14
-1.404020844e-14
-1.497255391e-14
-1.569386332e-14
-1.68428651e-14
-1.801489656e-14
-1.929334294e-14
-2.061278021e-14
-2.189056081e-14
-2.319151708e-14
-2.453011424e-14
-2.591083889e-14
-2.721343488e-14
-2.8212433e-14
-2.895601258e-14
-2.955492055e-14
-3.07227239e-14
-3.327410148e-14
-3.740657966e-14
-4.17656553e-14
-4.463507205e-14
-4.596039265e-14
-4.739852402e-14
-4.983560033e-14
-5.217842908e-14
-5.314219943e-14
-5.41901497e-14
-5.681413989e-14
-6.023556708e-14
-6.38629036e-14
-6.758570807e-14
-7.115680682e-14
-7.409227257e-14
-7.70522132e-14
-8.141032677e-14
-8.854774385e-14
-9.757797592e-14
-1.074710234e-13
-1.243430963e-13
-3.045431735e-13
-7.54445357e-13
-2.515649755e-12
-3.876453217e-12
-3.85189495e-12
-3.827198742e-12
-3.792491733e-12
)


101
(
-6.314208825e-12
-3.833721409e-12
-1.954267629e-12
6.893036459e-14
5.172572984e-14
2.253068683e-14
2.005069225e-14
9.578837044e-15
3.383541485e-15
-2.041677662e-15
-4.14750939e-15
-1.206899281e-14
-6.618261145e-15
-4.448527262e-15
-9.007843319e-15
-1.111083538e-14
-5.263842839e-15
-1.09099708e-14
-9.262157886e-15
-2.398137112e-15
-8.18089787e-15
-9.277501969e-15
-6.921268241e-16
4.613643755e-15
4.464079089e-15
1.660765074e-15
-1.786087475e-15
-4.603585178e-15
-5.45570599e-15
-5.559564508e-15
-5.173257709e-15
-6.325933849e-15
-9.556036677e-15
-4.132806965e-15
3.560733756e-16
3.116489394e-15
2.366082959e-15
-1.609671118e-15
-5.04322455e-15
-4.748330096e-15
-1.655279687e-15
-8.92140785e-17
5.853994431e-16
-5.303195974e-16
-3.521658561e-15
-6.22212507e-15
-8.98147802e-15
-1.054810692e-14
-1.175826903e-14
-1.23648588e-14
-1.326791139e-14
-1.441735663e-14
-1.588071524e-14
-1.745753512e-14
-1.896250595e-14
-2.040991603e-14
-2.124329492e-14
-2.253999141e-14
-2.370320172e-14
-2.535656802e-14
-2.711157534e-14
-2.904891443e-14
-3.102615445e-14
-3.290782145e-14
-3.474914535e-14
-3.664359487e-14
-3.866608126e-14
-4.072450656e-14
-4.254999607e-14
-4.413819353e-14
-4.556784941e-14
-4.758563976e-14
-5.106261322e-14
-5.625773274e-14
-6.175454345e-14
-6.568892451e-14
-6.804077234e-14
-7.058767814e-14
-7.434242923e-14
-7.8107108e-14
-8.029089405e-14
-8.227786775e-14
-8.581703707e-14
-9.037193019e-14
-9.544670784e-14
-1.008934705e-13
-1.064350605e-13
-1.116976481e-13
-1.164495342e-13
-1.223936683e-13
-1.314876422e-13
-1.439879778e-13
-1.584849189e-13
-1.807752225e-13
-3.950935662e-13
-9.23630607e-13
-2.951180307e-12
-4.522290013e-12
-4.493493777e-12
-4.465477641e-12
-4.424102312e-12
)


101
(
-6.212577976e-12
-3.818773217e-12
-1.949538294e-12
7.015341828e-14
5.206152228e-14
2.336019391e-14
1.934845482e-14
9.648751584e-15
3.361649687e-15
-1.946165532e-15
-4.364885612e-15
-1.136356827e-14
-7.970714745e-15
-5.371774439e-15
-8.97184074e-15
-1.161898944e-14
-7.696573881e-15
-1.075265621e-14
-1.176452349e-14
-5.323432624e-15
-8.869032737e-15
-1.141911675e-14
-5.085431305e-15
2.669978689e-16
1.377429016e-15
-5.317537309e-16
-3.676111318e-15
-6.783577136e-15
-8.135259578e-15
-8.623108097e-15
-8.363483806e-15
-8.751286252e-15
-1.233830275e-14
-8.757950776e-15
-5.562572005e-15
-2.484357738e-15
-1.732842363e-15
-4.185461254e-15
-7.32011556e-15
-8.204678129e-15
-6.596469918e-15
-5.721748213e-15
-4.961138772e-15
-5.658162537e-15
-8.274251635e-15
-1.083783693e-14
-1.372356221e-14
-1.561303426e-14
-1.725939154e-14
-1.834963626e-14
-1.970934626e-14
-2.130035882e-14
-2.3208637e-14
-2.527521799e-14
-2.729064174e-14
-2.923664413e-14
-3.057376998e-14
-3.238130913e-14
-3.409465398e-14
-3.63592404e-14
-3.883553415e-14
-4.159533878e-14
-4.443547561e-14
-4.716290685e-14
-4.976479683e-14
-5.236935479e-14
-5.513660031e-14
-5.808476818e-14
-6.094197903e-14
-6.363024848e-14
-6.61449286e-14
-6.922249813e-14
-7.381094595e-14
-8.02529136e-14
-8.711850493e-14
-9.240742322e-14
-9.607079479e-14
-9.997042195e-14
-1.052852923e-13
-1.108148363e-13
-1.147058838e-13
-1.181060966e-13
-1.228653423e-13
-1.286965519e-13
-1.354223677e-13
-1.428110994e-13
-1.507287121e-13
-1.587315355e-13
-1.661552457e-13
-1.740960095e-13
-1.854701633e-13
-2.017146805e-13
-2.214904767e-13
-2.499811612e-13
-5.020159761e-13
-1.109531526e-12
-3.394777543e-12
-5.168456515e-12
-5.135007384e-12
-5.104698547e-12
-5.054879905e-12
)


101
(
-6.111257427e-12
7.854320591e-14
9.104009055e-14
-1.299118321e-12
5.243651582e-14
2.418013089e-14
1.876415328e-14
9.680499025e-15
3.363320158e-15
-1.841233751e-15
-4.521988178e-15
-1.075612669e-14
-9.013652503e-15
-6.314443851e-15
-9.083899283e-15
-1.203175732e-14
-9.728694395e-15
-1.111488926e-14
-1.372963429e-14
-8.0856558e-15
-1.010030605e-14
-1.328489516e-14
-8.873437922e-15
-4.068418714e-15
-2.195860912e-15
-3.232274714e-15
-5.936938543e-15
-9.150592046e-15
-1.091374714e-14
-1.178777519e-14
-1.171553581e-14
-1.167760523e-14
-1.525561337e-14
-1.289904626e-14
-1.104104131e-14
-8.349683388e-15
-6.848091501e-15
-8.089090743e-15
-1.058067487e-14
-1.194442946e-14
-1.150006662e-14
-1.157823675e-14
-1.115242229e-14
-1.179133726e-14
-1.423385091e-14
-1.673751304e-14
-1.976355363e-14
-2.199352898e-14
-2.409378919e-14
-2.569542615e-14
-2.758002942e-14
-2.969946779e-14
-3.217251115e-14
-3.486044923e-14
-3.755047922e-14
-4.019097106e-14
-4.221818263e-14
-4.46816015e-14
-4.706024684e-14
-5.005401454e-14
-5.336942576e-14
-5.708100262e-14
-6.097294367e-14
-6.479901883e-14
-6.843313585e-14
-7.196669154e-14
-7.561646003e-14
-7.954728434e-14
-8.356777655e-14
-8.758798101e-14
-9.148492453e-14
-9.591475193e-14
-1.018302549e-13
-1.068687428e-13
-1.181174375e-13
-1.250698847e-13
-1.303810849e-13
-1.358970433e-13
-1.429940398e-13
-1.505931433e-13
-1.56629158e-13
-1.619705662e-13
-1.683225619e-13
-1.756913679e-13
-1.843007254e-13
-1.939039446e-13
-2.044779637e-13
-2.155579051e-13
-2.264073168e-13
-2.369764407e-13
-2.512100538e-13
-2.713253644e-13
-2.968794309e-13
-3.32510604e-13
-6.235919736e-13
-1.310477147e-12
-3.846409317e-12
-5.815371698e-12
-5.776641042e-12
-5.740949861e-12
-5.683391392e-12
)


101
(
-6.010253882e-12
9.084687988e-14
9.439780704e-14
-1.297272242e-12
5.284936168e-14
2.499206898e-14
1.829043645e-14
9.685852293e-15
3.384930196e-15
-1.723708946e-15
-4.620089447e-15
-1.022179452e-14
-9.793730634e-15
-7.225984888e-15
-9.310744355e-15
-1.237567824e-14
-1.14060925e-14
-1.180344863e-14
-1.534844233e-14
-1.062314501e-14
-1.167645345e-14
-1.502197857e-14
-1.214468915e-14
-8.210263055e-15
-6.048215126e-15
-6.372086363e-15
-8.566786778e-15
-1.173212202e-14
-1.380947645e-14
-1.505872802e-14
-1.522536747e-14
-1.499013844e-14
-1.843499954e-14
-1.682653014e-14
-1.613301487e-14
-1.421241759e-14
-1.260043688e-14
-1.305902017e-14
-1.487931094e-14
-1.636211989e-14
-1.674632359e-14
-1.776817801e-14
-1.797625109e-14
-1.885937265e-14
-2.134589245e-14
-2.394327105e-14
-2.720218404e-14
-2.981506125e-14
-3.242523981e-14
-3.45775006e-14
-3.705492822e-14
-3.978887588e-14
-4.291682396e-14
-4.633380491e-14
-4.983691661e-14
-5.334862185e-14
-5.623213957e-14
-5.952603172e-14
-6.270626842e-14
-6.653718494e-14
-7.080024584e-14
-7.557898275e-14
-8.067371148e-14
-8.581796442e-14
-9.077606963e-14
-9.55107265e-14
-1.002416258e-13
-1.052614671e-13
-1.105617519e-13
-1.16112712e-13
-1.21676831e-13
-1.277633884e-13
-1.352733401e-13
-1.419024436e-13
-1.521874075e-13
-1.638599408e-13
-1.711139258e-13
-1.785852653e-13
-1.877482781e-13
-1.976311678e-13
-2.061617822e-13
-2.139862112e-13
-2.224474722e-13
-2.316249833e-13
-2.424045083e-13
-2.545635617e-13
-2.679996413e-13
-2.824354835e-13
-2.972044727e-13
-3.114249395e-13
-3.288323798e-13
-3.529816234e-13
-3.848343285e-13
-4.285374607e-13
-7.588671931e-13
-1.527451155e-12
-4.305529887e-12
-6.460310161e-12
-6.413393781e-12
-6.374065147e-12
-6.311024202e-12
)


101
(
-5.909574584e-12
1.029875526e-13
9.780041069e-14
7.40281264e-14
5.32985989e-14
2.579722132e-14
1.792003761e-14
9.674941679e-15
3.423405583e-15
-1.592190865e-15
-4.662068549e-15
-9.740628813e-15
-1.034956249e-14
-8.066918821e-15
-9.61563882e-15
-1.266754646e-14
-1.277521746e-14
-1.266419271e-14
-1.674614088e-14
-1.291470461e-14
-1.343823914e-14
-1.672816484e-14
-1.500036676e-14
-1.205449108e-14
-9.985780432e-15
-9.83214205e-15
-1.152698654e-14
-1.453407048e-14
-1.68298765e-14
-1.84368799e-14
-1.889252788e-14
-1.862462159e-14
-2.191955455e-14
-2.075736388e-14
-2.098937702e-14
-1.996536824e-14
-1.867936477e-14
-1.884159959e-14
-2.020875183e-14
-2.163403665e-14
-2.257026405e-14
-2.447079286e-14
-2.550751741e-14
-2.688031921e-14
-2.963594639e-14
-3.246367197e-14
-3.603516635e-14
-3.91329444e-14
-4.232545954e-14
-4.509357357e-14
-4.82181309e-14
-5.162919061e-14
-5.549816623e-14
-5.973853616e-14
-6.417277436e-14
-6.87080048e-14
-7.265165256e-14
-7.697374523e-14
-8.110998687e-14
-8.591234807e-14
-9.122348113e-14
-9.716451724e-14
-1.035831892e-13
-1.102153117e-13
-1.167606957e-13
-1.230272779e-13
-1.29137382e-13
-1.354242731e-13
-1.421045688e-13
-1.524982176e-13
-1.598768046e-13
-1.648336677e-13
-1.743073494e-13
-1.857301582e-13
-1.951292257e-13
-2.089564673e-13
-2.184148709e-13
-2.282091775e-13
-2.397804937e-13
-2.521422421e-13
-2.634342534e-13
-2.742287495e-13
-2.853964532e-13
-2.967785435e-13
-3.099673906e-13
-3.24967167e-13
-3.415870114e-13
-3.595173319e-13
-3.786542139e-13
-3.973941652e-13
-4.183724067e-13
-4.469730122e-13
-4.85490134e-13
-5.381120624e-13
-9.087369581e-13
-1.760143155e-12
-4.771534767e-12
-7.103560594e-12
-7.048247491e-12
-7.00454374e-12
-6.934200641e-12
)


101
(
-5.809217579e-12
-3.760258248e-12
1.012431969e-13
7.538233019e-14
5.378263359e-14
2.659663042e-14
1.764604414e-14
9.656700464e-15
3.476971156e-15
-1.445283956e-15
-4.65091581e-15
-9.294448843e-15
-1.071471606e-14
-8.808015098e-15
-9.959472282e-15
-1.29187796e-14
-1.387508978e-14
-1.358396177e-14
-1.799116821e-14
-1.497052981e-14
-1.52742698e-14
-1.842197172e-14
-1.752169492e-14
-1.555690675e-14
-1.384979929e-14
-1.346140326e-14
-1.474239048e-14
-1.754157758e-14
-1.998057908e-14
-2.192583429e-14
-2.271181912e-14
-2.254323797e-14
-2.574682967e-14
-2.486934026e-14
-2.578529235e-14
-2.564278256e-14
-2.496648872e-14
-2.523986851e-14
-2.638424675e-14
-2.776885579e-14
-2.91649755e-14
-3.187020606e-14
-3.378022666e-14
-3.583624609e-14
-3.904963923e-14
-4.227151702e-14
-4.628928376e-14
-4.992732387e-14
-5.376764858e-14
-5.727488961e-14
-6.113331412e-14
-6.528826668e-14
-6.995226053e-14
-7.509505623e-14
-8.056681663e-14
-8.627001964e-14
-9.148277259e-14
-9.70385336e-14
-1.023516719e-13
-1.082825371e-13
-1.147483283e-13
-1.219718538e-13
-1.298260073e-13
-1.380935607e-13
-1.464266547e-13
-1.545447098e-13
-1.623987285e-13
-1.702505979e-13
-1.784523588e-13
-1.906162141e-13
-2.00030807e-13
-2.072062561e-13
-2.190185932e-13
-2.327368988e-13
-2.472933463e-13
-2.606478281e-13
-2.753337882e-13
-2.849524439e-13
-2.992858461e-13
-3.144534568e-13
-3.312699766e-13
-3.428053357e-13
-3.573195579e-13
-3.714837801e-13
-3.871935484e-13
-4.052726184e-13
-4.255131995e-13
-4.48267262e-13
-4.709952371e-13
-4.959461679e-13
-5.211259894e-13
-5.533749713e-13
-5.989904721e-13
-6.612846504e-13
-1.073081253e-12
-2.008212759e-12
-5.245203564e-12
-7.74776952e-12
-7.685253998e-12
-7.634224443e-12
-7.555342961e-12
)


101
(
-5.709184976e-12
-3.745964814e-12
1.047213962e-13
7.676447898e-14
5.429976004e-14
2.73911432e-14
1.74618924e-14
9.638893071e-15
3.544490129e-15
-1.281981758e-15
-4.589912197e-15
-8.869542897e-15
-1.091544007e-14
-9.430874273e-15
-1.031005136e-14
-1.313437281e-14
-1.473762015e-14
-1.448704773e-14
-1.910422255e-14
-1.681019739e-14
-1.710229329e-14
-2.009734382e-14
-1.978462305e-14
-1.871560675e-14
-1.754331422e-14
-1.715276303e-14
-1.815523941e-14
-2.07392391e-14
-2.325622156e-14
-2.551301352e-14
-2.667177724e-14
-2.672679149e-14
-2.991571567e-14
-2.925111805e-14
-3.068089264e-14
-3.13354183e-14
-3.139066097e-14
-3.20442928e-14
-3.328361999e-14
-3.476083058e-14
-3.653168923e-14
-3.996772649e-14
-4.280652487e-14
-4.574854306e-14
-4.961932695e-14
-5.334997317e-14
-5.788579245e-14
-6.217906206e-14
-6.678071675e-14
-7.111500715e-14
-7.583152549e-14
-8.083575198e-14
-8.636542406e-14
-9.246616733e-14
-9.903449675e-14
-1.060352507e-13
-1.126803356e-13
-1.197266511e-13
-1.264882588e-13
-1.337501552e-13
-1.415457346e-13
-1.501911064e-13
-1.596019961e-13
-1.696009452e-13
-1.798848168e-13
-1.901574973e-13
-2.001421435e-13
-2.169837821e-13
-2.267585226e-13
-2.306238831e-13
-2.422222034e-13
-2.550313164e-13
-2.694930606e-13
-2.859175275e-13
-3.032007841e-13
-3.221412729e-13
-3.366728308e-13
-3.490900062e-13
-3.66536048e-13
-3.848933035e-13
-4.049761694e-13
-4.200417623e-13
-4.384207774e-13
-4.584916612e-13
-4.769566353e-13
-4.958284252e-13
-5.200101973e-13
-5.46924203e-13
-5.756159279e-13
-6.049041169e-13
-6.351875027e-13
-6.725753032e-13
-7.267373142e-13
-7.992697072e-13
-1.251913447e-12
-2.272519497e-12
-5.725805699e-12
-8.383862714e-12
-8.311651241e-12
-8.255975428e-12
-8.172972874e-12
)


101
(
-5.609486561e-12
1.38362846e-13
-1.919680714e-12
7.817228656e-14
5.484818643e-14
2.818137795e-14
1.736133299e-14
9.628193554e-15
3.625256836e-15
-1.102261825e-15
-4.482070077e-15
-8.45457358e-15
-1.097358566e-14
-9.925151491e-15
-1.064297753e-14
-1.331059383e-14
-1.539488648e-14
-1.531303078e-14
-2.009689495e-14
-1.843708495e-14
-1.886324203e-14
-2.174319954e-14
-2.183881693e-14
-2.154612218e-14
-2.10112727e-14
-2.082476253e-14
-2.169692328e-14
-2.408898151e-14
-2.66388955e-14
-2.918349692e-14
-3.075309613e-14
-3.11368354e-14
-3.44127475e-14
-3.396347991e-14
-3.580195262e-14
-3.71467667e-14
-3.79716978e-14
-3.9206726e-14
-4.079006139e-14
-4.246138326e-14
-4.465349306e-14
-4.878841153e-14
-5.259707888e-14
-5.654585413e-14
-6.126798308e-14
-6.570220953e-14
-7.08678807e-14
-7.585679659e-14
-8.129680578e-14
-8.661662688e-14
-9.232616035e-14
-9.831272922e-14
-1.048247529e-13
-1.119473905e-13
-1.196810709e-13
-1.280352853e-13
-1.362632152e-13
-1.450397007e-13
-1.535224514e-13
-1.624084808e-13
-1.717825784e-13
-1.820221113e-13
-1.93129161e-13
-2.049730699e-13
-2.173605074e-13
-2.299996589e-13
-2.424839579e-13
-2.546843635e-13
-2.737754374e-13
-2.795354583e-13
-2.933113726e-13
-3.118628891e-13
-3.259350311e-13
-3.454271504e-13
-3.659074036e-13
-3.880520494e-13
-4.056089458e-13
-4.23827597e-13
-4.418018217e-13
-4.637936864e-13
-4.849465865e-13
-5.089641774e-13
-5.289854182e-13
-5.532733258e-13
-5.750651738e-13
-5.971673485e-13
-6.254933709e-13
-6.571392839e-13
-6.908643733e-13
-7.248982951e-13
-7.621614303e-13
-8.062683197e-13
-8.671739643e-13
-9.504307123e-13
-1.4455292e-12
-2.550270216e-12
-6.207677826e-12
-9.012229256e-12
-8.933328001e-12
-8.866566619e-12
-8.786403893e-12
)


101
(
-5.510127904e-12
1.497873076e-13
-1.914497114e-12
7.960329147e-14
5.542596999e-14
2.896777823e-14
1.733843881e-14
9.630359359e-15
3.719339753e-15
-9.062442199e-16
-4.329561473e-15
-8.040247949e-15
-1.090789441e-14
-1.02855549e-14
-1.093370235e-14
-1.34393859e-14
-1.587046075e-14
-1.602321159e-14
-2.095412632e-14
-1.985635769e-14
-2.051204657e-14
-2.332607368e-14
-2.371716528e-14
-2.407016914e-14
-2.421301122e-14
-2.440241584e-14
-2.530282457e-14
-2.757100851e-14
-3.012951094e-14
-3.292821825e-14
-3.493438686e-14
-3.574841922e-14
-3.923444015e-14
-3.903419416e-14
-4.122929556e-14
-4.317384143e-14
-4.475595289e-14
-4.66997573e-14
-4.88030832e-14
-5.085226953e-14
-5.348727709e-14
-5.82583111e-14
-6.307092973e-14
-6.817915461e-14
-7.398488594e-14
-7.929251946e-14
-8.518465656e-14
-9.09735922e-14
-9.733908213e-14
-1.037139596e-13
-1.10593065e-13
-1.177580051e-13
-1.254091789e-13
-1.336826079e-13
-1.426410587e-13
-1.524053704e-13
-1.623002753e-13
-1.729627629e-13
-1.834639942e-13
-2.037421932e-13
-2.055660735e-13
-2.176098354e-13
-2.305890777e-13
-2.444444824e-13
-2.590885637e-13
-2.742569662e-13
-2.89522014e-13
-2.971959889e-13
-3.19290608e-13
-3.379343794e-13
-3.505936145e-13
-3.71793338e-13
-3.855216933e-13
-4.083855203e-13
-4.35630984e-13
-4.585855551e-13
-4.826538685e-13
-5.041247851e-13
-5.255575922e-13
-5.515335224e-13
-5.794726213e-13
-6.050389942e-13
-6.295020342e-13
-6.560387218e-13
-6.844818638e-13
-7.125215116e-13
-7.426605994e-13
-7.795862172e-13
-8.187951123e-13
-8.59044812e-13
-9.038787318e-13
-9.530946051e-13
-1.02101247e-12
-1.11553475e-12
-1.654708191e-12
-2.844077382e-12
-6.697760625e-12
-9.638818558e-12
-9.558444556e-12
-9.47984225e-12
-9.404822822e-12
)


101
(
-5.411114706e-12
-3.70396872e-12
1.153071243e-13
8.105474706e-14
5.603101465e-14
2.975063461e-14
1.738770633e-14
9.650270123e-15
3.826977462e-15
-6.939940482e-16
-4.134892962e-15
-7.619702871e-15
-1.073236157e-14
-1.051024224e-14
-1.115946786e-14
-1.351872178e-14
-1.618045558e-14
-1.659326582e-14
-2.165942631e-14
-2.10699382e-14
-2.201559686e-14
-2.484001149e-14
-2.544633848e-14
-2.63230223e-14
-2.712558335e-14
-2.781587324e-14
-2.890328951e-14
-3.114450058e-14
-3.371291599e-14
-3.672740465e-14
-3.916822477e-14
-4.048361416e-14
-4.430600706e-14
-4.444811565e-14
-4.697995074e-14
-4.947458892e-14
-5.181635075e-14
-5.454036922e-14
-5.727307444e-14
-5.984236212e-14
-6.295176555e-14
-6.840325604e-14
-7.421500257e-14
-8.055874039e-14
-8.761444174e-14
-9.405278449e-14
-1.009004842e-13
-1.075584594e-13
-1.14899672e-13
-1.224322158e-13
-1.306013681e-13
-1.391406964e-13
-1.481773533e-13
-1.577789287e-13
-1.680931054e-13
-1.793110696e-13
-1.908901683e-13
-2.035800907e-13
-2.163464783e-13
-2.391597514e-13
-2.522533464e-13
-2.570754797e-13
-2.721451592e-13
-2.882320255e-13
-3.052835156e-13
-3.231125744e-13
-3.413949175e-13
-3.596258491e-13
-3.775324158e-13
-3.9915688e-13
-4.179211715e-13
-4.351577391e-13
-4.551286063e-13
-4.814073735e-13
-5.095435034e-13
-5.368894155e-13
-5.652330392e-13
-5.933857545e-13
-6.184453937e-13
-6.485259103e-13
-6.811170659e-13
-7.088095752e-13
-7.432407779e-13
-7.723346978e-13
-8.058062316e-13
-8.404080504e-13
-8.748235424e-13
-9.127203369e-13
-9.615663676e-13
-1.008276902e-12
-1.057920256e-12
-1.115100789e-12
-1.19140858e-12
-1.297758323e-12
-1.879476823e-12
-3.154611915e-12
-7.195015005e-12
-1.026096491e-11
-1.018261086e-11
-1.009613932e-11
-1.001958762e-11
)


101
(
-5.312452332e-12
-3.690276752e-12
1.188642885e-13
8.252404105e-14
-9.699975638e-13
3.052988502e-14
1.750358866e-14
9.691523215e-15
3.94765898e-15
-4.671102843e-16
-3.901703951e-15
-7.187907089e-15
-1.046072696e-14
-1.060243634e-14
-1.130457139e-14
-1.35431355e-14
-1.634240859e-14
-1.700695656e-14
-2.220265533e-14
-2.208140794e-14
-2.335734741e-14
-2.626143275e-14
-2.704156119e-14
-2.83379465e-14