/*--------------------------------*- C++ -*----------------------------------*\
| =========                 |                                                 |
| \\      /  F ield         | OpenFOAM: The Open Source CFD Toolbox           |
|  \\    /   O peration     | Version:  2.3.1                                 |
|   \\  /    A nd           | Web:      www.OpenFOAM.org                      |
|    \\/     M anipulation  |                                                 |
\*---------------------------------------------------------------------------*/
FoamFile
{
    version     2.0;
    format      ascii;
    class       dictionary;
    location    "constant";
    object      PM6;
}
// * * * * * * * * * * * * * * * * * * * * * * * * * * * * * * * * * * * * * //

PM6_table
101
(

101
(
12807.21288
479.6835444
251.7684501
168.9753476
126.1050796
99.79216746
81.97095384
68.86135816
58.84758351
50.88602779
44.40749828
39.02129869
34.52335768
30.62878735
27.3267133
24.48271425
21.99133903
19.78394243
17.93854608
16.18240241
14.72565311
13.44178318
12.23270364
11.1853752
10.26567804
9.443252794
8.707345255
8.050907539
7.454234877
6.921687933
6.441129705
6.012416876
5.644165006
5.252221864
4.931072941
4.638081009
4.373509717
4.138462444
3.914749513
3.699524296
3.503687699
3.337997598
3.17580399
3.027061245
2.895272277
2.767936397
2.653017171
2.542696157
2.442128922
2.346287409
2.258915993
2.176720752
2.099840616
2.02823236
1.961711842
1.899531037
1.838198108
1.784343486
1.731222312
1.682583044
1.635911656
1.592422339
1.551609143
1.51283848
1.476374331
1.441819708
1.409414845
1.378886545
1.349679843
1.322470822
1.296654757
1.272232158
1.248750502
1.226978742
1.20672521
1.187865328
1.169504822
1.152357198
1.136499684
1.121729057
1.107977514
1.094822312
1.082802649
1.071595727
1.061229177
1.051761514
1.04317607
1.035335823
1.028253587
1.0218376
1.016150847
1.011135351
1.006777918
1.002958146
0.9996992097
0.9943569529
0.9858878973
0.9585004264
0.9320256122
0.9064773696
0.8817497527
)


101
(
12807.2129
479.5524432
251.6865765
168.9522798
126.118212
99.83235167
82.03152973
68.94356693
58.94425114
50.99592213
44.52694588
39.14849797
34.65325442
30.76622328
27.46267035
24.61755289
22.12655413
19.9200173
18.06276782
16.31615708
14.8460808
13.55614798
12.3510193
11.29627326
10.36938012
9.541835561
8.800986025
8.139178362
7.538791051
7.001083466
6.516126493
6.082399215
5.706614654
5.321178362
4.991939116
4.694658096
4.426096162
4.186480952
3.961448568
3.746233366
3.548275614
3.37715064
3.214138368
3.063501172
2.928462443
2.800209731
2.683092671
2.571932785
2.469614241
2.372868819
2.283841856
2.200462619
2.122437046
2.04962723
1.981861513
1.91855696
1.857057247
1.801540589
1.747990112
1.698321708
1.651051872
1.606758023
1.565162142
1.525768249
1.488637305
1.453495102
1.420441019
1.389295813
1.359632643
1.331819263
1.305500242
1.280619558
1.256833904
1.234566009
1.213752211
1.194312196
1.175653989
1.15811641
1.141815082
1.126618853
1.112460718
1.099046055
1.086654672
1.075122187
1.064436989
1.054610393
1.045695688
1.037579428
1.03023861
1.023561773
1.017647593
1.012345281
1.007758761
1.003738627
1.00022262
0.9946429893
0.9858252253
0.9584320025
0.9319515337
0.9063946339
0.8816590202
)


101
(
12807.2129
479.2885489
251.5215427
168.9048971
126.1432458
99.91136325
82.15125909
69.10622801
59.13610937
51.21424358
44.76465733
39.40191652
34.91267177
31.04028586
27.73503268
24.88784136
22.39753517
20.19283316
18.31423552
16.58315563
15.09067245
13.78764219
12.58827306
11.52120227
10.5803041
9.742123881
8.991363927
8.31900486
7.710814705
7.163171552
6.669228881
6.225583974
5.835550597
5.458671104
5.117417428
4.8112022
4.534442987
4.285803026
4.056850839
3.840787197
3.639226893
3.458773035
3.292625962
3.138249872
2.997316543
2.866364662
2.745155704
2.631774179
2.526190861
2.427300123
2.335207148
2.2493181
2.168943248
2.09374354
2.023514037
1.957904442
1.895542707
1.837282229
1.782431002
1.73084937
1.682200146
1.636335614
1.5931792
1.552453383
1.513977716
1.477607394
1.443264924
1.410871376
1.380195978
1.351214979
1.323840418
1.29798114
1.273452211
1.250243229
1.228385453
1.207851767
1.18845664
1.170115941
1.152929783
1.136871611
1.121892226
1.107860655
1.094745233
1.082538211
1.071204334
1.060686984
1.051075182
1.042347662
1.034464089
1.027250803
1.020843114
1.014997896
1.009881716
1.005411798
1.001378377
0.9952409645
0.9857139156
0.9583146136
0.9318282723
0.9062633476
0.8815201664
)


101
(
12807.2129
479.0211996
251.3539459
168.855055
126.1659748
99.98798924
82.26859994
69.26597336
59.32556859
51.43014419
45.00035931
39.65355477
35.1712641
31.31250782
28.00762735
25.15859131
22.66862351
20.46564597
18.57000768
16.84789385
15.34014816
14.02293852
12.82495267
11.74950032
10.79578744
9.946415762
9.185617293
8.503049812
7.886450089
7.329539992
6.826467944
6.373180367
5.970527959
5.594502194
5.247189968
4.932419055
4.647493408
4.390220075
4.155351703
3.936580227
3.732077556
3.54506042
3.373938222
3.215634778
3.069815276
2.935027955
2.810063036
2.693683756
2.585104064
2.483605742
2.388768547
2.300230915
2.217419069
2.139861882
2.067254764
1.999313935
1.935305396
1.875038511
1.8183826
1.765037763
1.714773664
1.667360449
1.622662145
1.580498659
1.540656306
1.502988555
1.46736931
1.433716861
1.401892978
1.371785302
1.343305255
1.316388486
1.290919391
1.266793984
1.243984185
1.22246292
1.202171965
1.18298432
1.16492099
1.147978721
1.132152459
1.117367321
1.103528968
1.090613183
1.078597129
1.067411811
1.057093213
1.047652698
1.039147688
1.031362348
1.024397556
1.018010715
1.01229172
1.007283154
1.002706828
0.9958909029
0.9856155445
0.9582179694
0.9317338915
0.9061762025
0.8814403785
)


101
(
12807.21171
478.7502799
251.183714
168.8027007
126.1863562
100.0622036
82.38352583
69.42279659
59.51256083
51.64359391
45.23399029
39.90336856
35.42891398
31.58298674
28.28017301
25.42975639
22.93987041
20.73845566
18.8293184
17.11158334
15.59317582
14.26218876
13.06210995
11.98032134
11.01540909
10.15482435
9.383814031
8.691228201
8.065881823
7.500062191
6.987960963
6.525226871
6.111048214
5.731336191
5.379613509
5.057783106
4.765116841
4.499605099
4.257834101
4.03472032
3.826887703
3.634811413
3.458534843
3.295862725
3.145540357
3.006604562
2.877789034
2.758047371
2.646371982
2.542050746
2.444468481
2.353244585
2.267898114
2.187941865
2.112988267
2.042737083
1.976741903
1.91454634
1.856014724
1.80086135
1.748883848
1.699846507
1.65357746
1.609917017
1.568657707
1.52964236
1.492718052
1.45778575
1.424742086
1.393469914
1.363859977
1.335846959
1.309342382
1.284231297
1.260452437
1.237965744
1.216748589
1.19667484
1.177728353
1.159883331
1.143164085
1.127551119
1.112940034
1.099283281
1.086544681
1.074659375
1.063648957
1.053473278
1.044243697
1.035823285
1.028254845
1.021270645
1.014944251
1.009307149
1.0041388
0.9965906866
0.9855272173
0.9581355521
0.9316567744
0.9061028858
0.8813699113
)


101
(
12807.21288
478.4758678
251.0108638
168.747844
126.2043979
100.1340159
82.49604069
69.57671583
59.69704262
51.8545753
45.46550359
40.15132329
35.6855206
31.85180504
28.55244519
25.70126496
23.21131685
21.01127798
19.0915349
17.37508296
15.84890676
14.50527439
13.30058633
12.21328011
11.23871021
10.36732166
9.586026676
8.883507551
8.249219945
7.674681507
7.153752111
6.681786503
6.256837324
5.870794008
5.514417685
5.18670704
4.886979826
4.613748423
4.364730395
4.136108276
3.924152805
3.727540298
3.546358723
3.379117862
3.224366685
3.081201287
2.948415338
2.825076379
2.710129393
2.602816274
2.502400689
2.40843258
2.320460808
2.238019693
2.160684964
2.088120103
2.019993945
1.955800822
1.895353313
1.838346684
1.784588448
1.733849701
1.685946677
1.640724781
1.597986507
1.557570786
1.519302284
1.483059522
1.44874539
1.416253587
1.385471611
1.356325753
1.328733052
1.302577385
1.277783401
1.254301679
1.232124844
1.211131413
1.191286278
1.172536388
1.154895456
1.138389425
1.122943758
1.108499651
1.095003571
1.082379062
1.070644813
1.059743012
1.049739584
1.040602548
1.032373573
1.024748432
1.017787394
1.01145782
1.005646636
0.9973393242
0.9854549119
0.9580680504
0.9315934514
0.9060416949
0.8813109573
)


101
(
12807.2129
478.1976861
250.83527
168.6903989
126.2200362
100.2033792
82.60610251
69.72771009
59.87893966
52.06303739
45.69482711
40.39735555
35.94096942
32.11900738
28.82424079
25.97301354
23.48297582
21.28413029
19.35611513
17.63896772
16.10681242
14.75192776
13.54099069
12.44826385
11.46528049
10.58376035
9.792286989
9.079885685
8.436523983
7.853354321
7.323818983
6.842894549
6.407768072
6.013894932
5.651912077
5.318685321
5.012646782
4.732329492
4.476143683
4.241335328
4.024462144
3.823245942
3.637325396
3.465476264
3.306289873
3.158858078
3.022009316
2.894900721
2.776502881
2.666036645
2.562679157
2.465892893
2.375209092
2.290182778
2.210385256
2.135453136
2.065100471
1.998825956
1.936405416
1.877501978
1.821912832
1.769409146
1.719803684
1.672947479
1.628655407
1.586774132
1.547113366
1.509525554
1.473900447
1.44013634
1.408129955
1.377804721
1.349078198
1.321831002
1.2959781
1.271459914
1.248277548
1.226320323
1.205546509
1.185880679
1.167312774
1.149871895
1.133527518
1.118234998
1.103932816
1.090531017
1.078041635
1.066386284
1.055610601
1.045683413
1.036734128
1.028418309
1.02077811
1.013727598
1.007219508
0.9981365547
0.9853824
0.9580016476
0.9315339368
0.9059985579
0.8812859929
)


101
(
12807.2129
477.9156931
250.6569003
168.6303401
126.2332528
100.2702827
82.71369971
69.87578402
60.05820253
52.26894588
45.92190551
40.64141568
36.19515949
32.38462827
29.09538779
26.24488299
23.75484498
21.55703115
19.62261647
17.90358666
16.36656482
15.001849
13.78372571
12.68532135
11.69481293
10.80393747
10.00257536
9.28038085
8.627850614
8.036062399
7.498100543
7.008517438
6.563758799
6.161304052
5.792670394
5.453704639
5.141771721
4.854974971
4.59196271
4.350716411
4.128318747
3.92216954
3.731473949
3.554983488
3.391335741
3.239612603
3.098637724
2.967627995
2.845605358
2.731810623
2.625384815
2.525703138
2.432234018
2.344529604
2.262172561
2.184788512
2.112108666
2.043653583
1.979181683
1.918326973
1.860862271
1.806543396
1.755177836
1.706617156
1.660691144
1.617263965
1.576147562
1.53717237
1.50020162
1.465121327
1.431836342
1.400278115
1.370367887
1.341984278
1.315032313
1.289439843
1.265207099
1.242237063
1.220490226
1.199877789
1.180368356
1.161976724
1.144689089
1.128491391
1.113326338
1.099095619
1.085816643
1.07337387
1.061816891
1.051060024
1.041334973
1.032274827
1.023907141
1.016113745
1.008848678
0.9989550301
0.9853223514
0.9579514421
0.9314971263
0.9059983341
0.8813245633
)


101
(
12807.21052
477.629731
250.4756468
168.5675934
126.2439927
100.3346861
82.81879657
70.0209216
60.23476738
52.47224931
46.14666886
40.88343937
36.44798152
32.64867993
29.3657361
26.51673783
24.0268987
21.82999284
19.89067504
18.16914203
16.62795366
15.25472629
14.0290284
12.92458414
11.92710639
11.02762888
10.2168075
9.484989137
8.823251168
8.222813726
7.676542977
7.178580129
6.724694002
6.313410039
5.937287396
5.592026636
5.274226161
4.981371687
4.71195687
4.464329542
4.236063753
4.02461312
3.828959054
3.647726987
3.479547698
3.32349178
3.178345907
3.043344523
2.917552059
2.800249704
2.690589183
2.587903371
2.491586312
2.401136275
2.31613368
2.236209682
2.161101119
2.090349136
2.023723349
1.960840347
1.901444477
1.845266524
1.792097316
1.741777192
1.694142949
1.649081354
1.606426158
1.566002268
1.527647537
1.491217647
1.456608519
1.423762694
1.392612341
1.3630412
1.334947869
1.30824567
1.282922513
1.258889798
1.23612096
1.214522787
1.194041202
1.174677766
1.156419905
1.139276546
1.123199323
1.108083766
1.093962954
1.080699218
1.068325595
1.056729635
1.046168534
1.036319368
1.02717325
1.018611385
1.010538484
0.9997952275
0.9852832343
0.95793652
0.9315137165
0.9060897072
0.8815043753
)


101
(
12807.21051
477.3398217
250.2915397
168.5021758
126.2522695
100.396604
82.92140225
70.16314392
60.40860612
52.67292275
46.36907249
41.12338183
36.69934701
32.91117359
29.63517016
26.78845319
24.29910592
22.1030374
20.15999656
18.43573253
16.8908477
15.5102777
14.27701386
13.16620109
12.16204834
11.25462249
10.43486013
9.693686648
9.022769125
8.41363644
7.85910795
7.352993387
6.890447337
6.470399184
6.086265275
5.734074607
5.410112061
5.111336084
4.83587185
4.582089905
4.347860798
4.130831434
3.929985166
3.743845621
3.571014026
3.410547977
3.261179378
3.122114102
2.992440061
2.87148014
2.758410598
2.652565648
2.553299902
2.460046763
2.372336961
2.289797125
2.212169452
2.139011295
2.070116943
2.005103809
1.943699232
1.885607458
1.830594323
1.778475935
1.729078574
1.682301416
1.638012541
1.596055639
1.556259022
1.518444749
1.482478195
1.448297407
1.415849613
1.385032319
1.355746447
1.327892769
1.301444086
1.276304972
1.252460646
1.229831469
1.208346547
1.187980043
1.168722018
1.150596218
1.133571181
1.117521443
1.102497877
1.088380254
1.07514933
1.062695159
1.051245193
1.040566669
1.030599263
1.021230332
1.012313279
1.000697313
0.9852718759
0.9579865488
0.9316328198
0.9063285085
0.8818395666
)


101
(
12807.21459
477.0459464
250.1045599
168.4340709
126.2580718
100.4560311
83.0215101
70.30245859
60.57968258
52.87093039
46.58906397
41.36118828
36.94916483
33.1720955
29.90357811
27.0598975
24.57141381
22.37617002
20.43035379
18.7033655
17.15514044
15.76825418
14.52770246
13.41031197
12.39960976
11.48474625
10.65658565
9.906419725
9.226438375
8.608578132
8.045784387
7.531665355
7.060850801
6.632297129
6.239935531
5.88028852
5.549702812
5.244868753
4.963531919
4.703840563
4.463732352
4.241003114
4.034749529
3.843509267
3.665861396
3.500859577
3.347194424
3.204009887
3.070363053
2.945619322
2.828984532
2.719816851
2.617459256
2.521308132
2.430834674
2.345621744
2.265406435
2.189747706
2.118472551
2.051215197
1.987701785
1.927619288
1.870708367
1.816756044
1.76556112
1.717012917
1.671001251
1.627411404
1.586086822
1.546832146
1.509475224
1.473925189
1.440130354
1.408005388
1.377465284
1.34840835
1.320796985
1.294518033
1.269548465
1.245832191
1.223308027
1.201910601
1.18161585
1.16246512
1.144455171
1.127441911
1.111458078
1.096438312
1.082326987
1.068976541
1.05660854
1.0450533
1.034224665
1.024005097
1.014213124
1.001695485
0.9853367968
0.9581559163
0.9319141709
0.9067746224
0.882439833
)


101
(
12807.2124
476.7476584
249.9144502
168.3631033
126.2612685
100.512867
83.11903508
70.43880668
60.747906
53.0661851
46.80654553
41.59676195
37.19731083
33.43139431
30.17083302
27.33091314
24.84372876
22.64937084
20.70153549
18.97199527
17.42072643
16.02839419
14.78102322
13.65700633
12.63980606
11.7178754
10.8818247
10.12309223
9.434259507
8.807687014
8.236584443
7.714528887
7.235744685
6.799013486
6.398458701
6.031033913
5.693359405
5.38212801
5.094866974
4.829432901
4.583608567
4.355200228
4.143409754
3.946890145
3.764246881
3.594546568
3.436463368
3.289088721
3.151411525
3.022788251
2.90245269
2.789801979
2.684195698
2.585014681
2.491687662
2.403744283
2.320886468
2.242655696
2.168901288
2.099284404
2.033548805
1.971376273
1.912490893
1.856654489
1.8036304
1.753280014
1.70548449
1.660165561
1.617207528
1.576428324
1.537629449
1.500678676
1.465498079
1.432010142
1.400149965
1.369829323
1.341004476
1.313549755
1.287421417
1.262565403
1.238949451
1.216495272
1.195134907
1.17491267
1.155864876
1.137868509
1.120887251
1.104902269
1.089882172
1.07560673
1.062297061
1.0498191
1.03809357
1.026980735
1.016284713
1.002833947
0.985535828
0.9585052896
0.9324150712
0.9074612643
0.8833036162
)


101
(
12807.21082
476.4449665
249.7212296
168.2892834
126.261868
100.5671221
83.21398393
70.57220683
60.91325582
53.25865872
47.02147046
41.83005176
37.44369999
33.68904661
30.43685313
27.60137109
25.11597035
22.92263356
20.97339063
19.24155877
17.6875216
16.29049472
15.03687386
13.90633605
12.88268313
11.9539522
11.11044702
10.34359339
9.646206273
9.011012761
8.431562361
7.901558524
7.414989449
6.970400174
6.561857621
6.186560288
5.841442294
5.523397369
5.229971499
4.95879587
4.707388588
4.473415813
4.256084518
4.054154729
3.866345818
3.69177254
3.529113026
3.377437466
3.235660314
3.103086039
2.978951678
2.862680172
2.753663378
2.651299543
2.554995931
2.464235123
2.37867344
2.297817088
2.221505571
2.149425303
2.081352429
2.01697356
1.956011144
1.898213638
1.843315559
1.791135797
1.741524205
1.694407942
1.649714955
1.60730584
1.56698352
1.528584725
1.491987766
1.457096169
1.423855458
1.392200071
1.36209763
1.333418596
1.306098768
1.280063081
1.255296859
1.231747221
1.209303051
1.187974215
1.167830258
1.148811108
1.13081802
1.113814886
1.097828324
1.082618902
1.068338457
1.054899419
1.042241573
1.030197977
1.018573459
1.004166694
0.9859221466
0.9590762862
0.9331614537
0.9083748913
0.8843648477
)


101
(
12807.206
476.1375565
249.524728
168.2124936
126.2597825
100.6187304
83.30630065
70.70262421
61.07566804
53.44828333
47.23375649
42.06097194
37.6882219
33.94499231
30.70153603
27.8711239
25.38802926
23.19591247
21.24579236
19.5119678
17.95542434
16.55435264
15.29510008
14.15829032
13.12826411
12.19292497
11.34232198
10.56778424
9.862208653
9.218575749
8.630782108
8.092780703
7.598502553
7.146298223
6.730041294
6.346971996
5.994244899
5.669025189
5.369060296
5.091960812
4.835005943
4.595598458
4.37281976
4.165437555
3.972323502
3.792710072
3.625300923
3.469175621
3.323199971
3.186600469
3.058579951
2.938581382
2.826017426
2.720309937
2.620886362
2.527193246
2.438844493
2.355298575
2.276366716
2.201738777
2.131220215
2.064517883
2.001359438
1.941495621
1.884647727
1.830595737
1.779145017
1.730193873
1.683691094
1.639545545
1.597596584
1.557674461
1.519621148
1.483297158
1.448631289
1.41557189
1.38411697
1.354149045
1.325593579
1.298344189
1.272375074
1.247670159
1.224117139
1.201666821
1.180378189
1.160272189
1.141252354
1.123203538
1.106188238
1.090021376
1.074750091
1.060315581
1.046689833
1.033679967
1.021105067
1.005730232
0.9865227346
0.9598599346
0.9341105153
0.9094506121
0.8856110029
)


101
(
12807.20125
475.8254786
249.3249581
168.1327391
126.2550166
100.6676993
83.39599033
70.83007564
61.23512574
53.63502975
47.44335688
42.28946615
37.93079388
34.19918828
30.96480173
28.14005073
25.65979971
23.46917102
21.51863493
19.78315554
18.22435645
16.81978933
15.5555366
14.41282264
13.37656471
12.43476901
11.57735103
10.7955297
10.08217017
9.430368957
8.834307264
8.288255869
7.786264737
7.326590868
6.902873049
6.512252166
6.15194132
5.819327984
5.51244425
5.229104478
4.966470281
4.721690918
4.493595937
4.280830093
4.082336776
3.897528875
3.725202173
3.564454767
3.414143397
3.273431525
3.14144767
3.017618687
2.901388658
2.792196348
2.689492667
2.592736051
2.501496575
2.415180355
2.333563342
2.256312136
2.183248689
2.114113623
2.048641965
1.986592189
1.927684155
1.871684239
1.818355097
1.767546092
1.719190308
1.673222721
1.629537791
1.587991584
1.548413623
1.510623944
1.474507124
1.439994935
1.40710901
1.375770546
1.345921607
1.317421085
1.290207335
1.264280367
1.2395668
1.21598154
1.193523781
1.172260804
1.152172766
1.13306337
1.114971364
1.097796766
1.081514195
1.066053681
1.051437334
1.037428784
1.023878281
1.007523838
0.9873403865
0.9608321568
0.9352092379
0.910607607
0.8867187497
)


101
(
12807.2108
475.5090832
249.1221131
168.0501475
126.2476666
100.7141094
83.4831193
70.95462988
61.39166
53.81890905
47.65026144
42.51550877
38.17136086
34.45160994
31.22659962
28.40805674
25.93118864
23.74237187
21.79185249
20.05506268
18.49425559
17.08666468
15.81801702
14.66985802
13.62759447
12.67948764
11.81547174
11.02669942
10.30596205
9.646342195
9.042189098
8.488078902
7.9783075
7.511211207
7.080221429
6.682304509
6.314581349
5.974530581
5.660458721
5.370498041
5.10190706
4.851685743
4.618369427
4.400353462
4.196510645
4.006402818
3.828995479
3.663453337
3.508637072
3.363687823
3.227658278
3.099914737
2.979903271
2.867094783
2.760959427
2.660981714
2.566730716
2.477556149
2.393180644
2.313233944
2.23753881
2.165865359
2.097967994
2.033612013
1.972519425
1.914463946
1.859182982
1.80647811
1.756238337
1.708394189
1.662878893
1.619595712
1.578393325
1.539076086
1.501483045
1.46549366
1.431117614
1.398323125
1.367096086
1.337294309
1.30880681
1.281603274
1.255655055
1.230897903
1.207256225
1.184781579
1.16355716
1.143366086
1.124160779
1.105917479
1.088604521
1.072076392
1.05645094
1.041419674
1.026861908
1.009507373
0.9883541513
0.9619443383
0.9363876309
0.9117794162
0.8878372216
)


101
(
12807.2108
475.1873212
248.9155781
167.9643425
126.2374503
100.7577398
83.56750435
71.07614322
61.54512032
53.99977264
47.85431791
42.73894563
38.40975586
34.70212427
31.48678983
28.67495734
26.20202335
24.0153877
22.0653139
20.3275733
18.76501079
17.35478493
16.08231605
14.92922888
13.88129163
12.92705849
12.05662123
11.26115968
10.5334142
9.866371417
9.254409041
8.692329249
8.174719315
7.700149628
7.261980032
6.856982506
6.482088155
6.134728019
5.813369665
5.516458738
5.241550738
4.98564164
4.747088142
4.523955737
4.314891225
4.119471796
3.936843563
3.766334541
3.606840377
3.457500079
3.317312572
3.185569715
3.061678392
2.945129092
2.83542015
2.732063536
2.634650241
2.542503469
2.455291659
2.372585934
2.294185737
2.219873966
2.14944101
2.082660232
2.019260844
1.959025939
1.901687134
1.847017288
1.794852534
1.745094175
1.697680441
1.652554425
1.609608846
1.568662494
1.529537766
1.492055379
1.456166811
1.421844693
1.389140134
1.357958963
1.328159498
1.299642619
1.272390277
1.246395052
1.221544709
1.197821537
1.175381185
1.154066951
1.133722117
1.114349822
1.095979431
1.07834354
1.061669115
1.045598689
1.02999707
1.011623366
0.9894981401
0.9631150224
0.9375577178
0.912907509
0.8889984035
)


101
(
12807.20125
474.8600322
248.7053201
167.875258
126.2243182
100.7985546
83.64911599
71.19460223
61.69547032
54.17757038
48.05546151
42.95970059
38.64587995
34.95065383
31.74528943
28.94062652
26.4721674
24.28812551
22.33891987
20.60059912
19.03654697
17.62401982
16.34824069
15.19076369
14.13757224
13.17747424
12.30078352
11.49882673
10.76437344
10.09030462
9.470900034
8.901048978
8.375608266
7.893476226
7.448109387
7.036166292
6.654349153
6.299918717
5.971344123
5.667303413
5.385710357
5.123759194
4.87979128
4.651587167
4.437453836
4.236818319
4.048909962
3.873271112
3.708922199
3.555019739
3.410538164
3.274698561
3.146837127
3.026433253
2.91301116
2.806120794
2.70538342
2.610125137
2.519978411
2.434444226
2.353272168
2.276240055
2.2031664
2.133847971
2.068025775
2.00548334
1.945962706
1.889228016
1.835074037
1.783356702
1.733991856
1.686941876
1.642136455
1.599432218
1.558674371
1.519655842
1.482244982
1.446360578
1.412095465
1.379428241
1.34824163
1.318381393
1.289772799
1.262457668
1.236351597
1.21135712
1.187627987
1.165122126
1.143612986
1.123058571
1.103580481
1.08481165
1.067028528
1.049894618
1.033216374
1.013803346
0.9906882702
0.9642742374
0.938667827
0.9139668046
0.8899593737
)


101
(
12807.21076
474.5280831
248.4918562
167.7832003
126.2085004
100.8367415
83.72810918
71.31015196
61.84281422
54.35237504
48.25373663
43.17779339
38.87972149
35.19719605
32.00208479
29.20501534
26.7415389
24.5605275
22.61262608
20.8740999
19.3088331
17.8943049
16.61564332
15.45430723
14.39633342
13.43071252
12.54797694
11.73968264
10.99874104
10.31799165
9.691551835
9.114242933
8.5810835
8.091338139
7.638676214
7.219812735
6.831249371
6.470008633
6.134430149
5.823270291
5.53473607
5.266358732
5.016640046
4.783248662
4.564154341
4.358465276
4.165330322
3.984455596
3.815073374
3.656425155
3.507487278
3.36743486
3.235518838
3.111160324
2.993895654
2.883310037
2.779076535
2.680545387
2.587338244
2.498894597
2.414885821
2.335063888
2.259252092
2.187285859
2.118927348
2.053955368
1.992126851
1.933206253
1.876969229
1.823227415
1.771862674
1.722826249
1.676064057
1.631471599
1.58894299
1.548290014
1.509323665
1.471871526
1.435994592
1.401737724
1.369056522
1.337798634
1.307794225
1.279077495
1.251643749
1.225349791
1.200280764
1.176497673
1.153789883
1.13200604
1.111354274
1.091425884
1.072484885
1.054246296
1.036458935
1.015977737
0.9918549903
0.9653829595
0.9397121495
0.9149819282
0.8909457485
)


101
(
12807.21081
474.1902118
248.2744637
167.6877213
126.1896598
100.8720355
83.80426398
71.42261707
61.98698158
54.52401833
48.44897092
43.39305107
39.11109458
35.44158528
32.2570186
29.46794407
27.00993859
24.8324085
22.88625847
21.14794483
19.58176717
18.16550275
16.88432643
15.71962058
14.65737508
13.68665207
12.79815557
11.98369551
11.23641925
10.54924629
9.916165185
9.331795838
8.791168533
8.293850292
7.833788157
7.40792132
7.012682443
6.64484828
6.302547204
5.984435385
5.68888595
5.413767433
5.157899116
4.919038728
4.694944746
4.484355438
4.286146173
4.100039224
3.925471527
3.761889457
3.608314521
3.463905937
3.32784431
3.199455093
3.078237445
2.963809602
2.855894393
2.753900252
2.657469583
2.566006515
2.479098859
2.396424622
2.317795431
2.243071598
2.172059118
2.104542128
2.040282994
1.979047675
1.920612317
1.864760994
1.81133807
1.760258262
1.711465387
1.664875704
1.620429641
1.577997039
1.537390174
1.498346193
1.460836969
1.424920626
1.390635033
1.357882892
1.326437397
1.296255501
1.267402109
1.239757619
1.21331621
1.188172124
1.164213901
1.14115675
1.119263417
1.098140169
1.078004612
1.058613501
1.039678383
1.018104582
0.9929518039
0.9664348728
0.9407254336
0.9160150729
0.8920428206
)


101
(
12807.21079
473.8465705
248.0530216
167.588868
126.1678327
100.9044693
83.87760886
71.53203268
62.12798651
54.69249415
48.64113519
43.60542858
39.33992734
35.68375263
32.51002415
29.72932141
27.27725013
25.1036487
23.15970218
21.42203447
19.85528209
18.43754868
17.15417332
15.98652119
14.92051022
13.94516606
13.05127052
12.23086384
11.4773882
10.7839629
10.14455643
9.55356232
9.005836525
8.50110679
8.033617755
7.60060813
7.198649921
6.824328392
6.475553343
6.150771291
5.848323168
5.566305993
5.303921726
5.059192956
4.829876855
4.614434063
4.411334037
4.220119153
4.040308956
3.87160429
3.713191713
3.564260153
3.423934475
3.291445298
3.166205799
3.047813042
2.936049194
2.83038314
2.730527246
2.635884603
2.545987018
2.460402357
2.378896992
2.301327071
2.227539314
2.157354559
2.090540765
2.026863896
1.966103349
1.908033553
1.852467008
1.799285376
1.748406811
1.699740323
1.653251317
1.608879027
1.566486452
1.525774622
1.486614449
1.449002571
1.413020629
1.378657562
1.345701246
1.314006986
1.283641948
1.254571384
1.226726284
1.200153368
1.174876589
1.150507075
1.127308581
1.104944814
1.083579025
1.062990172
1.04286916
1.020178005
0.9939814366
0.9674613667
0.9417668418
0.91715042
0.8932799032
)


101
(
12807.20851
473.4949698
247.8276002
167.4865577
126.1429582
100.9339985
83.94810783
71.6383798
62.26579916
54.8577583
48.83016776
43.81484794
39.56612025
35.92360174
32.76100799
29.98903736
27.5433399
25.37410856
23.43282359
21.696246
20.12928624
18.71037522
17.4250799
16.25484573
15.18553695
14.20607811
13.30722758
12.4811728
11.7216582
11.02209472
10.37656616
9.77932782
9.224955013
8.71313311
8.238303039
7.798047992
7.38922606
7.008420638
6.653327227
6.322160429
6.013065009
5.724196784
5.455067102
5.204056425
4.969145426
4.748700384
4.540834644
4.344703484
4.15973262
3.985791767
3.822324857
3.668659729
3.523912107
3.387235269
3.257926428
3.1355051
3.019757823
2.910228872
2.806722447
2.708696083
2.615657952
2.527083991
2.44264305
2.362162819
2.285495899
2.21251543
2.143012604
2.076768038
2.013552246
1.953133665
1.895313346
1.839950015
1.786931708
1.736133802
1.687513724
1.641060476
1.596716165
1.554208492
1.513331713
1.473994792
1.436253298
1.400175943
1.365614329
1.332359245
1.300410311
1.269817805
1.240525978
1.212474009
1.185801301
1.160084255
1.135529901
1.111868734
1.089231181
1.067410423
1.046070256
1.022243066
0.9949931934
0.9685343634
0.9429249326
0.9184839414
0.8947739983
)


101
(
12807.19671
473.1367002
247.5980837
167.3805821
126.1148785
100.9605006
84.01566004
71.74158344
62.40034286
55.01972567
49.01597057
44.02119584
39.78954189
36.16100286
33.00984759
30.24695813
27.80805091
25.64362741
23.70545078
21.97043219
20.40367508
18.98389664
17.69694121
16.52443303
15.4522419
14.46917055
13.56586667
12.73455557
11.96922528
11.26362504
10.61209149
10.00887981
9.448296208
8.929821887
8.447892831
8.000415826
7.584583025
7.197183755
6.835803706
6.498452177
6.183011603
5.887510478
5.611601368
5.35400307
5.113058703
4.88729002
4.67460518
4.47373831
4.283797228
4.104638637
3.93595005
3.777309529
3.627934219
3.486935473
3.353496838
3.227017745
3.107214635
2.993679568
2.8863077
2.784656191
2.688267539
2.596572273
2.509124942
2.425672167
2.346047089
2.270155154
2.197830234
2.128877871
2.063073316
2.000172431
1.939970498
1.882317865
1.827081671
1.774100526
1.723292499
1.674658529
1.628216178
1.583754901
1.541044929
1.499925413
1.460382151
1.422508204
1.386239646
1.351360607
1.317778537
1.285567848
1.254767284
1.22519695
1.197046342
1.169942539
1.143994618
1.118985647
1.095024778
1.071944635
1.049353877
1.024370069
0.9960610372
0.9697465251
0.9443039524
0.9201222961
0.8970553138
)


101
(
12807.20621
472.774625
247.3647093
167.271227
126.0838079
100.9841512
84.08041327
71.84178134
62.53172762
55.17847653
49.19859433
44.22449245
40.01018119
36.39593215
33.25651545
30.50304061
28.07131749
25.91211688
23.97748464
22.24448572
20.67837177
19.25807736
17.96972703
16.79519942
15.72047209
14.73425781
13.82703008
12.99093648
12.22010736
11.50861174
10.85113663
10.24209972
9.675648219
9.150987901
8.662358653
8.207828395
7.784932426
7.390776012
7.023036795
6.679585689
6.358044185
6.056198905
5.773670285
5.509383142
5.262031954
5.03049442
4.812727955
4.607185768
4.412487505
4.228275894
4.054313665
3.890470961
3.736216031
3.59070133
3.453030027
3.32245923
3.198583064
3.080948462
2.969549112
2.864036817
2.764050451
2.669029857
2.578460082
2.491966206
2.409316977
2.330419698
2.255148135
2.183347514
2.114812932
2.049293412
1.986571598
1.926498273
1.868933723
1.813692563
1.760648349
1.709772807
1.661122059
1.614557738
1.56987829
1.526877426
1.485480914
1.445743276
1.407671304
1.371092185
1.335835727
1.301936221
1.269546416
1.238418541
1.208712274
1.180171415
1.152793267
1.126395057
1.101062867
1.076692334
1.052820245
1.026659513
0.9972893053
0.9712046428
0.9460085079
0.922170013
0.8989781938
)


101
(
12807.20625