/*--------------------------------*- C++ -*----------------------------------*\
| =========                 |                                                 |
| \\      /  F ield         | OpenFOAM: The Open Source CFD Toolbox           |
|  \\    /   O peration     | Version:  2.3.1                                 |
|   \\  /    A nd           | Web:      www.OpenFOAM.org                      |
|    \\/     M anipulation  |                                                 |
\*---------------------------------------------------------------------------*/
FoamFile
{
    version     2.0;
    format      ascii;
    class       dictionary;
    location    "constant";
    object      PM7;
}
// * * * * * * * * * * * * * * * * * * * * * * * * * * * * * * * * * * * * * //

PM7_table
101
(

101
(
-1.002314464e-11
-8.292826114e-14
1.148478171e-13
1.165722669e-13
1.13147685e-13
7.372944321e-14
6.087144703e-14
4.48175979e-14
3.394137959e-14
2.188921719e-14
9.517520501e-15
-2.783975124e-15
-2.310686946e-14
-3.887626424e-14
-5.393839171e-14
-7.564414342e-14
-1.098185815e-13
-8.405481189e-14
-1.657192902e-13
-1.351953977e-13
-1.320577526e-13
-1.979635271e-13
-1.947101434e-13
-1.866603555e-13
-1.914955012e-13
-1.961300881e-13
-1.949978786e-13
-2.078734514e-13
-2.076123191e-13
-2.11895063e-13
-2.063394865e-13
-1.636085993e-13
-2.780225746e-13
-2.319864269e-13
-2.134938365e-13
-2.052894748e-13
-1.825343103e-13
-1.995719681e-13
-2.387897415e-13
-2.43824592e-13
-1.902073397e-13
-2.051980507e-13
-2.07500654e-13
-1.783380252e-13
-1.888948714e-13
-1.782368233e-13
-1.869427797e-13
-1.795148142e-13
-1.838864013e-13
-1.733146542e-13
-1.684599013e-13
-1.652880094e-13
-1.589500086e-13
-1.506341555e-13
-1.442214527e-13
-1.600117152e-13
-1.386176074e-13
-1.424490548e-13
-1.359622198e-13
-1.347394425e-13
-1.297574992e-13
-1.226745593e-13
-1.202790434e-13
-1.162543532e-13
-1.132855349e-13
-1.082444878e-13
-1.032332209e-13
-1.03125028e-13
-9.808887791e-14
-9.461941867e-14
-9.239134545e-14
-9.296568412e-14
-8.567133295e-14
-7.532972552e-14
-6.584032916e-14
-6.748287218e-14
-6.719724138e-14
-6.145720754e-14
-5.543439736e-14
-5.045204981e-14
-5.086711293e-14
-4.668687506e-14
-4.263058895e-14
-3.870086752e-14
-3.430491533e-14
-3.097392576e-14
-2.818560266e-14
-2.555312762e-14
-2.296634903e-14
-1.959973375e-14
-1.630470642e-14
-1.417754358e-14
-1.187101329e-14
-9.128723456e-15
-7.003309505e-15
-2.091080671e-15
4.402799101e-15
1.031144282e-20
-1.790358853e-29
-2.020764982e-30
3.431318775e-29
)


101
(
-9.873782907e-12
-2.954631367e-14
1.640749026e-13
1.487161876e-13
1.25803688e-13
7.17889157e-14
4.821103883e-14
2.709086316e-14
1.578222373e-14
7.731817221e-15
3.035076091e-15
1.340776402e-15
-4.885651797e-15
-5.409541942e-15
-4.337636252e-15
-8.00380268e-15
-2.153849402e-14
1.197311531e-14
-3.951093374e-14
-4.699800134e-15
5.537285653e-15
-3.364536979e-14
-2.40559492e-14
-1.417096866e-14
-1.207347099e-14
-1.043055058e-14
-6.015605314e-15
-1.1669949e-14
-9.34151241e-15
-1.147222905e-14
-7.407603467e-15
1.934604225e-14
-4.91141297e-14
-1.910912071e-14
-1.52705707e-14
-7.072218432e-15
6.343495091e-15
-3.369425512e-15
-2.477648665e-14
-3.082957693e-14
-6.839781157e-15
-1.590224189e-14
-1.329318752e-14
-7.609423381e-16
-6.919863056e-15
-4.460911962e-16
-7.496113351e-15
-4.447951599e-15
-9.437662975e-15
-5.289838431e-15
-5.237071215e-15
-4.023018155e-15
-2.354890277e-15
4.833212234e-17
1.689881593e-15
-6.290311297e-15
1.514315198e-15
-4.096640118e-15
-6.566353288e-16
-3.046961037e-15
-1.75937474e-15
-8.636112279e-16
-1.026365168e-15
-5.451844388e-16
-1.060815796e-15
-5.841019619e-16
-4.09535241e-16
-1.900147317e-15
-1.693170556e-15
-2.771734151e-15
-3.467657085e-15
-5.115522951e-15
-3.252010222e-15
-4.275990211e-16
2.748243648e-15
1.18283521e-15
-1.21944506e-16
-6.015643872e-16
1.065255225e-17
7.383538398e-16
-7.141626199e-16
-4.666921782e-16
-6.307283494e-16
-2.330374744e-16
-2.113233034e-16
-4.144709245e-16
-5.821001172e-16
-7.220774111e-16
-6.84970664e-16
-4.518465921e-16
-5.129863563e-16
-4.9871705e-16
-3.150927946e-16
-1.028337187e-16
1.112304234e-15
9.166017541e-15
2.438423359e-13
4.583668711e-13
4.682967303e-13
4.764220174e-13
4.707735121e-13
)


101
(
-9.7248941e-12
-4.209550086e-15
1.693053507e-13
1.505218735e-13
1.251126376e-13
7.158968906e-14
4.67542037e-14
2.560161107e-14
1.387728225e-14
5.684505851e-15
7.758585689e-16
-1.260901676e-15
-6.665032272e-15
-7.87162605e-15
-6.93619838e-15
-9.53723883e-15
-2.066839229e-14
3.756749461e-15
-3.019184189e-14
-1.230521768e-14
1.241921911e-15
-2.467869448e-14
-2.558058883e-14
-1.741841499e-14
-1.33362516e-14
-1.112566029e-14
-7.406730651e-15
-9.742895975e-15
-9.318511546e-15
-1.021223973e-14
-8.232063517e-15
9.211379163e-15
-2.461793807e-14
-2.482142767e-14
-1.756953338e-14
-1.038408553e-14
5.76121668e-16
-5.347291967e-17
-1.376330186e-14
-2.448572325e-14
-1.567430456e-14
-1.357524471e-14
-1.30360225e-14
-5.920684855e-15
-4.641693189e-15
-2.244756204e-15
-3.843974184e-15
-4.23723238e-15
-6.189768348e-15
-5.79736231e-15
-4.826857296e-15
-3.899157636e-15
-2.619439226e-15
-8.650834191e-16
8.464029443e-16
-1.774725297e-15
-9.090012738e-16
-1.47672389e-15
-1.27806403e-15
-1.543053027e-15
-1.554162048e-15
-9.425769025e-16
-5.971660703e-16
-3.17243298e-16
-3.513497293e-16
-2.940353324e-16
-1.344388273e-16
-6.696513546e-16
-1.200190197e-15
-1.915860611e-15
-2.723577825e-15
-3.600004189e-15
-3.027458753e-15
-7.850915104e-16
1.90922422e-15
2.371732895e-15
1.120982331e-15
2.166053811e-16
4.679690457e-16
1.082438958e-15
5.752905302e-16
2.041559641e-16
4.755225883e-16
8.482448433e-16
1.023969649e-15
8.350864809e-16
6.322016692e-16
5.750790161e-16
8.835017167e-16
1.39341558e-15
1.806465778e-15
2.05285077e-15
2.613788077e-15
3.992422113e-15
8.919075907e-15
2.670147244e-14
4.890665671e-13
9.165820859e-13
9.36403706e-13
9.526199165e-13
9.413187261e-13
)


101
(
-9.57648271e-12
2.083536129e-14
1.747119644e-13
1.524282896e-13
1.24566031e-13
7.144474604e-14
4.542895626e-14
2.419721913e-14
1.207922401e-14
3.733774587e-15
-1.38190735e-15
-3.733491705e-15
-8.493490779e-15
-1.017100632e-14
-9.455319722e-15
-1.122018834e-14
-2.025427937e-14
-2.715608418e-15
-2.435484296e-14
-1.660781402e-14
-3.31284554e-15
-1.899486116e-14
-2.484616103e-14
-1.973367773e-14
-1.490879659e-14
-1.194191048e-14
-8.503498978e-15
-8.742594086e-15
-8.768476874e-15
-9.130026203e-15
-8.137135613e-15
3.016426497e-15
-1.198830035e-14
-2.158325146e-14
-1.873510202e-14
-1.255890968e-14
-3.591294679e-15
9.266957254e-17
-6.756704758e-15
-1.694947594e-14
-1.689874124e-14
-1.367595444e-14
-1.220342508e-14
-7.883199504e-15
-4.496498253e-15
-2.350386231e-15
-1.953352957e-15
-2.506861365e-15
-3.553783194e-15
-4.111834648e-15
-3.603563983e-15
-2.809396293e-15
-1.796378767e-15
-5.082727751e-16
9.279226673e-16
5.722977486e-16
1.644011506e-16
1.972458514e-16
1.1386987e-16
1.673497681e-16
1.281000186e-16
4.313600199e-16
8.363866517e-16
1.172977652e-15
1.359906473e-15
1.457045185e-15
1.578325529e-15
1.409220922e-15
9.279517769e-16
2.790421853e-16
-4.398216054e-16
-9.125966756e-16
-3.558296328e-16
1.623839056e-15
4.02295906e-15
4.99890319e-15
4.286429754e-15
3.512938295e-15
3.703350505e-15
4.208770712e-15
3.959095315e-15
3.758616927e-15
4.33889599e-15
5.029538273e-15
5.537220722e-15
5.719731338e-15
5.651025575e-15
5.655767461e-15
6.343292887e-15
7.535105259e-15
8.792727466e-15
9.908185209e-15
1.168472845e-14
1.487222905e-14
2.551565495e-14
5.548800694e-14
7.407492559e-13
1.374744264e-12
1.404504827e-12
1.428852498e-12
1.411892936e-12
)


101
(
-9.428553512e-12
4.558482287e-14
1.802875949e-13
1.544332412e-13
1.241554947e-13
7.135599328e-14
4.423130114e-14
2.287789377e-14
1.038523241e-14
1.877499836e-15
-3.442188893e-15
-6.086596614e-15
-1.035349542e-14
-1.234729685e-14
-1.189369394e-14
-1.302493823e-14
-2.025184948e-14
-7.870741796e-15
-2.100147956e-14
-1.898086485e-14
-7.515057511e-15
-1.579490779e-14
-2.317120799e-14
-2.098378095e-14
-1.641867534e-14
-1.286856895e-14
-9.420711358e-15
-8.286395601e-15
-8.089352991e-15
-8.092982982e-15
-7.517683364e-15
-4.652567822e-16
-5.570712534e-15
-1.598836223e-14
-1.721602174e-14
-1.33272742e-14
-6.429801455e-15
-9.682938409e-16
-2.820271719e-15
-1.028339946e-14
-1.405491907e-14
-1.265407361e-14
-1.103373053e-14
-7.915026825e-15
-4.229793357e-15
-1.796160454e-15
-3.767799371e-16
-3.729220582e-16
-7.928459261e-16
-1.392912893e-15
-1.20458725e-15
-5.970190502e-16
2.590793466e-16
1.26147037e-15
2.389861976e-15
2.86141907e-15
2.581456155e-15
2.753895582e-15
2.75281517e-15
2.998862811e-15
3.149013118e-15
3.45455128e-15
3.879204506e-15
4.307127847e-15
4.68769467e-15
4.980786095e-15
5.228676703e-15
5.303302067e-15
5.057570493e-15
4.591935975e-15
4.044412625e-15
3.891835903e-15
4.794138425e-15
6.999096559e-15
9.494697665e-15
1.074365552e-14
1.048115157e-14
1.011749731e-14
1.059145171e-14
1.122750649e-14
1.111946056e-14
1.117249134e-14
1.220024935e-14
1.342776945e-14
1.451314347e-14
1.53342833e-14
1.588845419e-14
1.617191164e-14
1.723424698e-14
1.927932658e-14
2.192624951e-14
2.477291862e-14
2.799317749e-14
3.375867107e-14
5.257990343e-14
9.683067598e-14
9.991569858e-13
1.833010644e-12
1.872686525e-12
1.905159046e-12
1.882554373e-12
)


101
(
-9.28111114e-12
7.00385479e-14
1.86023442e-13
1.565352014e-13
1.238784491e-13
7.132506805e-14
4.315745394e-14
2.164373929e-14
8.792728316e-15
1.13741438e-16
-5.408259152e-15
-8.328234248e-15
-1.222941238e-14
-1.44302225e-14
-1.425465329e-14
-1.492600193e-14
-2.061616644e-14
-1.204675354e-14
-1.940345102e-14
-2.032456269e-14
-1.114343797e-14
-1.437951879e-14
-2.135896088e-14
-2.136387447e-14
-1.763517148e-14
-1.383044654e-14
-1.02371621e-14
-8.149505496e-15
-7.461790649e-15
-7.100467615e-15
-6.6268471e-15
-2.160329248e-15
-2.233128386e-15
-1.058076523e-14
-1.392929925e-14
-1.265020704e-14
-7.729603898e-15
-2.07119468e-15
-8.125851617e-16
-5.145566742e-15
-9.623749497e-15
-9.953975075e-15
-8.986167036e-15
-6.600388659e-15
-3.120587218e-15
-5.38251757e-16
1.467381355e-15
2.079900144e-15
2.250690664e-15
1.955481602e-15
2.165010235e-15
2.73381817e-15
3.562103494e-15
4.475887987e-15
5.426043819e-15
6.16788995e-15
6.180317005e-15
6.583410922e-15
6.781457665e-15
7.286804452e-15
7.741148878e-15
8.276158159e-15
8.875660809e-15
9.477523693e-15
1.009051605e-14
1.067758904e-14
1.122876491e-14
1.164891813e-14
1.176073054e-14
1.163992849e-14
1.141619216e-14
1.166197896e-14
1.306124681e-14
1.579474499e-14
1.874077909e-14
2.040258956e-14
2.064053444e-14
2.088285662e-14
2.19667703e-14
2.305406063e-14
2.320371657e-14
2.354066613e-14
2.510471333e-14
2.705303051e-14
2.897229736e-14
3.0751356e-14
3.230830115e-14
3.33616133e-14
3.509967486e-14
3.790662285e-14
4.231673726e-14
4.743152064e-14
5.286327795e-14
6.210658067e-14
9.005559089e-14
1.517530294e-13
1.264688973e-12
2.291457602e-12
2.340878781e-12
2.381305902e-12
2.353043958e-12
)


101
(
-9.134160458e-12
9.418024641e-14
1.919105203e-13
1.587322401e-13
1.237319741e-13
7.135299493e-14
4.220308261e-14
2.049404002e-14
7.299272856e-15
-1.558803372e-15
-7.282216758e-15
-1.046354005e-14
-1.410644484e-14
-1.6439656e-14
-1.654158955e-14
-1.690031241e-14
-2.130082665e-14
-1.550909374e-14
-1.902824362e-14
-2.120950448e-14
-1.419250938e-14
-1.418164563e-14
-1.985099029e-14
-2.116830888e-14
-1.846209749e-14
-1.47241579e-14
-1.098449579e-14
-8.201329177e-15
-6.940356523e-15
-6.170658873e-15
-5.610588935e-15
-2.707050854e-15
-3.376471449e-16
-6.097402624e-15
-9.780911199e-15
-1.040128046e-14
-7.49831603e-15
-2.541318973e-15
3.201828212e-16
-1.35462956e-15
-4.981051837e-15
-6.073271161e-15
-5.877836738e-15
-4.137558344e-15
-9.932637341e-16
1.593954404e-15
3.936882646e-15
5.04532018e-15
5.74348894e-15
5.875977293e-15
6.335563995e-15
7.055849962e-15
8.032479571e-15
9.074157194e-15
1.00667461e-14
1.097817185e-14
1.127971586e-14
1.19716698e-14
1.245726145e-14
1.331513076e-14
1.418152169e-14
1.513277129e-14
1.611035018e-14
1.704169018e-14
1.798627583e-14
1.89569239e-14
1.995868317e-14
2.088390568e-14
2.152819964e-14
2.193767261e-14
2.221259905e-14
2.300328669e-14
2.505236093e-14
2.85392077e-14
3.222742365e-14
3.455212843e-14
3.546396681e-14
3.648020961e-14
3.842690136e-14
4.034090677e-14
4.106274727e-14
4.187082066e-14
4.404636501e-14
4.686751091e-14
4.983545018e-14
5.288266319e-14
5.582111538e-14
5.827819901e-14
6.086741284e-14
6.474224235e-14
7.099342974e-14
7.880716389e-14
8.742043818e-14
1.006455355e-13
1.391000737e-13
2.203158615e-13
1.537466681e-12
2.749742055e-12
2.809115648e-12
2.857682401e-12
2.82376332e-12
)


101
(
-8.987706658e-12
1.704558688e-12
8.289032133e-13
1.610222178e-13
1.237130034e-13
7.144031581e-14
4.136329853e-14
1.94269188e-14
5.901952209e-15
-3.141928284e-15
-9.066658755e-15
-1.249822942e-14
-1.597322677e-14
-1.83912269e-14
-1.875934086e-14
-1.892717132e-14
-2.226224386e-14
-1.845963411e-14
-1.949571976e-14
-2.196928304e-14
-1.675187756e-14
-1.478861599e-14
-1.88395777e-14
-2.068512523e-14
-1.891676443e-14
-1.547969753e-14
-1.167223443e-14
-8.370640688e-15
-6.532787287e-15
-5.316559813e-15
-4.551326881e-15
-2.546364264e-15
9.301292159e-16
-2.583320322e-15
-5.524555896e-15
-7.097391476e-15
-5.850995129e-15
-1.98939247e-15
1.382003608e-15
1.563098189e-15
-6.727424707e-16
-1.641996466e-15
-1.87588626e-15
-6.376272942e-16
2.166006104e-15
4.689975993e-15
7.242014689e-15
8.735167305e-15
9.891315164e-15
1.048874023e-14
1.131903024e-14
1.234359494e-14
1.362596351e-14
1.498888544e-14
1.626754056e-14
1.747498634e-14
1.810870956e-14
1.913936228e-14
2.003081411e-14
2.134757822e-14
2.27421565e-14
2.42882047e-14
2.585686043e-14
2.732799517e-14
2.875259739e-14
3.021597942e-14
3.178640881e-14
3.338096586e-14
3.475646841e-14
3.59110376e-14
3.691734556e-14
3.84556672e-14
4.132050497e-14
4.574526928e-14
5.043598288e-14
5.369206751e-14
5.549533272e-14
5.746751701e-14
6.053909939e-14
6.364556589e-14
6.537274842e-14
6.696690542e-14
6.994552589e-14
7.376172062e-14
7.796941687e-14
8.247728047e-14
8.70739924e-14
9.147197736e-14
9.553785698e-14
1.007580036e-13
1.088070194e-13
1.197469223e-13
1.324083246e-13
1.50104662e-13
2.014564259e-13
3.030859331e-13
1.817744696e-12
3.208009976e-12
3.277404934e-12
3.333619694e-12
3.294538252e-12
)


101
(
-8.841754926e-12
1.73014131e-12
8.368647677e-13
1.634021641e-13
1.238182129e-13
7.158772862e-14
4.063417326e-14
1.844148781e-14
4.598475831e-15
-4.636815169e-15
-1.076331303e-14
-1.443670748e-14
-1.781930717e-14
-2.029575728e-14
-2.09141819e-14
-2.098943308e-14
-2.34616625e-14
-2.105554835e-14
-2.054142096e-14
-2.280040641e-14
-1.895522955e-14
-1.591386926e-14
-1.838250169e-14
-2.017329466e-14
-1.910000203e-14
-1.60738907e-14
-1.229449291e-14
-8.612969817e-15
-6.238759122e-15
-4.555144049e-15
-3.502315314e-15
-1.951499732e-15
1.980212322e-15
1.509496558e-16
-1.582004538e-15
-3.263787296e-15
-3.102958561e-15
-3.712532674e-16
2.869588199e-15
4.158357524e-15
3.278153263e-15
2.977231465e-15
2.759500859e-15
3.732635504e-15
6.29692866e-15
8.774767724e-15
1.149557409e-14
1.332414383e-14
1.491086523e-14
1.597884071e-14
1.725202463e-14
1.870357029e-14
2.041306139e-14
2.224193041e-14
2.400442504e-14
2.568389781e-14
2.679507765e-14
2.830881876e-14
2.971902357e-14
3.160837107e-14
3.367450907e-14
3.59839993e-14
3.835257e-14
4.060736853e-14
4.27371882e-14
4.485921141e-14
4.711874702e-14
4.953146052e-14
5.185194463e-14
5.401184189e-14
5.600819129e-14
5.851222674e-14
6.238861066e-14
6.794626862e-14
7.387725135e-14
7.835437408e-14
8.133097035e-14
8.450537083e-14
8.895370532e-14
9.359367174e-14
9.677434716e-14
9.956288031e-14
1.03597183e-13
1.085414839e-13
1.141909349e-13
1.20356145e-13
1.269652073e-13
1.336648895e-13
1.399508393e-13
1.468165682e-13
1.568535915e-13
1.711975996e-13
1.885190955e-13
2.112809758e-13
2.759030003e-13
3.99869503e-13
2.105610633e-12
3.666230157e-12
3.745844036e-12
3.809132807e-12
3.765954077e-12
)


101
(
-8.696310407e-12
1.64683305e-13
2.103898342e-13
5.328649462e-13
1.240438236e-13
7.179566332e-14
4.001244764e-14
1.753796767e-14
3.386449455e-15
-6.045456164e-15
-1.237398791e-14
-1.62819172e-14
-1.963444114e-14
-2.215796362e-14
-2.301023716e-14
-2.30715548e-14
-2.486178021e-14
-2.341455559e-14
-2.197729288e-14
-2.38019285e-14
-2.092941026e-14
-1.737040067e-14
-1.846625531e-14
-1.981552128e-14
-1.913025811e-14
-1.651573226e-14
-1.284803159e-14
-8.903213442e-15
-6.046189433e-15
-3.890136915e-15
-2.499857534e-15
-1.112896494e-15
2.985257524e-15
2.344313654e-15
1.868683214e-15
6.592345523e-16
3.56125516e-16
2.227893249e-15
5.065484939e-15
6.881184453e-15
7.089839832e-15
7.678875815e-15
7.828872001e-15
8.839090977e-15
1.133801286e-14
1.384160659e-14
1.674862368e-14
1.893140211e-14
2.096724107e-14
2.25354347e-14
2.432027668e-14
2.628610299e-14
2.854195076e-14
3.096970268e-14
3.33812473e-14
3.573135716e-14
3.751347332e-14
3.966973641e-14
4.173476197e-14
4.433736786e-14
4.721722438e-14
5.04447234e-14
5.382472925e-14
5.713449392e-14
6.025868106e-14
6.328084394e-14
6.639921507e-14
6.975937615e-14
7.319032697e-14
7.661118423e-14
7.991108594e-14
8.368747132e-14
8.881258636e-14
9.670235904e-14
1.030926257e-13
1.091134576e-13
1.136089503e-13
1.182650498e-13
1.243291849e-13
1.30820158e-13
1.358887951e-13
1.403632389e-13
1.457783187e-13
1.520810823e-13
1.593980834e-13
1.674926665e-13
1.763727992e-13
1.856628602e-13
1.948131605e-13
2.038348909e-13
2.162507505e-13
2.340738077e-13
2.564980253e-13
2.851810866e-13
3.642002485e-13
5.12159039e-13
2.401433485e-12
4.124129255e-12
4.214275201e-12
4.286385212e-12
4.238744477e-12
)


101
(
-8.551381301e-12
1.875132395e-13
2.167885986e-13
5.364050761e-13
1.243856738e-13
7.206422932e-14
3.949498127e-14
1.671657769e-14
2.263651554e-15
-7.370145743e-15
-1.390039817e-14
-1.803657477e-14
-2.140998664e-14
-2.397940371e-14
-2.505032784e-14
-2.516099361e-14
-2.642896971e-14
-2.562159549e-14
-2.368125302e-14
-2.500721389e-14
-2.278538133e-14
-1.905607083e-14
-1.904342759e-14
-1.974036771e-14
-1.91502252e-14
-1.685981769e-14
-1.335040845e-14
-9.239448793e-15
-5.95773486e-15
-3.330564976e-15
-1.559309802e-15
-1.398912188e-16
4.03178379e-15
4.198144258e-15
4.847687104e-15
4.42986622e-15
4.190180045e-15
5.562272478e-15
7.980566483e-15
1.002478003e-14
1.104223107e-14
1.251405485e-14
1.328119948e-14
1.458151277e-14
1.720190422e-14
1.987077689e-14
2.305597301e-14
2.564370622e-14
2.819335983e-14
3.031483247e-14
3.269310537e-14
3.52752092e-14
3.818674814e-14
4.134047634e-14
4.455951313e-14
4.777829464e-14
5.042204355e-14
5.342270822e-14
5.63125709e-14
5.977624598e-14
6.361927587e-14
6.792155547e-14
7.250331792e-14
7.712136924e-14
8.156134265e-14
8.579025893e-14
9.000556683e-14
9.446998724e-14
9.917554291e-14
1.040942586e-13
1.090131106e-13
1.143960531e-13
1.210698359e-13
1.305316273e-13
1.396527914e-13
1.465085884e-13
1.528542381e-13
1.593611365e-13
1.673510002e-13
1.759439115e-13
1.832797771e-13
1.899773053e-13
1.972675931e-13
2.051831947e-13
2.14438783e-13
2.248131831e-13
2.361948454e-13
2.483476038e-13
2.608048017e-13
2.728512358e-13
2.87851098e-13
3.091828986e-13
3.372440962e-13
3.727431611e-13
4.676024481e-13
6.400398404e-13
2.705657432e-12
4.583083834e-12
4.685408169e-12
4.765532657e-12
4.712256406e-12
)


101
(
-8.406976686e-12
2.099978215e-13
2.232885973e-13
1.71043684e-13
1.248398416e-13
7.239361744e-14
3.907877098e-14
1.597709365e-14
1.228077726e-15
-8.61226043e-15
-1.534347558e-14
-1.970302874e-14
-2.313902596e-14
-2.576090611e-14
-2.703791118e-14
-2.724827901e-14
-2.813340162e-14
-2.774343477e-14
-2.556967958e-14
-2.642527286e-14
-2.461184566e-14
-2.089804424e-14
-2.004607674e-14
-2.001608147e-14
-1.928115659e-14
-1.717667114e-14
-1.382670912e-14
-9.623813159e-15
-5.978713761e-15
-2.88728236e-15
-6.93881392e-16
8.973150132e-16
5.134999686e-15
5.867236056e-15
7.452828879e-15
7.934303435e-15
8.118296348e-15
9.39370498e-15
1.157798019e-14
1.370846842e-14
1.530778054e-14
1.761235056e-14
1.916410818e-14
2.096671175e-14
2.390918022e-14
2.68771959e-14
3.043248101e-14
3.354072119e-14
3.669710389e-14
3.946183616e-14
4.251740468e-14
4.581112716e-14
4.949785984e-14
5.350668549e-14
5.768712561e-14
6.195910309e-14
6.569814197e-14
6.977301661e-14
7.368319273e-14
7.818855445e-14
8.314590416e-14
8.866896297e-14
9.46222695e-14
1.007658232e-13
1.068245458e-13
1.12626172e-13
1.182765051e-13
1.240762386e-13
1.302157036e-13
1.358497823e-13
1.42651379e-13
1.509738749e-13
1.595947106e-13
1.699797032e-13
1.82078818e-13
1.910270964e-13
1.995396545e-13
2.083020037e-13
2.186115694e-13
2.295666077e-13
2.39484859e-13
2.489230863e-13
2.586999281e-13
2.686232829e-13
2.800678443e-13
2.930391412e-13
3.07300599e-13
3.225214311e-13
3.387100799e-13
3.545431017e-13
3.724915364e-13
3.975969832e-13
4.317270118e-13
4.748036052e-13
5.863277301e-13
7.841131527e-13
3.018709582e-12
5.042936137e-12
5.157531446e-12
5.246012588e-12
5.188185249e-12
)


101
(
-8.263093966e-12
1.829250253e-12
2.298778641e-13
1.737433975e-13
1.254020639e-13
7.278376987e-14
3.876119808e-14
1.531952956e-14
2.771477762e-16
-9.773670894e-15
-1.670375757e-14
-2.128307972e-14
-2.481575627e-14
-2.750144426e-14
-2.897531969e-14
-2.932437244e-14
-2.995006162e-14
-2.98302089e-14
-2.759189572e-14
-2.80466107e-14
-2.646900087e-14
-2.286581848e-14
-2.140655775e-14
-2.066306884e-14
-1.961706521e-14
-1.755633602e-14
-1.432510554e-14
-1.007233176e-14
-6.116487012e-15
-2.570992539e-15
7.823938988e-17
1.949741321e-15
6.30337636e-15
7.473438218e-15
9.804323513e-15
1.117799651e-14
1.202154963e-14
1.353934596e-14
1.568790609e-14
1.792813557e-14
2.004407307e-14
2.313415539e-14
2.552269488e-14
2.800521329e-14
3.144805884e-14
3.488062926e-14
3.895428975e-14
4.266938817e-14
4.652946154e-14
5.008690097e-14
5.394035095e-14
5.805249481e-14
6.261346484e-14
6.760057492e-14
7.289018182e-14
7.839627249e-14
8.347366443e-14
8.886240611e-14
9.405110865e-14
9.980005832e-14
1.060325608e-13
1.129485555e-13
1.204369976e-13
1.283023066e-13
1.362328744e-13
1.439674503e-13
1.514528098e-13
1.589323035e-13
1.667049091e-13
1.741611301e-13
1.830632552e-13
1.936803845e-13
2.046605646e-13
2.173688051e-13
2.30822718e-13
2.431539261e-13
2.531566346e-13
2.655065212e-13
2.785573785e-13
2.92261939e-13
3.040492162e-13
3.17625941e-13
3.305526443e-13
3.430984944e-13
3.569168381e-13
3.727513038e-13
3.903767087e-13
4.084725934e-13
4.293104065e-13
4.490098492e-13
4.705259584e-13
5.001457109e-13
5.407372802e-13
5.921015663e-13
7.211273368e-13
9.449889187e-13
3.340284629e-12
5.502278788e-12
5.628341593e-12
5.726782997e-12
5.665243162e-12
)


101
(
-8.119735653e-12
1.853176928e-12
2.365443278e-13
1.765109984e-13
1.260678512e-13
7.323427379e-14
3.853945436e-14
1.474356736e-14
-5.914098948e-16
-1.085622932e-14
-1.798198822e-14
-2.27785217e-14
-2.643555519e-14
-2.919910416e-14
-3.086369756e-14
-3.13820716e-14
-3.185767066e-14
-3.191549897e-14
-2.97219734e-14
-2.985436076e-14
-2.839979393e-14
-2.494796746e-14
-2.306507452e-14
-2.167981879e-14
-2.022350918e-14
-1.807309378e-14
-1.489002253e-14
-1.060410376e-14
-6.385296561e-15
-2.402340535e-15
7.358483656e-16
2.986708477e-15
7.52153669e-15
9.075190357e-15
1.201884885e-14
1.422277032e-14
1.583251417e-14
1.78219495e-14
2.020692007e-14
2.268402778e-14
2.526797505e-14
2.910690668e-14
3.240430955e-14
3.576173767e-14
3.989991745e-14
4.392625831e-14
4.861852859e-14
5.308338246e-14
5.77919814e-14
6.226466105e-14
6.70705288e-14
7.214334884e-14
7.769394475e-14
8.37620571e-14
9.026690997e-14
9.718054141e-14
1.03798409e-13
1.107889095e-13
1.175539969e-13
1.247881748e-13
1.325165526e-13
1.410146006e-13
1.502106148e-13
1.59954177e-13
1.699723572e-13
1.79975864e-13
1.897245334e-13
1.975445632e-13
2.072237952e-13
2.193846016e-13
2.305337066e-13
2.427555282e-13
2.564558815e-13
2.719405222e-13
2.881911543e-13
3.023410896e-13
3.16097439e-13
3.313494741e-13
3.475585651e-13
3.644842457e-13
3.794955739e-13
3.965462817e-13
4.131944254e-13
4.281031744e-13
4.446383226e-13
4.645068062e-13
4.858883238e-13
5.079272621e-13
5.326841566e-13
5.576862637e-13
5.835988668e-13
6.176530879e-13
6.644385921e-13
7.24758337e-13
8.726232147e-13
1.122675154e-12
3.670825598e-12
5.965809453e-12
6.104707382e-12
6.21157492e-12
6.143849499e-12
)


101
(
-7.976913882e-12
2.75243506e-13
8.872042375e-13
1.79340829e-13
1.26832653e-13
7.374458967e-14
3.84103697e-14
1.42483786e-14
-1.379137151e-15
-1.186116938e-14
-1.918042761e-14
-2.419082107e-14
-2.799508159e-14
-3.085290743e-14
-3.270522117e-14
-3.341811327e-14
-3.383559575e-14
-3.40203969e-14
-3.193656606e-14
-3.182668935e-14
-3.04251901e-14
-2.713598941e-14
-2.498145138e-14
-2.305573817e-14
-2.114024281e-14
-1.87857169e-14
-1.557274504e-14
-1.125161208e-14
-6.805900548e-15
-2.402145532e-15
1.253075636e-15
3.965412783e-15
8.766288963e-15
1.071094483e-14
1.419109334e-14
1.714996897e-14
1.956929159e-14
2.220841438e-14
2.505112359e-14
2.787295383e-14
3.099188036e-14
3.558764477e-14
3.986406644e-14
4.423076573e-14
4.925827605e-14
5.407652634e-14
5.952202631e-14
6.481704892e-14
7.048843507e-14
7.605992848e-14
8.19827057e-14
8.818140579e-14
9.487345169e-14
1.021312254e-13
1.099674088e-13
1.183939659e-13
1.267416568e-13
1.356024949e-13
1.442397211e-13
1.532805772e-13
1.627846848e-13
1.730814162e-13
1.841767495e-13
1.959734779e-13
2.082772512e-13
2.208122417e-13
2.332225019e-13
2.453796768e-13
2.557120094e-13
2.700864104e-13
2.836219664e-13
2.976187843e-13
3.15205153e-13
3.338764933e-13
3.534307105e-13
3.708700334e-13
3.877896078e-13
4.052410382e-13
4.258874141e-13
4.465277389e-13
4.662406181e-13
4.851280251e-13
5.069031503e-13
5.25919531e-13
5.457764383e-13
5.688497639e-13
5.942211604e-13
6.208278546e-13
6.503791803e-13
6.811536804e-13
7.11706062e-13
7.501538918e-13
8.043291158e-13
8.742726712e-13
1.041214945e-12
1.318912061e-12
4.013227079e-12
6.433133094e-12
6.583149808e-12
6.702032431e-12
6.624171519e-12
)


101
(
-7.834635354e-12
2.96220321e-13
8.959150353e-13
1.822267556e-13
1.276914824e-13
7.431379355e-14
3.837072801e-14
1.383298276e-14
-2.087567246e-15
-1.278984825e-14
-2.030172995e-14
-2.55210393e-14
-2.949170208e-14
-3.246226681e-14
-3.450296095e-14
-3.543088746e-14
-3.586639921e-14
-3.615410119e-14
-3.422104281e-14
-3.393395187e-14
-3.255283298e-14
-2.943275852e-14
-2.712523096e-14
-2.477340826e-14
-2.239437986e-14
-1.974575402e-14
-1.641840292e-14
-1.203240219e-14
-7.38593952e-15
-2.588114986e-15
1.604158491e-15
4.858724393e-15
1.002716207e-14
1.239838309e-14
1.638573939e-14
2.00431619e-14
2.32804093e-14
2.669244788e-14
3.015971477e-14
3.350445146e-14
3.721089244e-14
4.255164501e-14
4.787730541e-14
5.342062309e-14
5.956705813e-14
6.535325055e-14
7.167107021e-14
7.792899503e-14
8.468405801e-14
9.146173299e-14
9.870162343e-14
1.062420753e-13
1.142583941e-13
1.228704612e-13
1.32140125e-13
1.421774836e-13
1.523849308e-13
1.633091155e-13
1.741373985e-13
1.841326311e-13
1.969413717e-13
2.092906109e-13
2.225169817e-13
2.365828009e-13
2.513636402e-13
2.666489347e-13
2.820444596e-13
2.989006101e-13
3.122064811e-13
3.266532282e-13
3.43689888e-13
3.605317016e-13
3.821419049e-13
4.042936064e-13
4.266965924e-13
4.489558962e-13
4.6860909e-13
4.895281854e-13
5.138501838e-13
5.386007334e-13
5.616062592e-13
5.857154526e-13
6.119332442e-13
6.366354604e-13
6.596336474e-13
6.852571185e-13
7.157315827e-13
7.474496731e-13
7.823124803e-13
8.187897144e-13
8.545920146e-13
8.989580282e-13
9.606866189e-13
1.040888712e-12
1.227010508e-12
1.532579285e-12
4.363804616e-12
6.900873822e-12
7.058844686e-12
7.190341256e-12
7.101552687e-12
)


101
(
-7.692907048e-12
1.92275902e-12
2.56856717e-13
1.851618533e-13
1.286388083e-13
7.494029556e-14
3.841721112e-14
1.349618213e-14
-2.717545045e-15
-1.364296063e-14
-2.134787131e-14
-2.677098801e-14
-3.092357725e-14
-3.402601035e-14
-3.6258528e-14
-3.741679872e-14
-3.793548689e-14
-3.83215815e-14
-3.656924821e-14
-3.615954992e-14
-3.479173551e-14
-3.183351494e-14
-2.946749451e-14
-2.680163028e-14
-2.399407147e-14
-2.099207204e-14
-1.746769531e-14
-1.297310273e-14
-8.141015397e-15
-2.982672467e-15
1.748351275e-15
5.605773792e-15
1.124606737e-14
1.412718304e-14
1.862267599e-14
2.295981979e-14
2.704076718e-14
3.131030309e-14
3.551995652e-14
3.953403649e-14
4.3889341e-14
5.005183952e-14
5.646814257e-14
6.329588441e-14
7.073884303e-14
7.774187881e-14
8.515915507e-14
9.247644422e-14
1.004023683e-13
1.085231054e-13
1.172300838e-13
1.263239038e-13
1.359233977e-13
1.460907443e-13
1.569539693e-13
1.686895702e-13
1.808264157e-13
1.939888654e-13
2.072787117e-13
2.198697979e-13
2.338105445e-13
2.497511609e-13
2.653732548e-13
2.819542777e-13
2.994229523e-13
3.176483808e-13
3.362890765e-13
3.549344516e-13
3.733081985e-13
3.909931871e-13
4.101964498e-13
4.318570128e-13
4.558390282e-13
4.816204499e-13
5.090482962e-13
5.357466397e-13
5.597384126e-13
5.836495283e-13
6.118149958e-13
6.408793048e-13
6.686622931e-13
6.985360381e-13
7.276030597e-13
7.58377955e-13
7.863048808e-13
8.150509038e-13
8.497277559e-13
8.888879909e-13
9.281719797e-13
9.707155002e-13
1.013831397e-12
1.063597189e-12
1.132544159e-12
1.223545573e-12
1.43034417e-12
1.763380912e-12
4.722912511e-12
7.370203549e-12
7.533854817e-12
7.674829549e-12
7.578723739e-12
)


101
(
-7.551735507e-12
1.945178551e-12
2.636790701e-13
1.881396579e-13
3.898402532e-13
7.562225911e-14
3.854632834e-14
1.323636701e-14
-3.269075964e-15
-1.441950068e-14
-2.232092765e-14
-2.79436701e-14
-3.229058651e-14
-3.554223007e-14
-3.796997601e-14
-3.93683961e-14
-4.002411568e-14
-4.052116033e-14
-3.897442244e-14
-3.850025634e-14
-3.715357953e-14
-3.435064814e-14
-3.198673462e-14
-2.910792714e-14
-2.59333412e-14
-2.255725777e-14
-1.876047098e-14
-1.409676232e-14
-9.071905282e-15
-3.586494131e-15
1.66734902e-15
6.175707562e-15
1.238406595e-14
1.587883626e-14
2.093345653e-14
2.595804312e-14
3.087323992e-14
3.603287927e-14
4.483912362e-14
4.921482178e-14
5.108011505e-14
5.809338917e-14
6.559322629e-14
7.379364875e-14
8.275692446e-14
9.122886875e-14
9.996297087e-14
1.085300509e-13
1.177190597e-13
1.272542328e-13
1.375845234e-13
1.484449952e-13
1.598617086e-13
1.71853565e-13
1.845169011e-13
1.980995811e-13
2.122781499e-13
2.277449679e-13
2.43668355e-13
2.602248015e-13
2.759573075e-13
2.933502086e-13
3.128668346e-13
3.32225009e-13
3.525982455e-13
3.73965759e-13
3.960631012e-13
4.184665766e-13
4.407348352e-13