/*--------------------------------*- C++ -*----------------------------------*\
| =========                 |                                                 |
| \\      /  F ield         | OpenFOAM: The Open Source CFD Toolbox           |
|  \\    /   O peration     | Version:  2.3.1                                 |
|   \\  /    A nd           | Web:      www.OpenFOAM.org                      |
|    \\/     M anipulation  |                                                 |
\*---------------------------------------------------------------------------*/
FoamFile
{
    version     2.0;
    format      ascii;
    class       dictionary;
    location    "constant";
    object      rCH2O;
}
// * * * * * * * * * * * * * * * * * * * * * * * * * * * * * * * * * * * * * //

rCH2O_table
101
(

101
(
-1.488156169e-08
-8.024644941e-05
-0.002853298952
-0.02053149754
-0.07585270711
-0.1961430785
-0.4082125713
-0.7448414646
-1.233515573
-1.906033671
-2.794069574
-3.936344872
-5.361187825
-7.11376423
-9.18525505
-11.52366184
-14.03005674
-16.56507301
-18.86461727
-20.84592858
-22.2761299
-23.07297296
-23.29349483
-22.95361539
-22.13333269
-20.94494519
-19.4980909
-17.8893352
-16.21627772
-14.53331113
-12.8895414
-11.30493145
-9.767612759
-8.401411253
-7.110489907
-5.913046987
-5.004664679
-4.341664726
-3.369044283
-2.499369491
-1.717596964
-0.9947800111
-0.3482690691
0.2344880527
0.7645351873
1.235383037
1.657658748
2.028235419
2.355345928
2.63810323
2.882427581
3.08927687
3.261141483
3.400281484
3.509310492
3.590452402
3.641616039
3.67069996
3.674748094
3.658399011
3.621622221
3.567280353
3.497004831
3.411805899
3.313511474
3.203995997
3.08461572
2.956760263
2.821683251
2.681314278
2.536677372
2.389271335
2.24017707
2.091688503
1.950793639
1.804907728
1.652651991
1.503757721
1.359230884
1.219792048
1.086424499
0.9597043229
0.8409495647
0.7333251571
0.6258182512
0.5245231807
0.4321077374
0.3487811275
0.2750674052
0.2130573381
0.1550626255
0.1066419293
0.06851518239
0.03845281996
0.01748227487
0.004334406385
-3.916616226e-13
-2.720203927e-31
1.072550793e-22
-9.298853951e-23
0
)


101
(
-1.479553344e-08
-7.378121297e-05
-0.002698809912
-0.01952814494
-0.07226871356
-0.1869382106
-0.3889206634
-0.7087492619
-1.17214382
-1.808014988
-2.645266903
-3.718707723
-5.055128252
-6.695107704
-8.637097096
-10.83863944
-13.21442381
-15.64066543
-17.88994712
-19.85290337
-21.3381438
-22.24085161
-22.58175128
-22.38567159
-21.71589379
-20.66975364
-19.35111611
-17.85506718
-16.2732654
-14.66949617
-13.09304981
-11.57120075
-10.10280961
-8.757535122
-7.509753133
-6.353286005
-5.392308708
-4.653880981
-3.859895912
-3.063199824
-2.328296295
-1.655855644
-1.052137024
-0.5130363297
-0.02926280756
0.4002665377
0.7817634758
1.116959413
1.410624724
1.664787906
1.883389056
2.068826429
2.223598307
2.350308565
2.451127725
2.52805165
2.581151119
2.614520156
2.628432384
2.625408629
2.606515043
2.573579387
2.52816621
2.471425431
2.404649968
2.329138203
2.24621871
2.156970384
2.0623409
1.963592858
1.861628044
1.757420662
1.651805755
1.546050911
1.442842167
1.340805118
1.237260312
1.133310577
1.030879741
0.9314356431
0.8359438779
0.7448003277
0.6585669678
0.5786220531
0.5032978231
0.4310632469
0.3630481505
0.3006933606
0.2444497638
0.1949609291
0.151407715
0.1124860606
0.07944164267
0.05272176704
0.0314629203
0.01544849629
0.004719725254
0.004329670993
0.004056565135
0.003897150128
0.003826791403
)


101
(
-1.470974316e-08
-6.766937833e-05
-0.002550965989
-0.01856461759
-0.06882665517
-0.1781128651
-0.3704774395
-0.6743943636
-1.113983077
-1.715625378
-2.505781748
-3.515872889
-4.771259939
-6.308657949
-8.13239752
-10.20894767
-12.4655788
-14.79325598
-16.99625706
-18.94992278
-20.49079716
-21.50227804
-21.97463855
-21.93012865
-21.4197401
-20.52651927
-19.34621339
-17.97084904
-16.48792192
-14.96558181
-13.45585207
-11.9915443
-10.58015294
-9.264912612
-8.043287161
-6.911823504
-5.930830618
-5.13126971
-4.389072446
-3.658306644
-2.963345764
-2.319354385
-1.737308945
-1.216985189
-0.7522530068
-0.3400955474
0.02519610827
0.3470883828
0.6297503206
0.8758778477
1.088889649
1.271323623
1.425663709
1.55450298
1.660219857
1.744731165
1.808856303
1.855249508
1.884734864
1.899413428
1.900390623
1.889256379
1.867360109
1.83575424
1.795548439
1.747788884
1.693588045
1.633852216
1.569358126
1.501080453
1.429728633
1.356057816
1.280688447
1.20446054
1.128651789
1.053841586
0.9792927261
0.9045042898
0.8297521635
0.7560292215
0.6844922813
0.6157673206
0.5501803443
0.4882711035
0.4302926998
0.3755649504
0.3233232935
0.2741549255
0.2290637285
0.1883814654
0.1520504014
0.1198228594
0.09098462199
0.06641130616
0.0461412937
0.0287542918
0.01463214524
0.01409240599
0.0137956876
0.01388531244
0.0142605804
)


101
(
-1.462419081e-08
-6.189889518e-05
-0.002409566267
-0.01763979128
-0.06552245899
-0.169654684
-0.3528496137
-0.6416948816
-1.058857453
-1.628504269
-2.37494034
-3.326647947
-4.507655036
-5.951391289
-7.666877786
-9.628790458
-11.77598945
-14.01329868
-16.17262634
-18.12234682
-19.71824288
-20.83858409
-21.44893915
-21.56240642
-21.21877992
-20.48786146
-19.45588822
-18.21017734
-16.83464546
-15.39902701
-13.9582275
-12.55009059
-11.18928138
-9.908017545
-8.709062644
-7.588543177
-6.600790574
-5.756854447
-5.010664165
-4.311838471
-3.646454525
-3.021255224
-2.448834392
-1.932442791
-1.469825869
-1.058905914
-0.6940491758
-0.3712622386
-0.08579466122
0.1651140445
0.384925251
0.5758823436
0.740342333
0.8808034763
0.9996417361
1.098715921
1.179460635
1.243869464
1.292701892
1.327863655
1.350317885
1.361495398
1.36262966
1.354702252
1.338726515
1.315632805
1.286295624
1.251540431
1.211938021
1.168362547
1.121450356
1.071828733
1.019968735
0.9665152454
0.9122007383
0.8577241889
0.8032903971
0.7487246188
0.6937849391
0.6386464636
0.5841155067
0.531034029
0.4798820057
0.4309280076
0.3844888269
0.3406713014
0.2990689304
0.259179372
0.2216891046
0.1872531218
0.1559505565
0.1278085463
0.1024620258
0.0798093715
0.06046781368
0.04269260327
0.02656075284
0.02656290882
0.02697396975
0.02832752062
0.03065127727
)


101
(
-1.453887637e-08
-5.64577466e-05
-0.002274406898
-0.01675247057
-0.06235152738
-0.1615495015
-0.3359999932
-0.6105614335
-1.00657946
-1.546279183
-2.252064477
-3.149862795
-4.262459512
-5.620463162
-7.236576123
-9.092907205
-11.13893973
-13.29245626
-15.40964928
-17.3579658
-19.00705027
-20.23418407
-20.98556839
-21.26175348
-21.09118634
-20.53100889
-19.65719603
-18.55104291
-17.29264859
-15.95162597
-14.58482336
-13.23475295
-11.92210837
-10.67687561
-9.502749659
-8.401674272
-7.401863132
-6.524568048
-5.755106667
-5.057272778
-4.404793445
-3.789985784
-3.220449849
-2.700070337
-2.229422217
-1.808708447
-1.433300555
-1.09935154
-0.8016484559
-0.5372472279
-0.3024350961
-0.09509208755
0.08684654127
0.2455386976
0.3834116987
0.5025049433
0.6039973839
0.6900980511
0.7613521978
0.8196302854
0.8655899003
0.9004381721
0.9253686789
0.9412428376
0.9490634309
0.9498457502
0.9442359565
0.9328855049
0.9162918823
0.8951676497
0.870251625
0.8420103115
0.8108555647
0.7772768136
0.7418210895
0.705037405
0.6673799303
0.6290240364
0.589929196
0.5499343821
0.5092964154
0.4687555429
0.4289994265
0.3903661721
0.3530954934
0.3174075266
0.2833817009
0.2506301961
0.2190790138
0.1894365652
0.1620393091
0.1369413119
0.1140988552
0.09319408258
0.07475558551
0.05706496686
0.03984260937
0.04113299939
0.04341162529
0.04846472927
0.05600974217
)


101
(
-1.445379981e-08
-5.133403785e-05
-0.002145285742
-0.01590145715
-0.05930921472
-0.1537831345
-0.3198920556
-0.5809078772
-0.9569713002
-1.468603043
-2.13653065
-2.984457264
-4.03400936
-5.313356413
-6.838026871
-8.596764128
-10.54875036
-12.62381306
-14.69961351
-16.64702498
-18.34639231
-19.67660594
-20.56922626
-21.01106623
-21.01867415
-20.6368601
-19.93083629
-18.97475897
-17.84432674
-16.60783726
-15.32340579
-14.03616915
-12.77291068
-11.56558345
-10.41798097
-9.335559382
-8.333797882
-7.43218005
-6.63383505
-5.91956886
-5.263636637
-4.649558919
-4.077553276
-3.548842095
-3.064578136
-2.627024452
-2.233432331
-1.881125684
-1.564765719
-1.280866285
-1.025349462
-0.7960140961
-0.59109833
-0.4089744727
-0.2474660346
-0.1042362354
0.02189224099
0.1330737681
0.2296412066
0.3136432489
0.3856550222
0.4463102559
0.4969423327
0.5381638415
0.5708799894
0.5962705488
0.6150206418
0.6276505408
0.6345571864
0.6360262627
0.6330372902
0.6260378253
0.6154174148
0.6014914259
0.58469165
0.5654415563
0.5441782631
0.5212737133
0.4969546675
0.4710768119
0.4435969134
0.4148858878
0.3857284479
0.3565992141
0.3278090124
0.2995681537
0.2721180789
0.2453866129
0.2191496397
0.1937422899
0.1697587256
0.1473662846
0.1266043668
0.1072947345
0.08976961763
0.07236174965
0.05452146819
0.05863937291
0.06590472317
0.08597565384
0.1174977514
)


101
(
-1.436896114e-08
-4.651606892e-05
-0.002022004263
-0.01508557396
-0.05639097809
-0.1463418747
-0.3044910072
-0.5526532264
-0.909867703
-1.395156945
-2.027770706
-2.829473344
-3.820810159
-5.027828617
-6.46816282
-8.136391562
-10.00050885
-12.00147534
-14.03601313
-15.98149072
-17.72724827
-19.15547144
-20.18719135
-20.79573581
-20.98530586
-20.7885395
-20.25957332
-19.46442262
-18.47360876
-17.35312196
-16.16135081
-14.94533145
-13.7363332
-12.57043946
-11.45280818
-10.39123105
-9.395036375
-8.479108557
-7.654591889
-6.916239753
-6.245086034
-5.6221127
-5.042137743
-4.502092006
-4.001452797
-3.54328451
-3.126597435
-2.750710386
-2.410831115
-2.103042856
-1.822930205
-1.567706873
-1.33575069
-1.125942906
-0.9367927963
-0.7657167567
-0.6113889431
-0.4716832398
-0.346296775
-0.2333651033
-0.1324062546
-0.04289243427
0.03633301676
0.1058890815
0.1663358707
0.2188198589
0.2642787264
0.3032238296
0.335965449
0.3625873423
0.3836737809
0.3998396086
0.4115600943
0.4191462068
0.422852098
0.4229366511
0.4197285841
0.4136944247
0.4051772684
0.3942061021
0.3806748505
0.3646688265
0.3467953913
0.3276558986
0.3076696648
0.2871167847
0.2662746288
0.2452868362
0.224105192
0.2028030194
0.181963495
0.1619666648
0.1429857042
0.1249674141
0.108173117
0.0908204503
0.07233501112
0.08690510298
0.1137842268
0.1872633462
0.2979453652
)


101
(
-1.428436029e-08
-4.199235201e-05
-0.001904367866
-0.01430367128
-0.05359241924
-0.1392126262
-0.2897640751
-0.5257221351
-0.8651159691
-1.325649066
-1.925268962
-2.684047427
-3.621523203
-4.761884043
-6.124271665
-7.708317099
-9.489963626
-11.42041616
-13.41336378
-15.35475772
-17.14215018
-18.66217292
-19.82880431
-20.60311282
-20.97685525
-20.97059783
-20.62726996
-20.00393507
-19.16502477
-18.17327382
-17.08638709
-15.95252563
-14.80608388
-13.68765868
-12.60519571
-11.56899447
-10.5855665
-9.665371224
-8.822034219
-8.059364499
-7.366829827
-6.727433547
-6.134211512
-5.580168691
-5.061878041
-4.581757195
-4.139487112
-3.73630827
-3.368883607
-3.033506282
-2.725397925
-2.441003325
-2.178664863
-1.937424206
-1.716286917
-1.513112109
-1.326588331
-1.154138932
-0.9955541369
-0.848984204
-0.7141349606
-0.5906849585
-0.4777228464
-0.3747691706
-0.2813489749
-0.1966030119
-0.1194323124
-0.04923493662
0.01433936674
0.07124411312
0.1216009443
0.1659213367
0.2046604427
0.2382513203
0.2668692616
0.2905177188
0.3093572307
0.3237515979
0.3341368243
0.3406699607
0.3431830542
0.3417031755
0.3367092623
0.3286319794
0.3181329703
0.3054837007
0.2908893692
0.2747760352
0.2574089882
0.2389892218
0.2198666982
0.200284198
0.1812387292
0.162589116
0.1446376021
0.1252305061
0.103446783
0.157468241
0.2520168323
0.4815815175
0.8246752042
)


101
(
-1.419999729e-08
-3.775160965e-05
-0.001792186451
-0.01355463116
-0.05090929844
-0.132382913
-0.2756804456
-0.5000446381
-0.8225752153
-1.259812698
-1.828557359
-2.547402099
-3.434949261
-4.513747445
-5.80395047
-7.309495121
-9.013433841
-10.87634631
-12.82705035
-14.7614049
-16.58496192
-18.18964179
-19.48523798
-20.42243796
-20.98090355
-21.16923861
-21.01917186
-20.57823801
-19.90384742
-19.05449476
-18.0862557
-17.04764599
-15.97506335
-14.91301235
-13.87296489
-12.86836112
-11.9051351
-10.99057892
-10.13813671
-9.356200309
-8.641671429
-7.982193063
-7.37155908
-6.800771706
-6.263713082
-5.761225816
-5.292473533
-4.859865605
-4.461743321
-4.09510767
-3.754981855
-3.437703966
-3.141043423
-2.863545446
-2.605032911
-2.363946593
-2.138891927
-1.927192775
-1.728694858
-1.541411857
-1.365073881
-1.199480794
-1.043977052
-0.8985012694
-0.7627869422
-0.6363437479
-0.5181642347
-0.4073416445
-0.3034921053
-0.2067255729
-0.1173339833
-0.03529199198
0.03980303178
0.1083199904
0.1704093849
0.2259191361
0.2746890816
0.3167155816
0.3524302104
0.382014634
0.4053670893
0.4220211282
0.4329497339
0.4379223584
0.438224119
0.4333667642
0.4242113968
0.4106452616
0.3938399779
0.3743321188
0.352384172
0.3274817215
0.3027790033
0.2776365072
0.2521210652
0.2238178807
0.1865232469
0.354642746
0.6327808534
1.232214674
2.135507329
)


101
(
-1.411587202e-08
-3.378277866e-05
-0.001685274073
-0.01283736553
-0.04833752426
-0.1258408114
-0.2622109614
-0.4755552784
-0.7821149494
-1.197403091
-1.737209274
-2.418833299
-3.260007124
-4.28182761
-5.505053895
-6.93722946
-8.567703526
-10.36558112
-12.27317232
-14.19699358
-16.05067859
-17.7321211
-19.14926398
-20.2446606
-20.98671881
-21.372314
-21.42196581
-21.1732783
-20.67584511
-19.982954
-19.14805658
-18.21925033
-17.23409524
-16.2400042
-15.25174713
-14.28675076
-13.35224222
-12.45370118
-11.60328877
-10.8107591
-10.07797257
-9.397848226
-8.767503917
-8.177741461
-7.620722452
-7.095493916
-6.5997511
-6.136233697
-5.704180823
-5.301898154
-4.924956031
-4.569796878
-4.233305494
-3.91345928
-3.610083464
-3.322223602
-3.049281651
-2.788158668
-2.539129468
-2.300016401
-2.070273028
-1.849860023
-1.638372791
-1.436001514
-1.242861843
-1.05899621
-0.8839483141
-0.7167627688
-0.5568931904
-0.4043270566
-0.2596032045
-0.1233292349
0.00424511751
0.1233960548
0.2342639536
0.3365678988
0.4294780568
0.5126212132
0.5863050345
0.6501546609
0.7038684605
0.7471698505
0.7804900667
0.8040437664
0.8184920468
0.8233039238
0.8196532665
0.8061182733
0.7852762718
0.7582278391
0.7252192928
0.6857722422
0.6442973951
0.6008483437
0.5544971254
0.5008887775
0.4267338131
0.8619363353
1.556387472
2.897850753
4.898203644
)


101
(
-1.403198459e-08
-3.007503398e-05
-0.001583449357
-0.012150819
-0.04587316535
-0.1195749736
-0.2493280872
-0.4521927515
-0.7436147145
-1.138196986
-1.650837375
-2.297704136
-3.095721086
-4.064694173
-5.225658037
-6.589118661
-8.149939946
-9.884926267
-11.74840381
-13.65785208
-15.5352015
-17.28494022
-18.81512196
-20.06232148
-20.98510747
-21.56906924
-21.82353089
-21.77588478
-21.46727311
-20.94494328
-20.25867945
-19.45518903
-18.57249355
-17.66020963
-16.73558315
-15.82018678
-14.92403321
-14.05225775
-13.21535511
-12.42278004
-11.67895663
-10.98107529
-10.33101647
-9.720956685
-9.142673584
-8.593899313
-8.070184018
-7.573611389
-7.103792302
-6.660593595
-6.240398811
-5.840040955
-5.455807597
-5.084886881
-4.726264762
-4.379965662
-4.045914625
-3.721110987
-3.406070238
-3.098733722
-2.798197833
-2.504340276
-2.217135547
-1.936889624
-1.664121852
-1.399418351
-1.143170695
-0.8949916673
-0.6542251724
-0.4207591856
-0.195167645
0.02144581494
0.228021918
0.4240632128
0.6094383817
0.7835137138
0.9450660882
1.093194113
1.227347842
1.346725706
1.450138329
1.537191548
1.607558855
1.661749335
1.700093088
1.721201715
1.726374175
1.713360971
1.684534678
1.644677895
1.589820212
1.522986533
1.449106879
1.369704794
1.283851526
1.176345585
1.023116016
2.011070084
3.54275281
6.19086422
10.0218602
)


101
(
-1.394833504e-08
-2.661774985e-05
-0.001486534917
-0.0114939635
-0.04351242326
-0.1135745444
-0.2370057457
-0.4298995906
-0.7069626863
-1.081989465
-1.569088457
-2.183437358
-2.941209934
-3.861060373
-4.964036363
-6.263021588
-7.75764584
-9.43161076
-11.24992802
-13.14099738
-15.0352646
-16.84437902
-18.47819858
-19.8692637
-20.9681295
-21.74980267
-22.21251152
-22.37332608
-22.26449807
-21.9264927
-21.40445426
-20.74264971
-19.97868743
-19.16383555
-18.31690828
-17.46311704
-16.61600608
-15.78182253
-14.96997462
-14.18887427
-13.44363267
-12.73398194
-12.06641224
-11.43593851
-10.83510672
-10.26114646
-9.707555002
-9.175050365
-8.662976113
-8.17241549
-7.700633372
-7.24518583
-6.802236362
-6.368108103
-5.940912653
-5.521096335
-5.108340336
-4.700423806
-4.298091589
-3.899862634
-3.504404296
-3.111338379
-2.720808758
-2.333246148
-1.949582884
-1.57086322
-1.198238095
-0.8324409924
-0.4732507213
-0.1205735844
0.2249942539
0.5621250209
0.8889690429
1.203718084
1.505346858
1.792499059
2.063414888
2.316577203
2.549839761
2.762076622
2.95066358
3.113674832
3.2504752
3.360644979
3.443988955
3.498722376
3.524770401
3.520700891
3.485969123
3.428852306
3.344079901
3.235808051
3.109706326
2.971856185
2.82274234
2.627861668
2.344093616
4.326915803
7.315509507
12.04159132
18.63992886
)


101
(
-1.386492353e-08
-2.34005228e-05
-0.001394357595
-0.01086579984
-0.04125163436
-0.1078291497
-0.2252192361
-0.408621919
-0.6720552106
-1.028592238
-1.491640095
-2.07550962
-2.795677916
-3.669768656
-4.718637638
-5.95702345
-7.388616596
-9.003235714
-10.77536368
-12.64403194
-14.54830426
-16.40748771
-18.13469146
-19.66021466
-20.92846364
-21.90505125
-22.57760392
-22.95281237
-23.05365815
-22.91313583
-22.57088385
-22.06779366
-21.44009099
-20.73969178
-19.98630863
-19.20795819
-18.42175296
-17.6361509
-16.86068464
-16.10307631
-15.36742504
-14.65422997
-13.97343855
-13.32358375
-12.69900387
-12.09745345
-11.51116567
-10.93915598
-10.37961225
-9.83418012
-9.300805702
-8.778035469
-8.262356308
-7.749440365
-7.236520705
-6.723426551
-6.209868096
-5.693698569
-5.17634077
-4.656880907
-4.133911963
-3.606557948
-3.075021985
-2.539665412
-2.001527632
-1.462332181
-0.9236865533
-0.3876135913
0.1450049376
0.6738254051
1.197966431
1.715858613
2.225330034
2.722885694
3.205948046
3.671423079
4.116214405
4.538298401
4.933432643
5.299417367
5.631904167
5.926150881
6.180342966
6.392570254
6.560905083
6.683975509
6.758016918
6.782702599
6.755587373
6.684871239
6.565883819
6.405848738
6.210334002
5.988414459
5.74907426
5.427720634
4.95130744
8.575467945
13.82642493
21.4029689
31.54568227
)


101
(
-1.378174973e-08
-2.04131706e-05
-0.001306748285
-0.01026535599
-0.03908726212
-0.1023288684
-0.2139451172
-0.3883090869
-0.6387963131
-0.9778328526
-1.41819752
-1.973445718
-2.658405032
-3.489773095
-4.48806018
-5.6693999
-7.040896342
-8.597731366
-10.32272622
-12.16505972
-14.07236696
-15.97200651
-17.78157221
-19.43089506
-20.86003506
-22.02661156
-22.90848464
-23.50215533
-23.8210839
-23.89015265
-23.74269226
-23.41538298
-22.94214736
-22.37432695
-21.73171681
-21.04419761
-20.33205859
-19.60667593
-18.87898357
-18.15669937
-17.44230173
-16.73548597
-16.04794281
-15.38125033
-14.73231104
-14.10045464
-13.47765484
-12.8614929
-12.24833617
-11.63955447
-11.03302932
-10.42839892
-9.82300684
-9.211896254
-8.591365409
-7.960117789
-7.317968197
-6.661824089
-5.993661551
-5.313124863
-4.619271201
-3.910234874
-3.186165185
-2.447470382
-1.695181405
-0.9308274219
-0.1567067152
0.6235664023
1.408202441
2.194805029
2.982360905
3.7681507
4.550391164
5.323659034
6.083448753
6.823806002
7.538072889
8.223058466
8.873190521
9.483304567
10.04741592
10.55601065
11.00545658
11.39152404
11.70777706
11.95421236
12.12317646
12.2125395
12.21947987
12.15227254
12.00288765
11.78614295
11.50958007
11.18117742
10.82634561
10.34039573
9.613850721
15.63680425
23.9253757
34.82160067
48.52271019
)


101
(
-1.369881354e-08
-1.764571497e-05
-0.00122354179
-0.009691685869
-0.03701588905
-0.09706420605
-0.2031611827
-0.3689135395
-0.6070965437
-0.9295524783
-1.348491555
-1.876814239
-2.528740734
-3.320131982
-4.271041736
-5.39860014
-6.712736277
-8.213277811
-9.890322086
-11.70259074
-13.60606414
-15.53641977
-17.41676185
-19.17813265
-20.75802875
-22.10760734
-23.19599802
-24.0099248
-24.55326159
-24.84239164
-24.9036669
-24.76865203
-24.46799338
-24.051322
-23.537743
-22.95793936
-22.33462036
-21.68220625
-21.0140218
-20.33870132
-19.65738573
-18.9679694
-18.28215013
-17.60313544
-16.93050738
-16.26604092
-15.60227364
-14.93599241
-14.2617999
-13.57962969
-12.88666109
-12.18328897
-11.4677702
-10.73447592
-9.978972952
-9.198566711
-8.392143928
-7.555640854
-6.689975912
-5.796015177
-4.873455946
-3.919497758
-2.933233699
-1.915899472
-0.8682819364
0.2093531597
1.312873956
2.438805944
3.581582614
4.737788136
5.905295585
7.078492436
8.255670762
9.429389268
10.59348347
11.73860376
12.85018888
13.92482258
14.95236589
15.92500449
16.83594728
17.66809109
18.41325776
19.06580205
19.61472072
20.05663099
20.37968994
20.58492742
20.66014531
20.62145978
20.45588461
20.18172683
19.81782029
19.36650615
18.87423497
18.19273558
17.16337309
26.23027612
37.96920516
52.05693579
68.16792646
)


101
(
-1.3616115e-08
-1.508839512e-05
-0.001144576923
-0.009143869815
-0.03503421576
-0.09202607546
-0.1928464037
-0.3503906388
-0.5768725604
-0.8836047007
-1.282277747
-1.785222747
-2.406096553
-3.159998844
-4.066449407
-5.143234386
-6.402565435
-7.848245655
-9.476650033
-11.2553021
-13.14829328
-15.09971939
-17.03902283
-18.89983867
-20.61884341
-22.14242629
-23.43215325
-24.46560684
-25.23722596
-25.7547315
-26.03705213
-26.10976689
-25.99914423
-25.75215531
-25.38642023
-24.93242378
-24.41425546
-23.84897173
-23.25278528
-22.63609516
-21.9996069
-21.33912057
-20.66496203
-19.98033841
-19.28656559
-18.58805827
-17.87881022
-17.15554577
-16.41103222
-15.64336688
-14.84848863
-14.0262138
-13.17525754
-12.28988926
-11.36454104
-10.39489622
-9.378233687
-8.309130819
-7.185987082
-6.010364143
-4.782204812
-3.499800964
-2.16010715
-0.7655657903
0.6841809725
2.189737
3.745702563
5.346888657
6.984234479
8.652939349
10.34804805
12.05908634
13.78408211
15.5105437
17.23171894
18.93687937
20.59952536
22.21302805
23.75672422
25.22709761
26.61110091
27.88358778
29.03460279
30.04876075
30.91226163
31.62498548
32.16049949
32.5278022
32.70417986
32.71294184
32.54421753
32.21012775
31.74616264
31.15489853
30.50254117
29.59833414
28.21771415
40.55710713
55.46847587
71.92991141
90.0557454
)


101
(
-1.353365422e-08
-1.273166495e-05
-0.001069696357
-0.00862101313
-0.03313905561
-0.08720578149
-0.1829808503
-0.3326984448
-0.5480465878
-0.8398543151
-1.219333196
-1.698314532
-2.289939594
-3.008611703
-3.873263512
-4.902052153
-6.10897265
-7.501173842
-9.080393672
-10.82210219
-12.69828362
-14.66136611
-16.64777121
-18.59481061
-20.43994577
-22.12657959
-23.61001815
-24.85959807
-25.86074184
-26.61246401
-27.12584531
-27.41987477
-27.5156198
-27.4562769
-27.25739174
-26.94824604
-26.55311734
-26.09072809
-25.58010362
-25.03417008
-24.4540611
-23.83409933
-23.18254019
-22.50077598
-21.79025862
-21.05748888
-20.29843198
-19.5104037
-18.68417992
-17.8160134
-16.89996922
-15.93403023
-14.91600849
-13.84067638
-12.70061274
-11.48919125
-10.20300086
-8.834241266
-7.377082857
-5.832674587
-4.202060379
-2.484613406
-0.6769212496
1.218163338
3.204191631
5.276112096
7.432395543
9.665096598
11.95989377
14.30818857
16.6988464
19.11861034
21.55992751
24.00518127
26.44444325
28.86577187
31.23745629
33.53194098
35.72833067
37.8173222
39.77909181
41.58791608
43.23315031
44.67758066
45.91161997
46.9349146
47.71242479
48.25513902
48.53925424
48.58841097
48.39987381
47.98679023
47.38779107
46.62494185
45.77623181
44.60648162
42.80640805
58.01588997
75.06924654
92.57182478
110.1216933
)


101
(
-1.345143092e-08
-1.056617619e-05
-0.0009987461215
-0.008122242761
-0.03132731963
-0.08259497663
-0.1735455773
-0.3157974522
-0.5205454732
-0.7981755123
-1.159453845
-1.615765757
-2.179786992
-2.865281594
-3.690560481
-4.673917426
-5.830683526
-7.170767308
-8.70043461
-10.40217319
-12.25561608
-14.22128028
-16.24298693
-18.26260501
-20.21973042
-22.05654828
-23.7236466
-25.18323447
-26.41234776
-27.4014015
-28.15322634
-28.67978898
-28.99651953
-29.14170707
-29.12830673
-28.98349689
-28.73054355
-28.38858211
-27.97860072
-27.51625058
-27.00421911
-26.43623264
-25.81833001
-25.1489307
-24.42764172
-23.66146311
-22.84806648
-21.98579646
-21.0638847
-20.07633437
-19.01445669
-17.8734027
-16.64882074
-15.33530928
-13.92397527
-12.40489556
-10.77380704
-9.020374725
-7.135191793
-5.116545749
-2.966035108
-0.6850762418
1.726621898
4.267202179
6.941476543
9.737820371
12.65947393
15.69170172
18.81626248
22.01275102
25.26856776
28.56466305
31.8820185
35.19836637
38.49878097
41.76285877
44.95142266
48.03807216
50.97796715
53.75478087
56.34319566
58.72991892
60.88512985
62.76879624
64.36510795
65.68038372
66.67225075
67.34533695
67.6878856
67.72080597
67.44209788
66.89362093
66.09339928
65.08723015
63.98499179
62.47795117
60.16154276
77.21266223
94.86041082
111.9883471
127.5827562
)


101
(
-1.336944521e-08
-8.582800084e-06
-0.0009315763423
-0.007646711349
-0.02959602976
-0.07818568319
-0.1645226487
-0.2996506062
-0.4943004299
-0.7584502694
-1.102452969
-1.537283963
-2.075203905
-2.72938607
-3.517497789
-4.457779787
-5.566512992
-6.855830812
-8.335773508
-9.994984436
-11.82023489
-13.77984679
-15.82516007
-17.9034805
-19.95756569
-21.93000502
-23.76833796
-25.42897699
-26.88144647
-28.10788426
-29.10266492
-29.87036563
-30.42050494
-30.78549926
-30.97527413
-31.0141026
-30.9231851
-30.72066877
-30.42820288
-30.06373335
-29.6319821
-29.12706151
-28.55335022
-27.90579232
-27.1803741
-26.3822807
-25.50921747
-24.56064359
-23.52557024
-22.39459362
-21.15554052
-19.79981944
-18.31947666
-16.70794316
-14.95538957
-13.04958941
-10.98330676
-8.743878907
-6.320650654
-3.708511902
-0.9041351999
2.08134033
5.246870171
8.588820331
12.10958972
15.79222913
19.63817554
23.62810303
27.73678939
31.9302399
36.19608661
40.49418265
44.79890639
49.08493654
53.32660528
57.49185729
61.54387903
65.44733643
69.13242505
72.58066766
75.76554825
78.67469459
81.26745085
83.50163122
85.38107036
86.87633947
87.97310793
88.66756414
88.95455161
88.85569973
88.37779764
87.57919355
86.48587852
85.1376428
83.68492815
81.72500079
78.75220792
96.29804188
112.9519161
128.5971863
141.2184223
)


101
(
-1.328769718e-08
-6.772612943e-06
-0.0008680407151
-0.007193594012
-0.02794230565
-0.07397025188
-0.1558950242
-0.2842230654
-0.4692473072
-0.7205691194
-1.04815885
-1.462602944
-1.975796715
-2.600364585
-3.353317741
-4.252693366
-5.315392374
-6.555289349
-7.985515992
-9.600089126
-11.39222663
-13.33770774
-15.39521207
-17.51830929
-19.65369346
-21.74573618
-23.74065645
-25.59058542
-27.2585735
-28.71911782
-29.95828082
-30.97293014
-31.76629597
-32.36436321
-32.77357982
-33.0145796
-33.10558854
-33.06256438
-32.90621422
-32.65549862
-32.31707169
-31.88611057
-31.36611469
-30.74881136
-30.02526081
-29.19619282
-28.25718471
-27.2076632
-26.03675478
-24.73194144
-23.27676416
-21.6583805
-19.86392089
-17.88331052
-15.70657492
-13.32163602
-10.7177925
-7.881185255
-4.799461063
-1.465901681
2.126968941
5.95867883
10.02508296
14.31634842
18.82530325
23.53413927
28.43266926
33.49783044
38.69868064
43.98713361
49.33744907
54.6921762
60.02168175
65.28964734
70.45506433
75.48104524
80.32798733
84.95871248
89.29153503
93.29413469
96.93750145
100.2085274
103.0749477
105.4944078
107.4683423
108.9857046
110.0098564
110.5589759
110.6300052
110.2436782
109.4321432
108.2614411
106.7435466
104.9414435
103.0257471
100.4992229
96.72736421
113.5002456
127.9333671
141.4763403
150.5662118
)


101
(
-1.320618657e-08
-5.126888931e-06
-0.0008079961789
-0.006762085945
-0.02636335359
-0.06994132646
-0.1476464783
-0.2694818676
-0.4453258633
-0.6844301316
-0.9964096668
-1.391481548
-1.881205746
-2.477705864
-3.197331217
-4.057798055
-5.076349846
-6.26816465
-7.648844965
-9.21704656
-10.9716893
-12.89552674
-14.9543682
-17.10844816
-19.30913182
-21.50364378
-23.63853551
-25.66334343
-27.53582689
-29.22374263
-30.70539223
-31.96979775
-33.01343187
-33.85534814
-34.49827657
-34.95852565
-35.25071594
-35.38747776
-35.38691503
-35.26732128
-35.0363697
-34.6903564
-34.23240615
-33.65161922
-32.93374011
-32.07319101
-31.06042187
-29.89246274
-28.55758003
-27.04153842
-25.32404848
-23.38720254
-21.21381483
-18.78628134
-16.0946996
-13.12887952
-9.878378999
-6.32899646
-2.468830708
1.708534514
6.209398657
11.01175723
16.10044383
21.45765018
27.05410466
32.87804363
38.89935814
45.08946437
51.41098023
57.79436508
64.20320896
70.5745532
76.86145004
83.01102184
88.97354707
94.70637104
100.167099
105.328907
110.1076043
114.4500789
118.3171877
121.7225801
124.6348785
127.0123428
128.8593939
130.1922126
130.9522083
131.1779476
130.8707109
130.0519304
128.7811085
127.1104539
125.0788694
122.7271772
120.2734756
117.0943526
112.4455076
127.5468966
139.0676037
150.3438459
156.3537132
)


101
(
-1.312491359e-08
-3.637100018e-06
-0.0007513025498
-0.006351406445
-0.02485647955
-0.06609187039
-0.1397616344
-0.2553961008
-0.4224800301
-0.6499390655
-0.9470561246
-1.32370017
-1.791105743
-2.360946445
-3.048915458
-3.872316701
-4.848505043
-5.99356962
-7.32502609
-8.845461869
-10.55876851
-12.45407217
-14.50405179
-16.67567241
-18.92558693
-21.2047264
-23.46137836
-25.64418038
-27.70703144
-29.61214332
-31.33090641
-32.844743
-34.14289514
-35.23669846
-36.12502989
-36.81939179
-37.33045529
-37.66661932
-37.84181387
-37.87184612
-37.76361667
-37.51365202
-37.1247607
-36.58404634
-35.87240452
-34.97694534
-33.88031893
-32.57362706
-31.04269943
-29.27249437
-27.24030548
-24.92395909
-22.30230753
-19.34929482
-16.05396126
-12.40871247
-8.407126474
-4.037477529
0.706344279
5.824861366
11.3225193
17.17696775
23.35626526
29.83651295
36.55836395
43.50836712
50.63788897
57.90782019
65.27313663
72.64692607
79.98401561
87.21010416
94.26507747
101.0865109
107.6168868
113.8076861
119.6245218
125.0421593
129.9747004
134.3877518
138.2191008
141.5063172
144.2221358
146.3281438
147.8277177
148.7788297
149.1166686
148.8746285
148.0657016
146.7113126
144.9081212
142.6633884
140.0782794
137.1492213
134.1418637
130.3036588
124.8043367
137.7779978
146.2189069
155.4821267
159.2547534
)


101
(
-1.304387839e-08
-2.294327223e-06
-0.0006978246412
-0.005960793147
-0.0234190667
-0.06241510381
-0.1322257667
-0.2419365185
-0.4006574427
-0.6170084214
-0.8999600611
-1.259054215
-1.705201093
-2.249668675
-2.907508991
-3.695544927
-4.631056143
-5.730699675
-7.013399579
-8.485001625