/*--------------------------------*- C++ -*----------------------------------*\
| =========                 |                                                 |
| \\      /  F ield         | OpenFOAM: The Open Source CFD Toolbox           |
|  \\    /   O peration     | Version:  2.3.1                                 |
|   \\  /    A nd           | Web:      www.OpenFOAM.org                      |
|    \\/     M anipulation  |                                                 |
\*---------------------------------------------------------------------------*/
FoamFile
{
    version     2.0;
    format      ascii;
    class       dictionary;
    location    "constant";
    object      rCH2(S);
}
// * * * * * * * * * * * * * * * * * * * * * * * * * * * * * * * * * * * * * //

rCH2(S)_table
101
(

101
(
-3.042807774e-16
-2.283039394e-08
-1.243515695e-06
-1.479070164e-05
-8.236139759e-05
-0.0002458369282
-0.0005097290016
-0.001014082833
-0.001770108218
-0.002822401119
-0.004170382012
-0.005803703495
-0.007673064675
-0.009694744148
-0.01175261184
-0.01375691846
-0.01555412493
-0.01679881336
-0.01803691562
-0.01819673967
-0.01813516979
-0.017855986
-0.01682123593
-0.01547487007
-0.01400116217
-0.0124611227
-0.01092582731
-0.009452537713
-0.008073014303
-0.006822773151
-0.005715571434
-0.004739230441
-0.003828923274
-0.003166374922
-0.002587237153
-0.002103804935
-0.002335831895
-0.003266047836
-0.002578040146
-0.002055167878
-0.001649083324
-0.001292409407
-0.00101891093
-0.0008009631456
-0.0006165243792
-0.0004757489176
-0.0003607779182
-0.0002745519729
-0.0002060611221
-0.000155213426
-0.0001151408283
-8.48570299e-05
-6.203684583e-05
-4.47881414e-05
-3.174460773e-05
-2.188204672e-05
-1.570903669e-05
-1.053934938e-05
-7.252194845e-06
-4.792596104e-06
-3.20888655e-06
-2.082258986e-06
-1.311442272e-06
-8.145337257e-07
-4.979185954e-07
-2.988639713e-07
-1.720292526e-07
-9.495286771e-08
-5.377466928e-08
-2.836356109e-08
-1.486903005e-08
-7.6721679e-09
-4.542701334e-09
-2.434815534e-09
-1.420640772e-09
-1.077894078e-09
-4.335911617e-10
-1.853348063e-10
-7.764152648e-11
-2.841201499e-11
-7.849201758e-12
-3.401223043e-12
-1.091435307e-12
-6.486295573e-13
-4.004216959e-13
-1.210263606e-13
-3.639904307e-14
-1.048432511e-14
-3.063042429e-15
-2.513088599e-15
-7.0193562e-16
-1.369908731e-16
-2.676575291e-17
-1.14271986e-17
-3.405956925e-18
-1.356987314e-18
6.510605979e-24
3.105731496e-41
-8.967382571e-34
6.450453076e-34
0
)


101
(
-3.358120928e-16
3.120341824e-09
-4.498047149e-07
-5.356960811e-06
-2.72575845e-05
-7.281631948e-05
-0.0001334795488
-0.0002353916129
-0.0003659789217
-0.000521649421
-0.0006916894596
-0.0008675157106
-0.001037800796
-0.001190504781
-0.001317347495
-0.001412954154
-0.001470054202
-0.001466878393
-0.001461896278
-0.001377542091
-0.001284131416
-0.001187531868
-0.001059271688
-0.0009257187495
-0.0007985060621
-0.0006798759711
-0.0005723311859
-0.0004770955407
-0.0003940222733
-0.000323091607
-0.0002636065455
-0.0002144464712
-0.0001710353568
-0.0001376595643
-0.0001106695213
-8.692955685e-05
-7.477301901e-05
-8.555683638e-05
-7.5973291e-05
-6.006697507e-05
-4.739222444e-05
-3.697924751e-05
-2.884404565e-05
-2.258049139e-05
-1.752543722e-05
-1.359537648e-05
-1.048318618e-05
-8.070539651e-06
-6.187227192e-06
-4.735286827e-06
-3.606151422e-06
-2.728648107e-06
-2.054587834e-06
-1.531238887e-06
-1.131611524e-06
-8.279153148e-07
-6.067958097e-07
-4.397122057e-07
-3.160981845e-07
-2.250984712e-07
-1.586620636e-07
-1.104944795e-07
-7.568223104e-08
-5.104457464e-08
-3.379888094e-08
-2.215387982e-08
-1.419123212e-08
-8.881931915e-09
-5.428543312e-09
-3.224069381e-09
-1.859329269e-09
-1.048799286e-09
-5.872199668e-10
-3.062558434e-10
-1.434821074e-10
-6.716899521e-11
-2.909083837e-11
-1.203259063e-11
-4.472922937e-12
-1.194104734e-12
-1.721315275e-13
8.886130379e-14
9.875473674e-14
6.816471556e-14
3.516369319e-14
1.35421063e-14
3.565894355e-15
8.515424374e-16
3.867202193e-16
1.166156332e-16
2.838800802e-17
6.868699761e-18
1.993388574e-19
1.960678621e-20
-4.31229309e-19
-5.910632704e-19
-7.435146581e-21
-5.202321068e-20
-2.236389505e-19
1.17154789e-17
-1.944262367e-16
)


101
(
-3.649835542e-16
1.406331026e-08
-1.314843477e-07
-1.906343788e-06
-9.076877869e-06
-2.200633896e-05
-3.643785915e-05
-5.818420828e-05
-8.279545719e-05
-0.0001091137897
-0.0001352978769
-0.0001605940392
-0.0001842472731
-0.0002050926438
-0.0002233419131
-0.0002386188232
-0.0002502711042
-0.0002561631933
-0.000261855215
-0.0002600019269
-0.000255848523
-0.0002493257857
-0.000238859348
-0.0002257336506
-0.0002108475803
-0.0001946765028
-0.0001778223658
-0.0001607574403
-0.0001440576107
-0.0001280525134
-0.0001131142467
-9.949658873e-05
-8.697045745e-05
-7.567284613e-05
-6.492241377e-05
-5.629144976e-05
-4.979212347e-05
-4.202683715e-05
-3.714010007e-05
-3.288768173e-05
-2.830823764e-05
-2.38481742e-05
-2.000237524e-05
-1.673777845e-05
-1.396094153e-05
-1.163250077e-05
-9.675284193e-06
-8.013898904e-06
-6.614711765e-06
-5.435227556e-06
-4.441142822e-06
-3.602059156e-06
-2.899514369e-06
-2.32054375e-06
-1.847185264e-06
-1.463612483e-06
-1.148530567e-06
-8.950557566e-07
-6.92066817e-07
-5.30614395e-07
-4.038450097e-07
-3.040282009e-07
-2.253066297e-07
-1.651725275e-07
-1.199254408e-07
-8.608691264e-08
-6.059846028e-08
-4.185616547e-08
-2.860383017e-08
-1.905601992e-08
-1.242186104e-08
-7.824736734e-09
-5.011767692e-09
-3.082619162e-09
-1.757528371e-09
-9.581246567e-10
-5.124231566e-10
-2.62958771e-10
-1.358370951e-10
-6.425314564e-11
-2.885936174e-11
-1.189478241e-11
-4.583198452e-12
-1.500118225e-12
-3.334269458e-13
-1.410158149e-14
2.334289059e-14
-2.315340764e-15
3.141769945e-17
1.673983884e-15
4.636708483e-16
-8.170304348e-17
-1.411715314e-16
-6.694239622e-17
-4.846923432e-17
-3.869216003e-17
-1.496912857e-18
-1.428437238e-17
-6.94524549e-17
-4.666696362e-16
1.173237366e-11
)


101
(
-3.917950567e-16
1.827817915e-08
-5.119946307e-09
-6.482906013e-07
-3.097267697e-06
-7.108408798e-06
-1.135696431e-05
-1.767572703e-05
-2.523450271e-05
-3.428588744e-05
-4.491833417e-05
-5.737917209e-05
-7.188058587e-05
-8.795787894e-05
-0.000105544876
-0.0001240432846
-0.0001425771692
-0.0001599055293
-0.0001761188878
-0.0001893338103
-0.000199480576
-0.0002059800686
-0.0002087029749
-0.00020762621
-0.0002029741898
-0.0001952932903
-0.0001852014487
-0.000173292087
-0.0001602919975
-0.0001467212638
-0.0001331584344
-0.0001202514332
-0.0001081095029
-9.687495716e-05
-8.570762852e-05
-7.347709692e-05
-6.728472949e-05
-5.83162711e-05
-5.09183516e-05
-4.572236959e-05
-4.065700888e-05
-3.548120955e-05
-3.068819282e-05
-2.636447285e-05
-2.255279662e-05
-1.930308087e-05
-1.65129053e-05
-1.411180666e-05
-1.201607258e-05
-1.020809224e-05
-8.625949304e-06
-7.248743171e-06
-6.048752114e-06
-5.007935432e-06
-4.129413575e-06
-3.410926672e-06
-2.786424198e-06
-2.266555092e-06
-1.831001974e-06
-1.466871631e-06
-1.168651126e-06
-9.242599112e-07
-7.230503423e-07
-5.603267922e-07
-4.302505046e-07
-3.264682109e-07
-2.44844173e-07
-1.800087635e-07
-1.319003506e-07
-9.524931349e-08
-6.748454512e-08
-4.656099238e-08
-3.221125244e-08
-2.186402348e-08
-1.413724972e-08
-8.788479961e-09
-5.387290145e-09
-3.19771499e-09
-1.872821301e-09
-1.056538364e-09
-5.807891653e-10
-3.03750791e-10
-1.530006687e-10
-7.330598379e-11
-3.265501928e-11
-1.328697644e-11
-4.906946769e-12
-2.072911034e-12
-9.108885274e-13
-3.22466829e-13
-9.497095116e-14
-3.639897291e-14
-1.459767395e-14
-6.447409092e-15
-3.612285197e-15
-2.04875502e-15
-1.432254336e-16
-2.364486903e-15
-1.196789463e-14
-8.880866309e-14
-2.402821033e-11
)


101
(
-4.162464952e-16
1.946870845e-08
4.368378255e-08
-1.920476569e-07
-1.135251922e-06
-2.735550087e-06
-4.822628894e-06
-8.284855246e-06
-1.327503745e-05
-2.028448391e-05
-2.962877793e-05
-4.154924649e-05
-5.625668593e-05
-7.333022061e-05
-9.2527235e-05
-0.0001132504726
-0.0001346058063
-0.0001554617869
-0.0001752992005
-0.0001927818227
-0.0002072821278
-0.0002181440378
-0.0002251992779
-0.0002282254475
-0.0002272443945
-0.0002226381657
-0.0002149812781
-0.0002048705857
-0.000192991391
-0.0001799022926
-0.0001660239167
-0.0001526686071
-0.0001397328582
-0.0001279479353
-0.0001156810777
-0.0001048533824
-9.389237209e-05
-8.320874629e-05
-7.411178488e-05
-6.671739467e-05
-6.030807804e-05
-5.406063519e-05
-4.805624765e-05
-4.233895034e-05
-3.709913498e-05
-3.250090945e-05
-2.842824099e-05
-2.485164537e-05
-2.167346028e-05
-1.889794117e-05
-1.641948127e-05
-1.420943711e-05
-1.221900289e-05
-1.044086341e-05
-8.873675096e-06
-7.517532703e-06
-6.358329126e-06
-5.352615833e-06
-4.484914918e-06
-3.718334721e-06
-3.071288227e-06
-2.524960696e-06
-2.05715097e-06
-1.666560974e-06
-1.34228838e-06
-1.064954416e-06
-8.372821943e-07
-6.517310236e-07
-5.032876472e-07
-3.863438368e-07
-2.902294468e-07
-2.146109478e-07
-1.580368222e-07
-1.15220494e-07
-8.115547564e-08
-5.562192484e-08
-3.751298729e-08
-2.477143578e-08
-1.606792497e-08
-1.011321603e-08
-6.284091419e-09
-3.786138145e-09
-2.190045741e-09
-1.237972829e-09
-6.689809256e-10
-3.443827106e-10
-1.653448934e-10
-7.851325765e-11
-3.817884288e-11
-1.774878961e-11
-7.163498862e-12
-2.946333668e-12
-1.215578904e-12
-4.84430243e-13
-2.496450035e-13
-1.203994055e-13
-1.376731239e-14
-1.950131562e-13
-9.604677201e-13
-8.101517702e-12
-5.699241568e-10
)


101
(
-4.383377692e-16
1.930906932e-08
6.119054804e-08
-2.810220436e-08
-4.90260019e-07
-1.436509341e-06
-3.065495279e-06
-5.987593435e-06
-1.057390649e-05
-1.732928885e-05
-2.659156145e-05
-3.859987419e-05
-5.357341889e-05
-7.120484726e-05
-9.125152712e-05
-0.0001132151546
-0.0001362740215
-0.0001594096708
-0.0001819596581
-0.000202699795
-0.0002208269525
-0.0002356319734
-0.000246772915
-0.0002538627854
-0.0002567495823
-0.0002556049659
-0.0002508311027
-0.0002430506703
-0.0002328720627
-0.0002208044729
-0.0002074812823
-0.0001935867064
-0.0001800924928
-0.0001678771083
-0.0001550620278
-0.0001428443142
-0.0001303284616
-0.0001176759296
-0.0001062870156
-9.686137265e-05
-8.867049104e-05
-8.108769879e-05
-7.375479725e-05
-6.652677937e-05
-5.960691252e-05
-5.326471956e-05
-4.751169375e-05
-4.239484988e-05
-3.778717756e-05
-3.368075303e-05
-2.992065842e-05
-2.6499714e-05
-2.334834239e-05
-2.047518287e-05
-1.787031146e-05
-1.554578165e-05
-1.347828051e-05
-1.164559661e-05
-1.007265096e-05
-8.619547264e-06
-7.308640352e-06
-6.213338909e-06
-5.222758838e-06
-4.378080796e-06
-3.662065528e-06
-3.028577337e-06
-2.482693796e-06
-2.02024721e-06
-1.621436293e-06
-1.308692062e-06
-1.035319189e-06
-8.088263998e-07
-6.27254599e-07
-4.831655864e-07
-3.621115615e-07
-2.658794598e-07
-1.94436047e-07
-1.395661197e-07
-9.787942947e-08
-6.688624257e-08
-4.520970066e-08
-3.037038659e-08
-1.954838238e-08
-1.236387872e-08
-7.583501661e-09
-4.51446059e-09
-2.542746544e-09
-1.398710813e-09
-7.605396956e-10
-4.080357525e-10
-2.031979501e-10
-9.539412554e-11
-4.6219358e-11
-2.113744349e-11
-1.104822022e-11
-5.178315066e-12
-8.727225181e-13
-1.150794984e-11
-5.032301696e-11
-3.590224368e-10
-1.362786106e-08
)


101
(
-4.580687618e-16
1.856219375e-08
6.612541978e-08
2.973832219e-08
-2.747781039e-07
-1.031574704e-06
-2.538304483e-06
-5.310168696e-06
-9.765469323e-06
-1.640716882e-05
-2.559839986e-05
-3.761644055e-05
-5.271754501e-05
-7.072957657e-05
-9.145330744e-05
-0.0001145047192
-0.0001391669163
-0.0001644977577
-0.0001897958085
-0.0002138787812
-0.0002358395943
-0.0002548992154
-0.000270656005
-0.0002824772611
-0.0002900030616
-0.000293197078
-0.0002921760898
-0.000287528739
-0.0002799062723
-0.000269725547
-0.0002575409225
-0.0002440157054
-0.0002300515243
-0.0002175455419
-0.0002047628782
-0.0001916806868
-0.0001778196136
-0.0001634215736
-0.0001499582592
-0.0001384321584
-0.0001283977003
-0.0001192397404
-0.0001103102745
-0.0001014965205
-9.269836842e-05
-8.425501561e-05
-7.641084263e-05
-6.944930565e-05
-6.318185471e-05
-5.740042664e-05
-5.204858164e-05
-4.696068213e-05
-4.221283932e-05
-3.780443717e-05
-3.385140384e-05
-3.012147649e-05
-2.668113974e-05
-2.360700411e-05
-2.086372565e-05
-1.83120644e-05
-1.599489556e-05
-1.397998868e-05
-1.211398269e-05
-1.042797843e-05
-8.972441644e-06
-7.675062876e-06
-6.510681999e-06
-5.490455561e-06
-4.580825203e-06
-3.80825729e-06
-3.140719024e-06
-2.568963326e-06
-2.089596263e-06
-1.686584771e-06
-1.32966672e-06
-1.031575642e-06
-8.013294134e-07
-6.11635555e-07
-4.596835249e-07
-3.372825226e-07
-2.443710507e-07
-1.761996646e-07
-1.24008005e-07
-8.541512293e-08
-5.780645092e-08
-3.818572276e-08
-2.428306911e-08
-1.493949123e-08
-9.099394731e-09
-5.472464406e-09
-3.138434363e-09
-1.696534757e-09
-9.287159648e-10
-4.905535432e-10
-2.76940138e-10
-1.447175961e-10
-3.409134351e-11
-3.637741075e-10
-1.421877084e-09
-8.253391508e-09
4.161252336e-08
)


101
(
-4.754393831e-16
1.757739269e-08
6.606497841e-08
4.926300546e-08
-1.987078652e-07
-8.862822539e-07
-2.329390507e-06
-5.006569704e-06
-9.353612562e-06
-1.587635225e-05
-2.497327082e-05
-3.696911584e-05
-5.216958666e-05
-7.052611139e-05
-9.191578975e-05
-0.0001160500765
-0.000142336544
-0.0001699112243
-0.000198075063
-0.0002256623039
-0.0002517070653
-0.000275361654
-0.0002962411805
-0.0003133899011
-0.0003262155242
-0.0003345467093
-0.0003382232981
-0.0003376860995
-0.0003335509801
-0.0003262354692
-0.0003161677399
-0.0003039905509
-0.0002906708057
-0.000278050949
-0.0002655930714
-0.0002528311755
-0.0002387338381
-0.000223070186
-0.000207730056
-0.0001944032864
-0.0001822733642
-0.0001711442954
-0.0001607609617
-0.000150452986
-0.0001398939096
-0.0001293458377
-0.0001190535649
-0.0001096383686
-0.0001012493458
-9.355509092e-05
-8.653418756e-05
-7.935114727e-05
-7.252272394e-05
-6.625821283e-05
-6.044125051e-05
-5.483226883e-05
-4.970467347e-05
-4.491063123e-05
-4.050751859e-05
-3.629302955e-05
-3.235705424e-05
-2.889091804e-05
-2.56498775e-05
-2.266879589e-05
-1.997714789e-05
-1.754117139e-05
-1.527040609e-05
-1.329254301e-05
-1.146729631e-05
-9.854178234e-06
-8.423427004e-06
-7.128019285e-06
-6.011885871e-06
-5.036349316e-06
-4.149074389e-06
-3.36773205e-06
-2.737275734e-06
-2.19615473e-06
-1.749995835e-06
-1.366500186e-06
-1.050666021e-06
-7.989456814e-07
-6.033383175e-07
-4.447655229e-07
-3.242671218e-07
-2.321910621e-07
-1.620508049e-07
-1.09656553e-07
-7.344330141e-08
-4.830725465e-08
-3.085045381e-08
-1.87671396e-08
-1.153743092e-08
-6.881955318e-09
-4.281624571e-09
-2.47556779e-09
-7.894095451e-10
-6.29038608e-09
-2.18486169e-08
-1.057856193e-07
1.005999393e-06
)


101
(
-4.904495155e-16
1.651551731e-08
6.406450759e-08
5.50097002e-08
-1.677320497e-07
-8.16648068e-07
-2.204835594e-06
-4.793820925e-06
-9.033284999e-06
-1.543443764e-05
-2.443487042e-05
-3.640694478e-05
-5.170818361e-05
-7.041163222e-05
-9.246650978e-05
-0.0001176878104
-0.0001456135064
-0.0001754625146
-0.0002065686762
-0.0002377829928
-0.000268119177
-0.000296677112
-0.0003230693764
-0.0003460662508
-0.0003647456214
-0.0003788666773
-0.0003882076567
-0.0003930283292
-0.0003937754653
-0.0003907464172
-0.0003842633662
-0.0003748922155
-0.00036345743
-0.0003518142088
-0.0003405466358
-0.0003288712897
-0.0003148662364
-0.0002982150596
-0.0002818355932
-0.0002671064439
-0.000253319961
-0.0002411983989
-0.0002293053098
-0.0002172526664
-0.0002047709952
-0.0001921556936
-0.0001795116253
-0.0001675066868
-0.0001571038274
-0.0001472573656
-0.000137834063
-0.000128372244
-0.0001193956112
-0.0001102916902
-0.0001021897265
-9.467133037e-05
-8.726715884e-05
-8.028232218e-05
-7.372523952e-05
-6.73720136e-05
-6.13111974e-05
-5.583624123e-05
-5.045732188e-05
-4.552107162e-05
-4.097692658e-05
-3.687005362e-05
-3.300778667e-05
-2.945942738e-05
-2.613470735e-05
-2.296673054e-05
-2.015580331e-05
-1.751188016e-05
-1.529651102e-05
-1.328256481e-05
-1.13279471e-05
-9.561378261e-06
-8.068899606e-06
-6.733045402e-06
-5.601100445e-06
-4.575411923e-06
-3.714709534e-06
-2.962632888e-06
-2.363600436e-06
-1.844498169e-06
-1.428941365e-06
-1.084579689e-06
-8.174235883e-07
-5.974580555e-07
-4.323489081e-07
-3.075471956e-07
-2.138735926e-07
-1.444588944e-07
-9.70932225e-08
-6.402041781e-08
-4.324982079e-08
-2.731486916e-08
-1.14220263e-08
-6.80841937e-08
-2.081149603e-07
-8.184994269e-07
-1.927387288e-05
)


101
(
-5.030990695e-16
1.544980434e-08
6.134740407e-08
5.58260247e-08
-1.514163801e-07
-7.695488439e-07
-2.10450987e-06
-4.607573682e-06
-8.739814782e-06
-1.501859864e-05
-2.392618347e-05
-3.587859576e-05
-5.128905281e-05
-7.033472996e-05
-9.305351006e-05
-0.0001193590786
-0.0001489323038
-0.0001810753413
-0.0002151817298
-0.0002501430019
-0.0002849572248
-0.0003186039345
-0.0003505186707
-0.000379873651
-0.0004049279493
-0.0004255709671
-0.0004416110845
-0.000453046279
-0.0004600351295
-0.0004626738833
-0.0004612001291
-0.0004563295269
-0.0004489344281
-0.0004394999578
-0.000429858834
-0.0004196481087
-0.0004069250661
-0.0003911118706
-0.000375394811
-0.0003605379008
-0.0003460449657
-0.0003319520479
-0.0003188992637
-0.0003054228282
-0.0002912017855
-0.0002766645284
-0.0002619014576
-0.0002480692846
-0.000235838492
-0.0002236517841
-0.0002117762173
-0.0002000543421
-0.0001888414564
-0.0001773311027
-0.0001667680191
-0.0001563974577
-0.0001466208144
-0.0001364446609
-0.0001271742825
-0.0001183689563
-0.0001094996597
-0.0001015696652
-9.347468207e-05
-8.594685199e-05
-7.888482448e-05
-7.225322609e-05
-6.602922065e-05
-6.004079617e-05
-5.437115222e-05
-4.903436233e-05
-4.412173342e-05
-3.944102619e-05
-3.516822735e-05
-3.129556613e-05
-2.752439504e-05
-2.404388044e-05
-2.09185731e-05
-1.802528152e-05
-1.556842327e-05
-1.323286794e-05
-1.112256157e-05
-9.295742611e-06
-7.711766861e-06
-6.350525389e-06
-5.145575804e-06
-4.112767481e-06
-3.286352202e-06
-2.559829209e-06
-1.973119856e-06
-1.494586324e-06
-1.115147101e-06
-8.142315825e-07
-5.900332313e-07
-4.231678691e-07
-3.091442923e-07
-2.107756602e-07
-1.067751271e-07
-5.011696101e-07
-1.351609568e-06
-4.284647717e-06
-0.000247936594
)


101
(
-5.133879219e-16
1.441222275e-08
5.841453326e-08
5.493335419e-08
-1.399688012e-07
-7.298039073e-07
-2.012920279e-06
-4.432462659e-06
-8.459458378e-06
-1.4616529e-05
-2.343483645e-05
-3.536752795e-05
-5.088553502e-05
-7.025976155e-05
-9.362296401e-05
-0.0001209866217
-0.0001521868585
-0.0001866137883
-0.0002237089765
-0.0002624288744
-0.0003018307014
-0.0003408017846
-0.0003784988173
-0.0004146358372
-0.0004466198154
-0.0004746898978
-0.0004986905821
-0.0005181026174
-0.0005325812764
-0.0005422887314
-0.0005472820664
-0.0005480360572
-0.0005458361065
-0.0005403974314
-0.0005337791225
-0.000526214619
-0.0005163199173
-0.0005034295794
-0.0004900149007
-0.0004756414053
-0.0004617008272
-0.0004462931732
-0.0004328979348
-0.0004183356495
-0.0004031459352
-0.0003880251706
-0.0003724073946
-0.0003570318501
-0.0003429010395
-0.000328420446
-0.0003145133566
-0.0003012198703
-0.0002879359955
-0.0002747850825
-0.000260624737
-0.0002472192948
-0.0002353392757
-0.000222379364
-0.0002102744566
-0.0001984240692
-0.0001863742195
-0.0001751194992
-0.0001641082861
-0.0001533851099
-0.0001429184396
-0.0001326735896
-0.0001235601511
-0.0001142842026
-0.0001056700969
-9.720248352e-05
-8.916473725e-05
-8.129316906e-05
-7.414550651e-05
-6.751727369e-05
-6.093333326e-05
-5.448983845e-05
-4.864795953e-05
-4.317630269e-05
-3.828438494e-05
-3.360373637e-05
-2.917398634e-05
-2.527947245e-05
-2.16973071e-05
-1.856902227e-05
-1.570704754e-05
-1.306802446e-05
-1.088076239e-05
-8.90161396e-06
-7.206315373e-06
-5.790130337e-06
-4.546579299e-06
-3.546267169e-06
-2.73827265e-06
-2.094317917e-06
-1.632953785e-06
-1.199139384e-06
-7.091109867e-07
-2.620882932e-06
-6.299080932e-06
-1.667714223e-05
3.234123877e-06
)


101
(
-5.213667571e-16
1.341713424e-08
5.545077969e-08
5.346588055e-08
-1.302752135e-07
-6.930748816e-07
-1.926112732e-06
-4.264819676e-06
-8.187293405e-06
-1.422366954e-05
-2.295604344e-05
-3.486324186e-05
-5.047920861e-05
-7.016274773e-05
-9.414048442e-05
-0.0001225232448
-0.000155279775
-0.0001919269033
-0.0002319472117
-0.0002744256762
-0.0003186000909
-0.000363256964
-0.0004074734919
-0.000451059233
-0.0004913952124
-0.0005282539345
-0.0005609540676
-0.0005889333944
-0.0006116615933
-0.000629532514
-0.0006422051978
-0.0006496441626
-0.0006530840647
-0.0006536434165
-0.0006520756543
-0.0006488110121
-0.0006434141289
-0.0006358377702
-0.000627010429
-0.0006139130858
-0.0006022622415
-0.0005881599222
-0.0005747413956
-0.0005614168321
-0.0005472290514
-0.0005326309611
-0.0005166388908
-0.0005004011722
-0.0004848714962
-0.0004695130955
-0.0004540734278
-0.0004390432499
-0.0004248183124
-0.0004098890174
-0.0003924645924
-0.0003785553572
-0.0003637362864
-0.0003489049602
-0.0003330761007
-0.0003186394947
-0.0003034164703
-0.0002888407334
-0.0002742649654
-0.0002596464257
-0.0002457854899
-0.0002316625179
-0.000218150497
-0.0002051424315
-0.0001925747393
-0.0001801613144
-0.0001681485859
-0.0001561432922
-0.0001450169689
-0.0001344531718
-0.0001236964544
-0.0001128251444
-0.0001030417947
-9.379010552e-05
-8.482850952e-05
-7.631028825e-05
-6.824986818e-05
-6.069607229e-05
-5.368154375e-05
-4.733812245e-05
-4.137440157e-05
-3.557794474e-05
-3.061654978e-05
-2.612831988e-05
-2.204910976e-05
-1.844546629e-05
-1.517066732e-05
-1.244316388e-05
-1.008656501e-05
-8.147358406e-06
-6.677703058e-06
-5.196869708e-06
-3.471536379e-06
-1.044948442e-05
-2.250387484e-05
-5.109835646e-05
-2.70751818e-05
)


101
(
-5.271126505e-16
1.246960384e-08
5.254122887e-08
5.183598933e-08
-1.213520586e-07
-6.580852663e-07
-1.842978531e-06
-4.103811775e-06
-7.9203482e-06
-1.383417457e-05
-2.248658199e-05
-3.435979316e-05
-5.006149436e-05
-7.004360275e-05
-9.460870406e-05
-0.0001239580013
-0.0001581485224
-0.0001968357909
-0.0002396581359
-0.0002859259022
-0.0003351161816
-0.0003859289783
-0.0004373274472
-0.0004885106625
-0.0005372606787
-0.00058325302
-0.0006254755407
-0.0006631227575
-0.0006954296981
-0.0007229262561
-0.0007448202633
-0.0007606212348
-0.000771915315
-0.0007803361703
-0.0007862610643
-0.0007898328221
-0.0007911119487
-0.0007896532909
-0.0007861068481
-0.000777621312
-0.000769958247
-0.0007597863348
-0.0007483849276
-0.0007379450956
-0.0007265982923
-0.0007146626626
-0.0007005136191
-0.0006849485023
-0.0006696315455
-0.0006546521374
-0.0006394631433
-0.0006238811514
-0.0006089409656
-0.0005936248776
-0.0005761669628
-0.000560998175
-0.0005444539428
-0.0005271839242
-0.000508942529
-0.0004922069616
-0.0004741839166
-0.0004567086053
-0.0004393305044
-0.0004210109354
-0.0004020317562
-0.0003850054184
-0.0003673596402
-0.0003497258382
-0.0003331519764
-0.0003154473462
-0.0002986504291
-0.000281847029
-0.0002654596139
-0.0002497919525
-0.0002335532036
-0.0002170936724
-0.0002018304113
-0.0001867426428
-0.0001727048005
-0.000158342684
-0.0001444820693
-0.0001313807177
-0.0001190006515
-0.0001071272592
-9.613628145e-05
-8.528075492e-05
-7.520185934e-05
-6.607578985e-05
-5.758255775e-05
-4.967632077e-05
-4.246230209e-05
-3.621996281e-05
-3.052680614e-05
-2.561024597e-05
-2.188690328e-05
-1.788460963e-05
-1.310068302e-05
-3.319367888e-05
-6.447195703e-05
-0.0001278838758
0.001700816282
)


101
(
-5.304979039e-16
1.156963569e-08
4.971839172e-08
5.018446363e-08
-1.128866536e-07
-6.244385667e-07
-1.762802833e-06
-3.948326819e-06
-7.659400634e-06
-1.344904478e-05
-2.201865645e-05
-3.384871193e-05
-4.961517169e-05
-6.98608632e-05
-9.496012471e-05
-0.0001252095172
-0.0001607488563
-0.0002013703319
-0.0002469002871
-0.0002969053894
-0.0003510605364
-0.0004080819045
-0.0004667814817
-0.0005257342585
-0.0005831313234
-0.0006385057638
-0.0006910198063
-0.0007397746216
-0.0007837188009
-0.0008226345793
-0.0008552137041
-0.0008813547964
-0.0009030581756
-0.0009222176138
-0.0009381132325
-0.0009505814209
-0.0009596814177
-0.0009655452667
-0.0009695771099
-0.0009691809126
-0.0009675819187
-0.0009640689205
-0.0009573780839
-0.0009520679419
-0.0009462428379
-0.0009384795029
-0.0009284348246
-0.0009170313203
-0.0009040118353
-0.0008939618196
-0.0008808312341
-0.0008651204818
-0.0008523124926
-0.000838147559
-0.0008216032908
-0.0008049408762
-0.0007902544102
-0.0007717290441
-0.0007541211223
-0.0007355072495
-0.0007169221389
-0.0006973989249
-0.0006775323715
-0.000655764943
-0.0006344143404
-0.0006135638758
-0.0005914587108
-0.000570662451
-0.000547596338
-0.0005255873576
-0.0005034582979
-0.0004817122081
-0.0004592342067
-0.0004372493954
-0.0004142593412
-0.0003901841102
-0.0003677745136
-0.0003463435166
-0.0003245234207
-0.0003025885758
-0.0002807418427
-0.0002601831224
-0.0002394449134
-0.000219274089
-0.0002006583127
-0.0001823341182
-0.0001639009016
-0.0001472660587
-0.0001312845365
-0.0001162699679
-0.0001022563427
-8.9672541e-05
-7.786096847e-05
-6.745680265e-05
-5.92695176e-05
-5.025838158e-05
-3.925078504e-05
-8.622923239e-05
-0.0001535185429
-0.0002732900975
0.002427563771
)


101
(
-5.315224125e-16
1.071805089e-08
4.697830524e-08
4.856011489e-08
-1.047810943e-07
-5.92024618e-07
-1.685283974e-06
-3.797804521e-06
-7.404288426e-06
-1.306808677e-05
-2.153993101e-05
-3.333267123e-05
-4.913479496e-05
-6.958687375e-05
-9.514289199e-05
-0.0001262012329
-0.0001630665457
-0.0002056584024
-0.0002539625925
-0.0003082735809
-0.0003672317687
-0.000430024142
-0.0004952836889
-0.0005618697025
-0.0006281932195
-0.0006932226625
-0.000756793357
-0.0008177627416
-0.0008746293215
-0.0009263626542
-0.0009710816969
-0.001009379396
-0.001044426652
-0.001076678277
-0.001104858752
-0.00112867565
-0.001148868976
-0.00116540183
-0.001178929244
-0.001188741566
-0.001196404075
-0.001202526714
-0.0012059544
-0.001208078631
-0.001208972892
-0.001209428932
-0.001207443072
-0.001201659627
-0.001196134897
-0.001192563118
-0.001183326955
-0.001172210649
-0.001164857468
-0.001154675838
-0.001142216376
-0.001128896018
-0.001117144317
-0.001102667069
-0.001085449185
-0.00106800315
-0.001051918707
-0.001033214264
-0.001010805425
-0.0009872952075
-0.0009662436054
-0.0009415572672
-0.000917825684
-0.0008911149597
-0.0008652478657
-0.0008393127097
-0.0008111724967
-0.000783922602
-0.0007557668427
-0.0007269772099
-0.0006960813218
-0.0006632498006
-0.0006334290254
-0.0006026308209
-0.0005712883458
-0.0005403028854
-0.0005072760422
-0.0004757325933
-0.0004447665947
-0.0004128266855
-0.000381598414
-0.0003525145043
-0.0003232844056
-0.000294398369
-0.0002675269039
-0.0002419066326
-0.0002168183179
-0.0001944853118
-0.0001720709623
-0.0001524090986
-0.0001368948991
-0.0001192419005
-9.703196785e-05
-0.0001887292466
-0.0003109261173
-0.0005140300016
-0.00363665358
)


101
(
-5.301860686e-16
9.914735015e-09
4.427925172e-08
4.698466376e-08
-9.701175933e-08
-5.607447037e-07
-1.61017814e-06
-3.651762368e-06
-7.15506003e-06
-1.269147381e-05
-2.105067343e-05
-3.280518598e-05
-4.861481095e-05
-6.921069619e-05
-9.515152215e-05
-0.0001269285673
-0.0001650681553
-0.0002096656222
-0.0002607880052
-0.0003194896803
-0.0003828274193
-0.0004510051559
-0.0005226387622
-0.0005968145413
-0.0006721868579
-0.0007473180769
-0.0008228085407
-0.0008966328745
-0.0009668546405
-0.001032197809
-0.001091675314
-0.0011455003
-0.001195160989
-0.00124347417
-0.001285983151
-0.001323454761
-0.001357567309
-0.001388372654
-0.001415802197
-0.001437711013
-0.001459347714
-0.001479167797
-0.00149504341
-0.001509644452
-0.001522765256
-0.001534044562
-0.001541591082
-0.001547428453
-0.001552783815
-0.001558714198
-0.00155826466
-0.001556014912
-0.001558165084
-0.00155583223
-0.001553703354
-0.001549346481
-0.001543147481
-0.001536538772
-0.001525161229
-0.001513718436
-0.001499155016
-0.001484802182
-0.001462936716
-0.001443666651
-0.001425640558
-0.001399189154
-0.00137367302
-0.001345408386
-0.001319900217
-0.001290229326
-0.001256448389
-0.001224987698
-0.001190382286
-0.001156443044
-0.001118118675
-0.001074438759
-0.001035154946
-0.0009910043318
-0.0009515230765
-0.000906707837
-0.0008596983756
-0.0008148657794
-0.0007690290701
-0.000722042535
-0.0006762230621
-0.000629589589
-0.0005847420186
-0.0005391068036
-0.0004956783647
-0.0004547525984
-0.0004121813929
-0.0003751368563
-0.0003374498535
-0.0003033265727
-0.0002768392159
-0.0002449534276
-0.0002050541072
-0.0003647870209
-0.0005689861748
-0.0008906601217
0.01059770311
)


101
(
-5.264887749e-16
9.15881921e-09
4.150355485e-08
4.545886738e-08
-8.956863374e-08
-5.305515035e-07
-1.537310764e-06
-3.509728807e-06
-6.914382253e-06
-1.232402306e-05
-2.055145139e-05
-3.225365857e-05
-4.804411206e-05
-6.87411552e-05
-9.5020509e-05
-0.0001274549801
-0.0001667663889
-0.0002131937463
-0.0002669525982
-0.0003296259059
-0.0003969263466
-0.0004701302126
-0.000548603019
-0.0006304719427
-0.0007154079629
-0.0008016040487
-0.0008892987509
-0.0009757148166
-0.001059193524
-0.001138990564
-0.001214997352
-0.001286770582
-0.0013533412
-0.001419769738
-0.001478948557
-0.00153264966
-0.001583748069
-0.00163190703
-0.001678171965
-0.001720420312
-0.001757666042
-0.001794053587
-0.00182976377
-0.001861255757
-0.001888755038
-0.001914974696
-0.001938978302
-0.001963119227
-0.001982008647
-0.002000861625
-0.002017149899
-0.002031261621
-0.002044930748
-0.002058713691
-0.00207061041
-0.002076967416
-0.002085453012
-0.002094092555
-0.002092581991
-0.00208979521
-0.00208560544
-0.002079694104
-0.002065866305
-0.002057944357
-0.002039238776
-0.002023147826
-0.002003278007
-0.001974375097
-0.001947756827
-0.001914003252
-0.001880751516
-0.001845829594
-0.00180770113
-0.00177020611
-0.00172622068
-0.001670638912
-0.001614363377
-0.001561919232
-0.001508189646
-0.001446980603
-0.001385042876
-0.001323480951
-0.001254632611
-0.001189430918
-0.00112250902
-0.001054207767
-0.0009872991129
-0.0009192451955
-0.0008512316518
-0.0007870205021
-0.0007209928553
-0.0006606725374
-0.0006024506336
-0.0005462858016
-0.0005037868856
-0.0004518630568
-0.0003870956651
-0.0006427292717
-0.0009636895828
-0.001474300603
0.01049563931
)


101
(
-5.204304163e-16
8.4451328e-09
3.940283916e-08
4.397321262e-08
-8.24547206e-08
-5.014139191e-07
-1.4665352e-06
-3.371136759e-06
-6.683498963e-06
-1.197397058e-05
-2.004257375e-05
-3.166621006e-05
-4.74055548e-05
-6.81887894e-05
-9.482955745e-05
-0.0001279837549
-0.0001684382517
-0.0002165592945
-0.0002726803403