/*--------------------------------*- C++ -*----------------------------------*\
| =========                 |                                                 |
| \\      /  F ield         | OpenFOAM: The Open Source CFD Toolbox           |
|  \\    /   O peration     | Version:  2.3.1                                 |
|   \\  /    A nd           | Web:      www.OpenFOAM.org                      |
|    \\/     M anipulation  |                                                 |
\*---------------------------------------------------------------------------*/
FoamFile
{
    version     2.0;
    format      ascii;
    class       dictionary;
    location    "constant";
    object      rCH3OH;
}
// * * * * * * * * * * * * * * * * * * * * * * * * * * * * * * * * * * * * * //

rCH3OH_table
101
(

101
(
5.400592526e-11
4.390500109e-05
0.002341529589
0.01977851042
0.07998054771
0.2186878937
0.4727079566
0.8878388933
1.502409245
2.358830618
3.494729095
4.951278821
6.757610194
8.963380945
11.58817951
14.64769745
18.15407871
22.12586953
26.44910383
31.20775113
36.20210668
41.31080845
46.52976355
51.65403393
56.51715604
60.98450789
64.937101
68.27881516
70.95943596
72.93401329
74.20086351
74.77178152
74.69067985
74.01960365
72.79579826
71.10986541
105.9581057
166.3146619
159.3193954
151.4781464
143.0771235
134.3568914
125.4165313
116.4144389
107.5070385
98.79709649
90.35938409
82.31145817
74.66849928
67.5224663
60.87757941
54.75982159
49.16657238
44.09497147
39.52600662
35.4161158
31.79074338
28.53839355
25.67728357
23.13312933
20.89847042
18.90533452
17.12946466
15.54932778
14.14717903
12.87377813
11.72034544
10.67171587
9.711837521
8.825911063
8.008434354
7.249186432
6.544878781
5.892440416
8.26585829
9.33114177
7.952388088
6.742543673
5.68165217
4.755440805
3.95031215
3.259748796
2.666769504
3.533067676
3.722310331
2.707716634
1.93818086
1.360694836
0.9360558454
1.262458644
0.7994473018
0.4192535872
0.2065038745
0.1574459204
0.08053746911
0.01283833584
8.314733817e-16
-1.100517831e-35
1.088629692e-26
-2.009871882e-26
0
)


101
(
5.34176135e-11
2.987436102e-05
0.00152146811
0.01219742453
0.04786715306
0.1289511421
0.2767549768
0.5180377314
0.876125576
1.376506948
2.041719225
2.895535477
3.952621171
5.239965983
6.764634019
8.52628959
10.52223428
12.76140629
15.14695056
17.74094224
20.40861703
23.04350456
25.66902544
28.17692426
30.45602402
32.43330958
34.05668226
35.28988585
36.13789563
36.60650972
36.72094074
36.50504498
35.96032548
35.20899765
34.25359812
33.11739623
32.57141114
32.89241817
32.16683748
30.75132398
29.15328594
27.50389331
25.86557375
24.26118239
22.69567345
21.18397769
19.73009237
18.34262894
17.02594794
15.78477583
14.62140728
13.53594215
12.52742258
11.59060233
10.7276949
9.937340491
9.218712686
8.563915237
7.967917898
7.424982674
6.929921772
6.477198597
6.060933981
5.676883014
5.322455525
4.993977483
4.686407153
4.397003854
4.122842965
3.862154393
3.613056297
3.374095077
3.144006208
2.921891102
2.712381535
2.511188802
2.310633657
2.112353865
1.919166098
1.73297844
1.555165557
1.38603051
1.226231168
1.078084894
0.9385758137
0.8049829042
0.6791927317
0.5636411769
0.4591309498
0.366799517
0.2852588601
0.21237934
0.1503133698
0.09987562219
0.05965553778
0.02928027501
0.008933599767
0.009462241879
0.01011274862
0.01096972381
0.01127362663
)


101
(
5.283066429e-11
2.447738662e-05
0.001358885631
0.01118637595
0.04452498
0.1209256815
0.2607525716
0.4891368618
0.8281995793
1.301526561
1.930125212
2.735572286
3.73170185
4.941653422
6.373600901
8.027141351
9.899183779
11.99619224
14.24391652
16.67324481
19.19410566
21.70228655
24.19099423
26.5863513
28.78753975
30.71763975
32.32281197
33.56647722
34.44348686
34.96184589
35.14364683
35.01519221
34.58466143
33.91866483
33.04532832
31.99432394
31.1994271
30.91392377
30.39149745
29.36145961
28.0228925
26.55282382
25.06496033
23.60226457
22.1745497
20.79415878
19.46565674
18.18870008
16.96986629
15.81049155
14.71433414
13.68151457
12.71348076
11.80704489
10.95958017
10.17077638
9.439300818
8.765339412
8.144271656
7.572080302
7.045614943
6.560192543
6.111063208
5.696254929
5.313120821
4.958521475
4.628127276
4.319894196
4.031814434
3.760792421
3.505807443
3.264417325
3.036810141
2.819983953
2.614636733
2.420724888
2.23484011
2.054354839
1.878571417
1.708150221
1.544859692
1.38923545
1.241569645
1.102466181
0.9722752128
0.8494925287
0.732600311
0.6225628613
0.52134206
0.4296515993
0.3473914475
0.2741316589
0.2085392306
0.1523816932
0.1058038712
0.06582584857
0.03336492491
0.03646166781
0.03985811211
0.04479187212
0.04609242386
)


101
(
5.224507157e-11
2.090994325e-05
0.001268298142
0.0105803848
0.042292823
0.1150516885
0.2482286636
0.4654252272
0.7876237053
1.236758048
1.832525957
2.594718487
3.536556193
4.678227946
6.028869209
7.588605083
9.354499093
11.33148997
13.46338088
15.76083586
18.16395959
20.57786768
22.97566029
25.30317348
27.47280798
29.40780102
31.05192247
32.36648405
33.33839422
33.97243342
34.28702541
34.30926865
34.05165426
33.5558388
32.84391662
31.89969576
31.12615501
30.59613727
30.07766157
29.3173659
28.26321215
27.01853799
25.70251191
24.37751128
23.07115095
21.80216156
20.57311424
19.38346978
18.23246281
17.12403555
16.05833089
15.03929356
14.06980409
13.14812995
12.27287981
11.44696304
10.66039723
9.921768937
9.229110165
8.578911726
7.97217046
7.405748549
6.875824534
6.381612845
5.921113185
5.491465227
5.091170443
4.71628915
4.369986803
4.047180159
3.746037425
3.463914853
3.202316315
2.957722872
2.728706036
2.515239065
2.315600287
2.127293681
1.948582207
1.777747412
1.615011607
1.460338475
1.314477008
1.176940994
1.047916474
0.9270279037
0.8130721021
0.7047880374
0.6032851779
0.5099877849
0.4249560775
0.3483076883
0.2791852754
0.2173793451
0.1643219987
0.1155843776
0.07146316512
0.07964934491
0.08905348552
0.1058602275
0.1141545689
)


101
(
5.16608293e-11
1.789377903e-05
0.001189035953
0.01002273273
0.04019346284
0.1094852262
0.2363457605
0.442983467
0.7493569522
1.175977042
1.741440405
2.464093091
3.356739938
4.437296586
5.715739282
7.193130184
8.867094311
10.74172982
12.77526487
14.96583277
17.27387622
19.61695928
21.95626142
24.24835834
26.41869851
28.3935111
30.11481147
31.54121083
32.65284658
33.44883796
33.94120309
34.15799639
34.11171882
33.83759096
33.35075862
32.65672854
31.94602638
31.37110467
30.87296139
30.28109946
29.48616248
28.49579287
27.39159885
26.23611423
25.07019155
23.92407146
22.80252416
21.70638309
20.63128146
19.58435865
18.5602427
17.56282798
16.59652168
15.66472341
14.76359578
13.89232372
13.05389907
12.24701203
11.47562905
10.72801476
10.01740735
9.344076209
8.70046836
8.09270257
7.518247758
6.966000193
6.444781752
5.951596695
5.489998847
5.060702723
4.650121369
4.266841378
3.910494843
3.581468551
3.274131705
2.989181409
2.722463079
2.478239908
2.25185333
2.04197539
1.847415695
1.664206116
1.495157092
1.339079216
1.194646611
1.06059041
0.9367020243
0.8215444597
0.7136969496
0.6138760308
0.5224149342
0.4394170875
0.3644071735
0.2963306789
0.2363939997
0.179025946
0.1235518856
0.1443814562
0.1671476696
0.2121558626
0.2219752038
)


101
(
5.10779313e-11
1.515375704e-05
0.001114405229
0.009490680695
0.03818524497
0.104164849
0.2250161555
0.4216748522
0.7131762073
1.118803908
1.656232899
2.342647341
3.190593037
4.216264945
5.430375789
6.835182946
8.429197388
10.21617248
12.16588024
14.26926079
16.50054106
18.79056578
21.09473359
23.37543848
25.56956572
27.60839995
29.43327925
31.0002756
32.28375985
33.27644842
33.98486819
34.42903587
34.62566942
34.60832364
34.38495969
33.96534256
33.44844839
32.96429477
32.54580888
32.11480003
31.56707537
30.85942752
30.02532313
29.11121004
28.15696667
27.20046489
26.25617453
25.33406204
24.42793541
23.54079392
22.66021833
21.78499629
20.92009477
20.07802762
19.25689494
18.43734228
17.62783182
16.83362494
16.07074708
15.28707399
14.49672249
13.7506284
12.99077197
12.25727612
11.5534829
10.84353233
10.14589322
9.460296606
8.777167091
8.158652994
7.527473712
6.918985025
6.330770571
5.782457525
5.25968242
4.766275886
4.302525158
3.870328483
3.458753335
3.084728465
2.744100497
2.437705066
2.150525393
1.894524039
1.662311268
1.453887452
1.263395428
1.096169526
0.9460973173
0.8123977162
0.6923209733
0.5850829191
0.4914957497
0.4078709744
0.334889786
0.2639952588
0.1939560582
0.2508309377
0.3015870525
0.4549978215
0.5180431708
)


101
(
5.049637188e-11
1.262186737e-05
0.00104353281
0.008981899613
0.03626271694
0.09907704748
0.2142077566
0.4014261605
0.6789329193
1.064951945
1.576390213
2.229505675
3.036707133
4.012922347
5.169511077
6.510073127
8.034269796
9.745877165
11.6239262
13.65585005
15.8253014
18.07593816
20.36208897
22.64940012
24.88421947
27.00420993
28.9514916
30.6800676
32.15965398
33.37681385
34.33198987
35.03824025
35.51053352
35.78478358
35.86660269
35.76556253
35.53468724
35.27006932
35.04100172
34.84003005
34.60057137
34.26278807
33.82708728
33.32134864
32.77054746
32.20830612
31.65672421
31.14973898
30.68159492
30.23294268
29.79907751
29.33258971
28.84181163
28.34699486
27.87930266
27.35088598
26.75922146
26.15966056
25.5382082
24.83396845
24.07207788
23.31384863
22.47217414
21.56958551
20.66970037
19.72637626
18.74041452
17.73152041
16.67454091
15.64512165
14.60780459
13.57665123
12.54486329
11.54392567
10.56487786
9.614516782
8.717620529
7.852195633
7.016170607
6.235516678
5.509578988
4.862622663
4.253843171
3.701868372
3.207656681
2.760289229
2.354986793
1.995496321
1.687068954
1.42400438
1.188886611
0.9830730845
0.813273443
0.6668815358
0.546165158
0.4275232321
0.3147038666
0.5086407002
0.644683283
0.9625589532
1.082035748
)


101
(
4.991614458e-11
1.027629668e-05
0.0009761990187
0.008495434986
0.03442232898
0.09421107598
0.2038930743
0.3821730638
0.6464944818
1.014164728
1.501455719
2.12389205
2.89384606
3.82534087
4.930322426
6.213791322
7.676756491
9.323326972
11.13997497
13.1131428
15.23305311
17.45504732
19.73568996
22.04293583
24.3307517
26.54394861
28.62721302
30.5335222
32.22904916
33.69529813
34.92739619
35.93260461
36.72297314
37.3362944
37.78356068
38.07929763
38.25332213
38.37451742
38.52775053
38.75038765
39.01916091
39.27987669
39.52922601
39.77098788
40.00405222
40.24210562
40.48470237
40.77693538
41.13263825
41.49668772
41.86907479
42.11419319
42.27589874
42.36447495
42.40394422
42.29394506
42.03347454
41.63863392
41.12659846
40.41730722
39.54807875
38.62225395
37.54831244
36.35276194
35.06833737
33.69460032
32.20619367
30.69404414
29.09157416
27.47675102
25.85138469
24.19140721
22.52253645
20.87231143
19.26126954
17.67129017
16.1526432
14.68471007
13.27526488
11.92682919
10.63435733
9.437606647
8.338823436
7.308178987
6.380724494
5.532001014
4.749361383
4.039851145
3.4219408
2.886573061
2.418071076
1.988543151
1.638949448
1.340763791
1.090864132
0.8513539208
0.6120260454
1.051243238
1.309427026
1.805547132
2.002454353
)


101
(
4.93372438e-11
8.106056549e-06
0.0009122633631
0.008030465925
0.03266083475
0.0895570599
0.1940470474
0.3638574117
0.6157404334
0.9662109341
1.431020225
2.025120342
2.760924979
3.65184821
4.710373077
5.942909576
7.351949956
8.94219418
10.70614908
12.63091536
14.71150925
16.9135618
19.19795755
21.53518219
23.8852935
26.20051462
28.43018947
30.52821685
32.45897162
34.20083428
35.74615984
37.10015226
38.27429246
39.30982819
40.23395116
41.07038396
41.84006204
42.60043945
43.45288877
44.44330196
45.5871263
46.84723542
48.17824798
49.55437274
50.94565375
52.33835919
53.69129523
55.02243755
56.38421427
57.64828963
58.76226539
59.63876872
60.32796056
60.74192734
61.02492271
61.09281206
60.83029025
60.30978011
59.57975523
58.57243018
57.32398384
55.94259637
54.32682915
52.58557295
50.72472355
48.77613286
46.71045741
44.56549451
42.32834391
40.0172748
37.72543936
35.40944829
33.14819829
30.90614065
28.68251024
26.50080527
24.39356735
22.35327474
20.39453356
18.50971346
16.71294276
14.99813247
13.4186763
11.91656971
10.54785743
9.263852785
8.093819797
6.999242344
6.025161443
5.158867132
4.388734453
3.674677774
3.081303107
2.56895836
2.121751716
1.69953318
1.218955724
1.894892908
2.26530235
2.901218676
3.197371318
)


101
(
4.875966289e-11
6.102852215e-06
0.0008515981221
0.007586214598
0.03097514752
0.08510561751
0.1846460277
0.346425069
0.5865593511
0.9208778515
1.36471124
1.932572588
2.636977414
3.490969941
4.507534802
5.694464618
7.055825215
8.597128951
10.31582288
12.20078863
14.25070112
16.44004623
18.7351212
21.11020357
23.530245
25.95514461
28.34086973
30.64491122
32.83286787
34.88368436
36.79197935
38.56896907
40.2344611
41.83409498
43.41582923
45.02184972
46.67385801
48.4203188
50.37254057
52.52780747
54.89627674
57.4243315
60.04797771
62.68608698
65.27609987
67.77296122
70.09999122
72.26237836
74.26504122
75.97434945
77.37209882
78.41755397
79.10900614
79.39674561
79.40747736
79.06454832
78.38666125
77.31143814
76.00903703
74.42724868
72.55740614
70.54579869
68.29962558
65.92676587
63.44241751
60.87350136
58.22934312
55.50564171
52.72411305
49.91044409
47.11878097
44.33788359
41.59072047
38.900514
36.26454904
33.69269427
31.18567105
28.76302113
26.44964037
24.21247426
22.06190366
20.01883645
18.09734329
16.28426356
14.58560511
12.98798225
11.52406245
10.13648849
8.873784451
7.728986651
6.690949342
5.733572921
4.901370677
4.173212473
3.519813751
2.883730111
2.168051539
2.976338549
3.415565176
4.115587255
4.494819317
)


101
(
4.818339669e-11
4.259176706e-06
0.0007940810328
0.007161939842
0.02936237185
0.08084798578
0.1756678302
0.3298252402
0.5588499596
0.8779752861
1.30219567
1.845695525
2.521139399
3.341395571
4.319926121
5.465859684
6.78488313
8.283514256
9.963299234
11.81560203
13.84218169
16.02520741
18.33695169
20.75658793
23.25396142
25.79721664
28.35110251
30.88025169
33.35635032
35.76585876
38.11256844
40.42094801
42.72837831
45.09157227
47.5691495
50.21325312
53.04199923
56.0760711
59.37968768
62.8703057
66.5305749
70.26566726
74.0025645
77.60801722
81.00713307
84.13935355
86.89476833
89.26563935
91.2403897
92.76380642
93.84605044
94.49139309
94.68929077
94.4169581
93.70563912
92.65474314
91.29948893
89.55565944
87.5642301
85.32995174
82.83456713
80.19299122
77.39947736
74.4931881
71.49653987
68.44276248
65.38971586
62.29500149
59.19012288
56.07566333
52.99217768
49.94805725
46.96512172
44.05306092
41.21419224
38.44500706
35.75343225
33.15762106
30.67093706
28.27622492
25.96794162
23.76812389
21.67987417
19.70655341
17.83942627
16.06555519
14.42444738
12.87143671
11.42888297
10.11542913
8.893727017
7.765430914
6.75864127
5.863857294
5.054715117
4.226474235
3.287009609
4.166133712
4.658118163
5.355674296
5.755988479
)


101
(
4.760846511e-11
2.567835571e-06
0.000739592697
0.00675691989
0.02781971238
0.07677581895
0.1670916314
0.314010727
0.5325182787
0.8373298566
1.243171725
1.763992065
2.412639756
3.201964566
4.145895401
5.254837405
6.536097068
7.997377183
9.643714347
11.46940533
13.4791028
15.6617853
17.99630109
20.46735683
23.05161856
25.72598565
28.46576714
31.24827691
34.05873057
36.89926879
39.78859663
42.76604475
45.88492024
49.2159163
52.80007399
56.66877228
60.81041223
65.19142671
69.79395714
74.44882625
79.11028011
83.65300929
87.99995037
92.02179124
95.64360147
98.79173505
101.3419762
103.3046163
104.7184087
105.5885652
105.9442902
105.8197999
105.2454547
104.2053012
102.7155963
100.9532458
98.87416026
96.50479225
93.89620814
91.12615756
88.16482939
85.08143708
81.90117403
78.65156207
75.3649017
72.05389805
68.76404172
65.49805179
62.25694274
59.04008269
55.86794293
52.75145761
49.7093202
46.74809796
43.87068134
41.0712892
38.35677145
35.73922586
33.22009517
30.8026612
28.47638344
26.24610034
24.12245128
22.10735181
20.18876558
18.3541687
16.63818375
15.02178348
13.50155688
12.09394076
10.78039748
9.55591466
8.440241608
7.437921501
6.529596391
5.576851785
4.48705284
5.342846863
5.866100229
6.57943538
7.05997997
)


101
(
4.703490185e-11
1.021840387e-06
0.0006880176591
0.006370459393
0.02634448986
0.07288117639
0.1588978037
0.2989375588
0.5074775637
0.7987818429
1.18736556
1.687015718
2.310792347
3.071655989
3.983999317
5.059436033
6.306860174
7.735299652
9.352894922
11.15724536
13.15585738
15.34404082
17.70769664
20.23745987
22.91893088
25.7406155
28.69281911
31.77111794
34.98076181
38.34365012
41.89227547
45.67386804
49.74357863
54.16555545
58.93355488
64.02587377
69.37243183
74.86778526
80.41284192
85.81225648
90.97525224
95.78049172
100.1544445
104.0053577
107.2820515
109.9352583
111.8736165
113.1102508
113.7071797
113.7349494
113.2415852
112.2852601
110.9215911
109.1602044
107.026391
104.6407101
102.0064783
99.15853277
96.13796547
93.01065051
89.77189753
86.45703923
83.0929882
79.69808129
76.29986675
72.92280976
69.58077804
66.29042321
63.05644605
59.8703536
56.74416441
53.68349982
50.69870388
47.79895435
44.98770488
42.26085837
39.6167665
37.06290846
34.60410019
32.24059196
29.9672639
27.78261121
25.69501553
23.7064901
21.80958641
19.98820426
18.26361789
16.63865826
15.10588332
13.66549242
12.31595154
11.05267922
9.887031701
8.823673452
7.859425903
6.83437872
5.655325051
6.486277159
7.048655098
7.773768446
8.316812035
)


101
(
4.646263461e-11
-3.856238128e-07
0.0006392435163
0.006001884307
0.02493413831
0.06915651292
0.15106763
0.2845641661
0.4836494494
0.7621888352
1.134526695
1.614362929
2.214979248
2.949546633
3.832935035
4.877903156
6.094926566
7.494466964
9.087507258
10.87520895
12.86792632
15.06720656
17.46667548
20.06447759
22.85766106
25.84939551
29.05020412
32.4784977
36.16186225
40.13593856
44.43404615
49.0967302
54.16307971
59.65739116
65.49693706
71.59413087
77.81777025
84.0081661
90.01632443
95.6654068
100.8288493
105.4049851
109.3468567
112.6180828
115.2011437
117.0872851
118.2395898
118.6730731
118.4620302
117.7046625
116.4456906
114.7743181
112.775683
110.4625869
107.863003
105.0540463
102.0797533
98.95675526
95.72836614
92.43381871
89.09056077
85.7127166
82.32297512
78.93615977
75.57327792
72.25012865
68.9763481
65.76721701
62.62582894
59.55242964
56.54655525
53.6106786
50.74860537
47.96768927
45.2723984
42.66112724
40.13071454
37.68356609
35.32216133
33.04817424
30.85881027
28.75152705
26.73047782
24.79932261
22.9539485
21.17861405
19.48229414
17.87682401
16.36040319
14.92580329
13.57153431
12.30017311
11.1182838
10.02911833
9.037199512
7.976127761
6.756377581
7.575684755
8.183067537
8.922178321
9.501344279
)


101
(
4.589165699e-11
-1.66120334e-06
0.0005931606083
0.005650541917
0.02358619076
0.06559468433
0.143583607
0.2708518777
0.4609606047
0.7274199665
1.084425675
1.545673082
2.124651496
2.834818063
3.691548166
4.708694677
5.898354763
7.272544126
8.844918897
10.62082372
12.61275717
14.82901919
17.27187543
19.94995949
22.87470512
26.06591805
29.55691734
33.38701248
37.60022354
42.2345978
47.30702642
52.82727992
58.7957672
65.18252437
71.82232423
78.57179136
85.25860399
91.70021843
97.73401523
103.2019988
107.9883562
112.0295009
115.3015353
117.8096341
119.5798548
120.6493481
121.0312443
120.7439732
119.8637991
118.4842608
116.6604826
114.4891512
112.0630894
109.4027452
106.5400314
103.5239657
100.3956161
97.17893244
93.90002679
90.59320453
87.27733464
83.96005995
80.6546285
77.3750144
74.13493555
70.94308513
67.80795506
64.73812406
61.73984585
58.81440992
55.95953654
53.17448149
50.45988722
47.81873989
45.25467791
42.7684448
40.35833731
38.02522025
35.76947555
33.59119538
31.48909433
29.46177879
27.51198305
25.6429296
23.85299318
22.12973905
20.47346673
18.89696257
17.40336199
15.98801613
14.64349885
13.37804922
12.19221913
11.09537244
10.09104281
9.015317985
7.776411588
8.599209213
9.249186773
10.01434511
10.61388671
)


101
(
4.532196346e-11
-2.811383779e-06
0.0005496615096
0.005315801465
0.02229827109
0.06218883709
0.1364292614
0.2577645796
0.4393431523
0.6943555045
1.036860786
1.480617306
2.039317323
2.726751665
3.558842133
4.550495101
5.715454054
7.067461581
8.622744564
10.39123113
12.38751646
14.62777975
17.12457602
19.89888431
22.97932648
26.40253454
30.22102086
34.48497242
39.24179278
44.51891889
50.30767892
56.56721724
63.23143753
70.22670415
77.31986291
84.33758957
91.09387209
97.41252225
103.1452811
108.1561539
112.3701299
115.741749
118.2801338
120.0316257
121.0564624
121.4130919
121.1502154
120.3091452
118.9521828
117.1575309
114.9927239
112.5418314
109.8895223
107.0717453
104.1198701
101.0647517
97.93621335
94.76041088
91.5535645
88.34210394
85.14256888
81.96419295
78.81277389
75.69747938
72.62659702
69.60568692
66.64054859
63.73669058
60.89907035
58.13073359
55.43026614
52.79568302
50.22653046
47.72216795
45.28381411
42.91278752
40.60950167
38.37712065
36.21501594
34.1222088
32.09571846
30.13494337
28.24444099
26.42692388
24.6815103
23.00062449
21.37907835
19.82740546
18.35085433
16.95150554
15.61722678
14.35814744
13.17050963
12.0686026
11.05679991
9.972613323
8.722173234
9.566245708
10.25282781
11.06625176
11.68044491
)


101
(
4.47535489e-11
-3.842474268e-06
0.0005086365065
0.004997051469
0.02106810645
0.0589324881
0.1295891093
0.2452685091
0.4187350683
0.6628873561
0.9916501551
1.418896019
1.958533299
2.624719903
3.433964019
4.402205482
5.54481065
6.877391517
8.418817134
10.18371599
12.18995078
14.46266823
17.02734822
19.91630159
23.17715329
26.86052733
31.026154
35.72061454
40.98168471
46.81428812
53.1754491
59.97163383
67.06986424
74.35887278
81.57124596
88.53152661
95.06083749
101.0043794
106.245139
110.6787559
114.2543449
116.964945
118.8459576
119.9577216
120.3836081
120.2017575
119.4834772
118.2810083
116.6427672
114.6366255
112.3286487
109.7869173
107.0825897
104.2618392
101.3536362
98.38082299
95.36466081
92.32531962
89.27318355
86.22732293
83.20217095
80.20689198
77.24515489
74.32092352
71.43918674
68.60241342
65.81471788
63.0797706
60.40130027
57.78295217
55.22430122
52.72483351
50.28375288
47.89939867
45.57018883
43.29531203
41.07704573
38.92046739
36.82939765
34.80160542
32.83146694
30.91726356
29.0653919
27.28039137
25.56150807
23.90412517
22.30183889
20.76209515
19.28902371
17.89309945
16.5599901
15.29714716
14.10217303
12.98848916
11.96432652
10.86934397
9.607454775
10.49110396
11.21596404
12.1242904
12.80027868
)


101
(
4.418640567e-11
-4.760670431e-06
0.0004700079557
0.004693696509
0.0198934989
0.05581946488
0.123048561
0.2333320593
0.3990777731
0.6329170508
0.9486289797
1.360238546
1.881897696
2.528166186
3.316185441
4.26294071
5.3853681
6.701124276
8.231901081
9.996267055
12.0188462
14.33383173
16.98212353
20.00306867
23.46117578
27.41579501
31.92039061
37.00316003
42.68224545
48.93203518
55.66796547
62.75543754
70.02092762
77.32081232
84.3845419
91.05681691
97.17756532
102.615749
107.2859475
111.1232836
114.1074427
116.2589487
117.6186445
118.2590725
118.2735018
117.748038
116.7641123
115.3790372
113.6381683
111.5938467
109.3018012
106.8175897
104.1990537
101.4923995
98.72711634
95.92212152
93.09253036
90.25222245
87.40711027
84.56928343
81.75047502
78.9599342
76.20122349
73.47583939
70.78573751
68.13098701
65.5146167
62.93854618
60.40647252
57.92142627
55.48496251
53.09807069
50.76074657
48.47254544
46.23056731
44.03038029
41.87243134
39.76545083
37.71744046
35.7287985
33.79288585
31.90384378
30.06671523
28.29127258
26.57748291
24.92210093
23.31763784
21.7721025
20.28426689
18.87347433
17.52684417
16.24368281
15.02875225
13.89118565
12.84285813
11.72831215
10.44659521
11.40289851
12.18803285
13.26338184
14.0749554
)


101
(
4.362052867e-11
-5.572011475e-06
0.0004336535836
0.004405162173
0.01877234448
0.05284391024
0.1167939297
0.221925877
0.3803133404
0.6043434107
0.9076502936
1.304411577
1.809067926
2.436588253
3.204779316
4.131698676
5.235883349
6.537301164
8.060915353
9.829419438
11.87582725
14.24364747
16.98838431
20.15348145
23.81246917
28.02711099
32.83211115
38.22470873
44.19895263
50.69595048
57.59221596
64.73159084
71.93180522
79.02427484
85.75503284
91.99919699
97.62527725
102.527365
106.64753
109.9548615
112.4521801
114.1784974
115.1794738
115.5286005
115.3167038
114.6285057
113.5477333
112.1347333
110.435431
108.4877878
106.3341687
104.0175823
101.5846823
99.0771528
96.52431504
93.94412694
91.34795045
88.74498575
86.13714265
83.53031958
80.933405
78.35482142
75.79981926
73.26971124
70.7641308
68.28171187
65.82347524
63.39086374
60.98759465
58.6170931
56.28162544
53.98313751
51.72374809
49.50540749
47.3260712
45.17924408
43.06109634
40.97950028
38.94759561
36.97127039
35.04597082
33.16080318
31.31659149
29.52664363
27.79473386
26.12021699
24.49042477
22.91813659
21.39561643
19.94860323
18.57025396
17.24783462
15.99547397
14.81825969
13.73097714
12.58396498
11.27019378
12.35388262
13.24731406
14.58792209
15.56496288
)


101
(
4.305591279e-11
-6.282362778e-06
0.0003994825518
0.004130890884
0.01770262056
0.0500002501
0.110812321
0.2110230205
0.3623905273
0.577077048
0.8685925713
1.251193688
1.739749759
2.349581937
3.099187242
4.007747533
5.095484509
6.385054068
7.905258991
9.683978272
11.76260771
14.194417
17.04197488
20.35432298
24.2000653
28.63696651
33.67526867
39.27476675
45.40223846
51.97122662
58.83263096
65.82375432
72.77498889
79.51596461
85.81806733
91.58008046
96.70226264
101.1046056
104.749227
107.6291013
109.7671944
111.2133631
112.0131514
112.2349945
111.9599406
111.2641532
110.2276028
108.9110341
107.361292
105.6080864
103.6814944
101.6118105
99.43439352
97.18453951
94.8904847
92.57057029
90.23525645
87.89051039
85.535793
83.17160853
80.80234956
78.43595692
76.07919498
73.73497126
71.40273251
69.07979856
66.76547115
64.46063994
62.16903358
59.8951191
57.6410901
55.41030504
53.20593689
51.03275165
48.89229438
46.77833745
44.68238151
42.60797101
40.57007862
38.58141307
36.64341592
34.74241647
32.87219713
31.04469475
29.27192563
27.55699285
25.88112912
24.25989724
22.6825542
21.17748468
19.74701096
18.36524687
17.05837684
15.8234937
14.68275075
13.48834361
12.12947751
13.42081869
14.50289295
16.23513607
17.56349925
)


101
(
4.249255044e-11
-6.897471326e-06
0.0003673918194
0.003870340916
0.01668237561
0.04728315532
0.105091599
0.2005973281
0.345259487
0.5510333057
0.8313158397
1.200404911
1.673652893
2.266750699
2.998869532
3.89041519
4.963443595
6.243664164
7.764338934
9.559474439
11.67815675
14.18208188
17.13401958
20.5840806
24.5851214
29.18361825
34.3681682
40.06501251
46.20909946
52.69374074
59.36371822
66.0624174
72.64017678
78.94815779
84.78931887
90.07400667
94.73189652
98.70802494
101.9779488
104.5497776
106.4584228
107.7584316
108.4931029
108.7235106
108.5175527
107.9388091
107.0584578
105.933924
104.6121403
103.1207571
101.4813338
99.71257618
97.83821888
95.88545714
93.87994586
91.84115894
89.78087515
87.70380559
85.60842338
83.49120023
81.35149263
79.19543925
77.03026097
74.86117942
72.69113674
70.51532329
68.33261886
66.14264425
63.94860161
61.75713566
59.57044997
57.39153003
55.22431137
53.07662765
50.95435036
48.85435544
46.7656968
44.68520533
42.62512365
40.60413993
38.63452098
36.69874713
34.78599829
32.90213407
31.06579181
29.29027773
27.55084605
25.85990172
24.20818146
22.62377142
21.12113629
19.66272919
18.2845993
16.97537596
15.76747913
14.51299904
13.09850141
14.70600416
16.09522762
18.38737736
20.28325822
)


101
(
4.193043745e-11
-7.423186726e-06
0.0003373326534
0.003622989111
0.01570973791
0.04468758689
0.0996205798
0.19062516
0.3288745078
0.5261350154
0.7956976772
1.151901576
1.610526275
2.187716698
2.903343912
3.77916009
4.839218244
6.112528702
7.637465681
9.454638657
11.61987409
14.19959347
17.25143265
20.81781012
24.92911795
29.61539767
34.84987745
40.53432012
46.57276099
52.85129774
59.22465017
65.54951408
71.69437676
77.53564851
82.91910112
87.76602685
92.02776327
95.66794086
98.66954388
101.0485395
102.8444683
104.1118919
104.8906577
105.2337134
105.1965755
104.8289947
104.1893634
103.3281112
102.2908246
101.1058375
99.79113934
98.35722659
96.81702087
95.18772756
93.49030555
91.74463224
89.96543642
88.15803571
86.32223829
84.45228412
82.54286132
80.59606086
78.61868785
76.61667085
74.59959975
72.56147888
70.50150793
68.41811514
66.31311653
64.19506167
62.06615755
59.92997037
57.7904025
55.65587627
53.53615725
51.43398153
49.33756352
47.24035376
45.15080083
43.08291515
41.0647683
39.07737671
37.10802216
35.15407831
33.23614499
31.38192332
29.56354069
27.78674492
26.04414861
24.36231609
22.76992972
21.21978106
19.75855893
18.35965423
17.07637076
15.7535521
14.28123262
16.34172837
18.19918185
21.2765125
23.97553503
)


101
(
4.136963654e-11
-7.86436258e-06
0.0003091746345
0.003388326107
0.01478289865
0.04220870551
0.09438822797
0.1810839423
0.31319438
0.5023116471
0.7616254353
1.105530928
1.550149744
2.11217215
2.812215033
3.673538745
4.722435978
5.991254102
7.523911519
9.367520707
11.58288897
14.23535978
17.37296627
21.02506919
25.1975198
29.89932618
35.08997195
40.65929567
46.4930608
52.48006485
58.49531789
64.41424652
70.12013638
75.50274642
80.4583107
84.92413858
88.86648321
92.26088331
95.09305139
97.38023015
99.16114758
100.486419
101.3916026
101.922602
102.1242631
102.033485
101.694766
101.1485342
100.4358833
99.58596012
98.61704887
97.53630066
96.34829221
95.05961231
93.6841145
92.24006861
90.74449909
89.20568632
87.62657314
86.0024607
84.32362419
82.58784127
80.79901818
78.96203868
77.09162508
75.18618415
73.24381945
71.26374612
69.24614087
67.19765545
65.12257339
63.02491854
60.91017176
58.78524192
56.66024773
54.54406856
52.42806369
50.30834113
48.18272993
46.06138356
43.97968593
41.93097662
39.89433271
37.86309376
35.84849866
33.90223228
31.99481405
30.12208923
28.27880609
26.48828116
24.79461619
23.14088705
21.58567096
20.08956218
18.72977309
17.33475434
15.8091783
18.50597206
21.05326001
25.19934767
28.98990849
)


101
(
4.081007203e-11
-8.226840141e-06
0.0002828434154
0.003165859025
0.01390011913
0.0398419157
0.08938433583
0.1719522749
0.2981808621
0.479500604
0.7289970176
1.061126214
1.492308643
2.039828506
2.725118383
3.573125604
4.612700838
5.879736517
7.423220456
9.295405303
11.55934159
14.27388984
17.47363121
21.17476114
25.36024678
30.01454901
35.08066021
40.44816454
46.00539381
51.65042871
57.27793098
62.78434107
68.0719411
73.03998345
77.62365005
81.77629707
85.47528765
88.70492188
91.45228022
93.73028617
95.57291475
97.02449516
98.11555623
98.88550193
99.37079094
99.59827453
99.5995563
99.40352236
99.04334415
98.54684641
97.93426997
97.21369277
96.38549526
95.44731982
94.40420894