/*--------------------------------*- C++ -*----------------------------------*\
| =========                 |                                                 |
| \\      /  F ield         | OpenFOAM: The Open Source CFD Toolbox           |
|  \\    /   O peration     | Version:  2.3.1                                 |
|   \\  /    A nd           | Web:      www.OpenFOAM.org                      |
|    \\/     M anipulation  |                                                 |
\*---------------------------------------------------------------------------*/
FoamFile
{
    version     2.0;
    format      ascii;
    class       dictionary;
    location    "constant";
    object      rCH3O2;
}
// * * * * * * * * * * * * * * * * * * * * * * * * * * * * * * * * * * * * * //

rCH3O2_table
101
(

101
(
-6.047018414e-11
4.355745905e-06
0.0002271435084
0.001834517245
0.0073254064
0.02013538447
0.04447145429
0.08649349638
0.1524380075
0.2502585077
0.3882177435
0.5757560261
0.8256633647
1.143223407
1.540944114
2.030884166
2.61626477
3.264127545
4.060262504
4.814114032
5.654558523
6.570079753
7.318119581
7.96174728
8.50555277
8.908590675
9.150215279
9.228154632
9.070873046
8.694738718
8.077297426
7.241871536
6.26655146
4.819346111
3.202976185
1.357682428
1.74233217
3.897327097
1.542459816
-0.9757248633
-3.57966514
-6.227676063
-8.894485137
-11.54383249
-14.15376911
-16.6818463
-19.12416618
-21.42592205
-23.5938052
-25.57796264
-27.38520627
-28.99098903
-30.38872621
-31.56908196
-32.52607023
-33.26933763
-33.75265881
-34.04882547
-34.11040304
-33.98051256
-33.64030876
-33.13718966
-32.47451483
-31.66044803
-30.69853859
-29.63230663
-28.46701313
-27.21609755
-25.89733176
-24.53381761
-23.13473554
-21.71957097
-20.30018532
-18.90081947
-17.61879488
-16.27031272
-14.83178537
-13.43385383
-12.0857363
-10.79357341
-9.56759267
-8.41366833
-7.345114791
-6.404438777
-5.436036304
-4.52085223
-3.694133021
-2.956945682
-2.314718948
-1.794231557
-1.290731418
-0.8770260389
-0.5613170423
-0.3128549631
-0.1434940167
-0.03532196653
-2.817281652e-13
-1.251612105e-30
1.51587004e-23
-1.152391112e-23
0
)


101
(
-5.998088494e-11
1.636754338e-06
0.0002051730012
0.001713102717
0.006832975174
0.01866269015
0.0409063634
0.07885188841
0.1377643967
0.2241617594
0.3446592247
0.5066007233
0.7202364754
0.9886008122
1.320930939
1.726039395
2.205101894
2.729626548
3.364648806
3.96918372
4.622375804
5.335989728
5.938233774
6.443829865
6.870512019
7.199129529
7.414997834
7.51674584
7.461533326
7.245093298
6.854463346
6.293562952
5.598898489
4.603345759
3.372355067
1.921837301
1.429523007
2.228724907
1.521814405
-0.1713149232
-2.148407094
-4.208393152
-6.26809763
-8.30809954
-10.31659103
-12.25924039
-14.1315282
-15.90409723
-17.56786532
-19.09897
-20.49110018
-21.73216998
-22.81698935
-23.75144756
-24.52339723
-25.12627131
-25.54343034
-25.80182852
-25.89448606
-25.83683691
-25.63044054
-25.29158496
-24.83346142
-24.26471181
-23.59216788
-22.82769779
-21.98781841
-21.08250413
-20.12310699
-19.12315834
-18.09237561
-17.04157356
-15.98043665
-14.92400759
-13.90986846
-12.91456214
-11.89575882
-10.8657996
-9.849633181
-8.866082901
-7.92693534
-7.036347503
-6.19989228
-5.435899993
-4.719019046
-4.025971399
-3.371348939
-2.774507726
-2.241052966
-1.779282186
-1.377114719
-1.016015449
-0.7122300411
-0.4713039476
-0.2809426173
-0.1388434364
-0.04286774591
-0.0427056854
-0.04293543486
-0.04377693999
-0.04474258804
)


101
(
-5.94940571e-11
-8.976927762e-07
0.0001844614747
0.001598614268
0.006372266389
0.01729743004
0.03763355323
0.07191327759
0.1245777496
0.2009618883
0.3063549425
0.4464560163
0.6295359971
0.8571553089
1.136083894
1.472979639
1.868035222
2.297071852
2.809438424
3.302120557
3.821506491
4.391100742
4.893604126
5.320255984
5.690715308
6.002072409
6.247600495
6.427946927
6.517967412
6.50642977
6.382175257
6.140803114
5.792469488
5.248908397
4.478073432
3.501115755
2.962035999
3.169489091
3.019461881
2.163032986
0.8763723348
-0.6066250333
-2.12453627
-3.640213948
-5.15245671
-6.631231489
-8.069585893
-9.455587768
-10.77549947
-12.0164174
-13.1693195
-14.22475607
-15.17281096
-16.01600126
-16.75554346
-17.38506028
-17.8940618
-18.28464687
-18.55414816
-18.71141074
-18.75490727
-18.69436003
-18.53892896
-18.29083381
-17.95583494
-17.54099022
-17.05733045
-16.51039621
-15.90565116
-15.25568213
-14.56589929
-13.84466074
-13.0954105
-12.33088697
-11.56917917
-10.81743147
-10.06377771
-9.298702237
-8.524769521
-7.756059854
-7.008982781
-6.292571194
-5.610511273
-4.970375292
-4.375154223
-3.814336595
-3.276114154
-2.76807615
-2.304303759
-1.889334797
-1.521841658
-1.198152723
-0.9077176941
-0.6624111285
-0.4627372031
-0.2912741331
-0.1507386774
-0.155962654
-0.1616725838
-0.1698002262
-0.1778341238
)


101
(
-5.900970021e-11
-3.254205436e-06
0.0001649550912
0.00149066412
0.005941181118
0.0160315108
0.03462809308
0.06561015509
0.1127207818
0.1803220313
0.2726395285
0.394085445
0.5513852912
0.7451841312
0.9804097363
1.262289104
1.590727874
1.945578068
2.364288415
2.772728021
3.196316797
3.663043738
4.096721986
4.479930505
4.829969895
5.155020781
5.456386042
5.737608982
5.98533663
6.187584866
6.332816894
6.414144947
6.426419539
6.319919895
6.027650387
5.484892564
5.24260789
5.35117306
5.446942014
5.206166508
4.572644151
3.678558559
2.683180472
1.646219573
0.5832329265
-0.4782325986
-1.535989587
-2.5801191
-3.608333333
-4.605885481
-5.571557737
-6.492089648
-7.356266879
-8.163050598
-8.913521428
-9.599028897
-10.22577679
-10.78121514
-11.25772904
-11.66206094
-11.98407187
-12.22758703
-12.39803027
-12.49418577
-12.51955542
-12.47900621
-12.37375213
-12.20946603
-11.97873105
-11.69401932
-11.36161437
-10.9861471
-10.56524558
-10.10796737
-9.625151756
-9.125895727
-8.61333909
-8.083107322
-7.530666519
-6.959190375
-6.381822057
-5.813105093
-5.259763227
-4.72713974
-4.220782431
-3.742765201
-3.287396071
-2.847082592
-2.432008882
-2.05207689
-1.708317292
-1.401126054
-1.125100762
-0.878198312
-0.6695127028
-0.4776383405
-0.3014773364
-0.3191991201
-0.3369569737
-0.3581749753
-0.37871471
)


101
(
-5.85278139e-11
-5.439217437e-06
0.0001466026067
0.001388889021
0.005537767357
0.01485747043
0.0318672523
0.05988167111
0.1020532443
0.1619454592
0.2429343321
0.3484267846
0.4839408453
0.6495957876
0.8489635123
1.086315612
1.361676262
1.658589989
2.005507949
2.349996149
2.704581037
3.097475917
3.482824309
3.842803766
4.191779048
4.544567743
4.909581684
5.294308437
5.693919959
6.098748743
6.495677678
6.879145163
7.234546632
7.533725137
7.713329625
7.713196953
7.776568547
8.044738132
8.388511597
8.588977112
8.520226446
8.197920748
7.728560452
7.172228085
6.554275731
5.904177292
5.223073548
4.519107181
3.789233123
3.048879889
2.292222388
1.529697736
0.7740653862
0.03358501941
-0.69613844
-1.413867719
-2.108955389
-2.783051866
-3.421485571
-4.037335367
-4.607899341
-5.127513683
-5.601171178
-6.020303944
-6.387898332
-6.71631558
-6.995033714
-7.221511981
-7.386521123
-7.491653963
-7.554146311
-7.566462592
-7.524487118
-7.427504745
-7.284618015
-7.101900126
-6.887812651
-6.636713009
-6.348233534
-6.01899037
-5.65368176
-5.268474299
-4.872709467
-4.472893454
-4.076214172
-3.688261339
-3.311721959
-2.94113414
-2.577277672
-2.232596866
-1.913466275
-1.620580683
-1.354203292
-1.109737424
-0.8950165728
-0.6894788871
-0.4874023379
-0.5209630884
-0.5531248392
-0.5819831703
-0.6118444264
)


101
(
-5.804839767e-11
-7.45900954e-06
0.0001293551933
0.001292948585
0.005160209479
0.01376842828
0.02933030129
0.05467304322
0.09245030785
0.1455715394
0.2167378079
0.3085734296
0.4256497018
0.5678311392
0.7377068299
0.9389001739
1.17177488
1.423183344
1.714796492
2.010311784
2.314737945
2.654198655
3.004606463
3.351896056
3.708275408
4.092263506
4.517868998
4.996868598
5.531398036
6.116016199
6.739082963
7.390564629
8.055951182
8.716285633
9.316930949
9.803261731
10.26840663
10.82533105
11.45721776
12.04443932
12.46744429
12.68305258
12.73894878
12.67843408
12.52389962
12.30323476
12.02242131
11.6941924
11.31229875
10.88338981
10.39722633
9.858409436
9.279987878
8.678010433
8.051841241
7.390403213
6.705955474
6.000490811
5.295434992
4.564003818
3.824118386
3.10718537
2.396193924
1.712876368
1.061060083
0.4201589246
-0.2025510291
-0.7993996852
-1.361255541
-1.856509453
-2.323968533
-2.75244436
-3.136905708
-3.462271974
-3.732681413
-3.949100014
-4.116318482
-4.234557093
-4.30684391
-4.317474057
-4.26501018
-4.154997154
-4.009231365
-3.826570464
-3.617700764
-3.388652958
-3.148730356
-2.892726046
-2.6212844
-2.342870526
-2.073611704
-1.815509083
-1.570490567
-1.339471512
-1.12752049
-0.916676294
-0.6979090133
-0.7387258201
-0.7693523459
-0.7294070125
-0.7026417897
)


101
(
-5.757145141e-11
-9.319706424e-06
0.0001131663061
0.001202523793
0.00480681853
0.01275803862
0.026998328
0.04993483213
0.08380048378
0.1309700702
0.1936119623
0.2737431996
0.3751880942
0.4977394237
0.6432853936
0.8149944832
1.013665991
1.229051845
1.477735783
1.73527993
2.002652718
2.302792348
2.626746767
2.965803339
3.331068522
3.743050847
4.219913042
4.777298157
5.423252951
6.157632243
6.972021491
7.855007285
8.791393008
9.765808641
10.73465087
11.6488803
12.52975726
13.44262693
14.40727854
15.37014178
16.2431843
16.96284769
17.53600739
17.98367559
18.31791613
18.55938225
18.71593184
18.80840707
18.83194208
18.78317159
18.65224541
18.42935175
18.12521365
17.76015052
17.34649045
16.85967128
16.30337126
15.68658098
15.02655639
14.30406349
13.53364854
12.7431213
11.91875719
11.07386888
10.23121167
9.374044603
8.496087981
7.606129377
6.710276996
5.845932564
5.00359216
4.181729411
3.37891577
2.611058978
1.883944446
1.205456582
0.5848464792
0.009444209361
-0.5228210517
-0.9910824785
-1.383709656
-1.684823922
-1.926587771
-2.104757772
-2.220073082
-2.285580962
-2.310465658
-2.292252299
-2.220804014
-2.102951832
-1.966295117
-1.816651012
-1.64812217
-1.475330439
-1.300797518
-1.114385012
-0.9066617544
-0.8717146623
-0.7861739637
-0.2975663688
0.06751740649
)


101
(
-5.709697436e-11
-1.102728396e-05
9.799148796e-05
0.001117315367
0.004476025525
0.01182047547
0.02485420911
0.04562279988
0.0760045379
0.1179381944
0.1731755536
0.2432629049
0.3314318415
0.4375181784
0.5629247692
0.7104784613
0.8814201117
1.068000375
1.283006949
1.510618438
1.749936854
2.020349806
2.322915159
2.654420453
3.025671531
3.458251435
3.973389978
4.589981049
5.320987582
6.171877384
7.139015852
8.212485123
9.377211083
10.61814176
11.90210525
13.18662494
14.45942188
15.74722619
17.07230334
18.41312995
19.71211702
20.90739649
21.98544663
22.94656454
23.79160181
24.53223082
25.17039595
25.72810958
26.20865725
26.60541916
26.90786378
27.09298025
27.17032021
27.15638795
27.06589696
26.88007068
26.59689876
26.21089293
25.74109041
25.16849012
24.50733169
23.78735496
22.99750212
22.14899568
21.25832684
20.32257992
19.32390287
18.27928189
17.17923427
16.06038465
14.93510814
13.79258022
12.63707708
11.47502651
10.32091498
9.180096308
8.084026092
7.021092476
5.98723637
4.988797094
4.041891642
3.188080157
2.424143037
1.721659988
1.112473137
0.5769047885
0.1049073374
-0.3075009406
-0.6202721777
-0.8455169182
-1.003280169
-1.1289093
-1.17440555
-1.179170479
-1.147202488
-1.078622718
-0.9865668937
-0.5230091936
0.09515284981
2.161796585
3.696506444
)


101
(
-5.662496649e-11
-1.258758376e-05
8.378827765e-05
0.00103704256
0.004166370438
0.01095037343
0.0228824068
0.0416973802
0.06897417447
0.1062972799
0.1550965677
0.2165543501
0.2934271219
0.3856604196
0.4943315574
0.621992064
0.7702710438
0.9335309833
1.121741536
1.325266132
1.542632146
1.789718056
2.073714058
2.396327915
2.768477986
3.212257274
3.751219017
4.406905149
5.196173884
6.129784045
7.209843734
8.430533822
9.778704141
11.23795707
12.78412417
14.38032457
16.00033505
17.64671267
19.33351369
21.04894087
22.75733987
24.40814072
25.97421326
27.44199102
28.80464939
30.06713367
31.22470341
32.2928546
33.28196809
34.18236645
34.97886247
35.65323261
36.20804169
36.64263979
36.98539031
37.22501068
37.34199863
37.32905407
37.20398009
36.94519042
36.56226673
36.08210122
35.4861426
34.80189669
34.03919098
33.20708691
32.2833166
31.26347925
30.13804277
28.91771135
27.65256549
26.32629598
24.97332679
23.56762351
22.10207516
20.59684072
19.08983249
17.58377591
16.07699011
14.55409818
13.04609781
11.58059187
10.21784034
8.885739193
7.64832052
6.465376234
5.385833793
4.335317977
3.417855946
2.619246655
1.920351512
1.273457362
0.7837178994
0.3869521525
0.05981371533
-0.179483728
-0.4692688585
1.338161808
3.42683559
9.117383567
13.57205619
)


101
(
-5.615542687e-11
-1.400631752e-05
7.051603094e-05
0.0009614421153
0.003876494
0.01014276813
0.02106868233
0.03812281758
0.0626305077
0.09588934145
0.1390844727
0.1931174771
0.2603588855
0.3408963542
0.4355981471
0.5467788811
0.6763706723
0.8204835715
0.9870017052
1.17066493
1.370168854
1.598159433
1.864999435
2.17651424
2.543830612
2.989101978
3.537475246
4.2125421
5.034087269
6.017355439
7.170311568
8.493110652
9.977151089
11.60481907
13.35819136
15.20649301
17.12001793
19.08813926
21.11566069
23.18900491
25.28346447
27.3595623
29.38828911
31.34670277
33.22168282
35.01231947
36.70917947
38.32066469
39.85223296
41.29586703
42.64038634
43.87202929
44.98190496
45.96214845
46.83570361
47.59286919
48.22924727
48.71058382
49.06984957
49.28101958
49.33675491
49.27157694
49.05579717
48.71868954
48.26835312
47.71637293
47.0559207
46.2592145
45.31827917
44.23534926
43.0510727
41.76077734
40.38076306
38.91512528
37.34514013
35.67512251
33.91931162
32.11496721
30.28488292
28.36454453
26.37277291
24.38290047
22.43920191
20.51979631
18.60632264
16.70683155
14.9357322
13.1303132
11.43574226
9.865668886
8.384281136
6.975288068
5.756216483
4.696110797
3.698962655
2.815365166
1.760903076
6.539076804
11.47367838
22.83378678
32.13153568
)


101
(
-5.568835582e-11
-1.528906352e-05
5.813583994e-05
0.0008902674783
0.003605136395
0.009393087003
0.01939999516
0.03486667156
0.05690339003
0.08657590208
0.1248864113
0.1725203874
0.2315299752
0.3021537947
0.3851333683
0.4825693634
0.5965969476
0.7247402124
0.8733335551
1.040153953
1.224458722
1.436105011
1.686547464
1.984582246
2.341596468
2.779317842
3.323722723
3.999863697
4.829640682
5.831859118
7.019625271
8.399487974
9.969495236
11.71365825
13.61855271
15.65884299
17.80660211
20.04500144
22.36987679
24.76485865
27.21070678
29.67576976
32.13234608
34.55327697
36.92112935
39.22949134
41.46422144
43.62596043
45.71311966
47.72157609
49.64399653
51.47174943
53.19007359
54.78368868
56.2532924
57.61157896
58.85915397
59.94913358
60.90982529
61.72074886
62.3593963
62.85371103
63.18993814
63.37421745
63.40935805
63.30696784
63.10019078
62.73619479
62.21230885
61.49983611
60.62938477
59.60288607
58.45166143
57.17485334
55.75218117
54.15432246
52.39922096
50.53989885
48.59566256
46.51108761
44.26302589
41.94442042
39.5842902
37.22381732
34.77671662
32.21945077
29.77697866
27.2577006
24.75637581
22.38433504
19.98944527
17.66515199
15.53002465
13.58438772
11.67920262
9.780555754
7.414561056
17.34510384
26.44636513
43.95563831
54.18020134
)


101
(
-5.522374467e-11
-1.644128931e-05
4.661034696e-05
0.0008232865304
0.003351122292
0.008697098388
0.0178643931
0.031899563
0.05173007977
0.07823480171
0.112281392
0.1543899677
0.2063446117
0.2685289209
0.3416139195
0.42750164
0.528426553
0.6430294401
0.776484802
0.9286255969
1.099422322
1.296459932
1.530940653
1.813303132
2.155271543
2.577580896
3.106121895
3.766947483
4.583499691
5.57717319
6.765125018
8.159748933
9.766650455
11.57449187
13.57446535
15.74571621
18.06377533
20.51003151
23.07442732
25.7387913
28.48701033
31.29329662
34.13087604
36.97245205
39.79801297
42.5947499
45.3432893
48.03829883
50.67528853
53.24960662
55.75466622
58.18511917
60.52945236
62.76549961
64.88016264
66.90427466
68.8150525
70.5868538
72.22333228
73.72827094
75.06366419
76.24141221
77.25506564
78.10123517
78.78891603
79.31131602
79.7003955
79.94714628
80.02724542
79.901753
79.58185742
79.0598583
78.37148628
77.52240406
76.49709511
75.24640652
73.78188836
72.15732458
70.35482184
68.38317292
66.19203017
63.8206215
61.33207632
58.78711825
56.06456689
53.0835095
50.13958738
47.12845506
44.02196124
40.9047201
37.69033057
34.51746352
31.4446272
28.54815909
25.67550362
22.61946941
18.74171552
34.87675355
48.12664826
70.77818284
81.52409853
)


101
(
-5.476158096e-11
-1.746834692e-05
3.590367731e-05
0.0007602810087
0.003113356001
0.008050884951
0.01645089835
0.0291948477
0.04705459188
0.07075812296
0.1010759454
0.138403786
0.1842941588
0.2392603834
0.3039397316
0.3800476975
0.4698260381
0.572763095
0.6931650687
0.8321883192
0.9904921998
1.173919022
1.392591619
1.657361725
1.980041962
2.380099938
2.882712829
3.514323112
4.299364522
5.260865404
6.418861245
7.79056026
9.38880433
11.20856145
13.24700296
15.48780484
17.91018904
20.49585965
23.23155524
26.10018529
29.08789982
32.17436048
35.33256151
38.53550923
41.7621717
44.99581949
48.21487215
51.40772704
54.56565936
57.68344091
60.75232689
63.76877776
66.7255245
69.6009257
72.37805025
75.07652395
77.67803736
80.15782665
82.51598937
84.75810416
86.85100608
88.7895809
90.57001953
92.17843448
93.61837451
94.90226314
96.02467463
97.00059493
97.82304486
98.4334004
98.84246932
99.02550652
98.98998474
98.76426479
98.34597883
97.69370801
96.77517167
95.62469586
94.26238428
92.66880096
90.80264447
88.68494253
86.36999951
83.91047093
81.26059062
78.22684953
75.04150109
71.79718609
68.39930933
64.82247394
61.04919425
57.29757306
53.54165502
49.82806027
46.1412571
42.03407361
36.78194028
59.04245494
74.53936518
97.79985409
101.8642533
)


101
(
-5.430188424e-11
-1.837547686e-05
2.598132265e-05
0.0007010453292
0.002890815952
0.007450823076
0.01514940653
0.02672825681
0.04282716332
0.06405125657
0.09110042454
0.1242827674
0.1649434472
0.2137030051
0.2711893673
0.3389444409
0.4191497227
0.511905142
0.6208434056
0.7479125751
0.8942777247
1.064520738
1.267315273
1.51305011
1.813159676
2.185515679
2.654110517
3.245210268
3.983717505
4.893386118
5.995920498
7.312168624
8.861251461
10.64435528
12.66574008
14.91466272
17.37459449
20.02879654
22.8625888
25.86186116
29.0149015
32.3066652
35.71106709
39.20202791
42.75686584
46.35626395
49.97962058
53.61047107
57.23818973
60.8550556
64.44371484
68.0022594
71.53209061
75.01045078
78.41920459
81.76525048
85.04702655
88.22718019
91.311168
94.29193919
97.15337072
99.86995729
102.4405816
104.8523382
107.1068247
109.2005933
111.1219153
112.8953578
114.5036538
115.9303391
117.1533762
118.1507618
118.8883175
119.3994764
119.6962119
119.7534647
119.5379537
119.0551454
118.2840935
117.2578392
115.9119127
114.2766006
112.3510557
110.1996219
107.869149
105.1077992
101.9892482
98.77264685
95.38708165
91.74536384
87.75294778
83.76406596
79.65103597
75.54083756
71.33460675
66.53880891
60.38693244
85.9507441
99.36670467
116.7699537
109.3385322
)


101
(
-5.384465376e-11
-1.916782175e-05
1.681004049e-05
0.0006453856971
0.002682548502
0.006893563422
0.0139506677
0.0244777566
0.0390031088
0.05803071816
0.08220656557
0.1117858274
0.1479215201
0.1913145222
0.2425989992
0.3031551581
0.3750618635
0.4588342958
0.5575490923
0.6735944544
0.8083441555
0.9655289154
1.152273739
1.378004809
1.653302368
1.994053493
2.42255838
2.964258527
3.644082256
4.485983502
5.51229195
6.745817453
8.210308831
9.912859423
11.86500328
14.06274974
16.49488781
19.14747478
22.00547792
25.05629489
28.2920907
31.70475448
35.27013578
38.96346155
42.76023942
46.63872484
50.58117456
54.56774043
58.58746152
62.62962224
66.67154622
70.70794096
74.74421262
78.75852321
82.73607266
86.67615717
90.57858133
94.41252664
98.16800283
101.8423672
105.4255811
108.8823201
112.1999227
115.3813734
118.4238301
121.2984606
124.0085673
126.5444632
128.9264808
131.1293651
133.1261922
134.9047793
136.409159
137.6533815
138.6461641
139.3775096
139.8547141
140.0230372
139.868109
139.4251809
138.6066183
137.4723751
136.015574
134.2501945
132.2552195
129.8829879
127.079123
124.0226852
120.8448049
117.4235372
113.4842204
109.6301207
105.3808292
101.2577132
96.93592463
91.88169105
85.08440294
108.4735894
113.750834
118.8899826
98.20281269
)


101
(
-5.338988949e-11
-1.985042394e-05
8.357784663e-06
0.0005931194448
0.002487663366
0.006376004057
0.01284621676
0.02242333752
0.03554229144
0.05262277239
0.07426615756
0.1007036278
0.1329113807
0.1716402314
0.2175391301
0.271835554
0.3364747792
0.4122325782
0.5016934739
0.6074110782
0.7307657532
0.8749147382
1.04553502
1.250740953
1.49995366
1.806743918
2.191136753
2.677062531
3.289004332
4.050813977
4.984827807
6.11420938
7.464970463
9.049160447
10.88529684
12.97667829
15.31865231
17.90139116
20.71043303
23.73349163
26.96721237
30.40918488
34.04022296
37.84007296
41.78427332
45.84564544
50.00675699
54.24945103
58.56227026
62.93183064
67.33701281
71.7649235
76.2157581
80.6727145
85.12422622
89.56349759
93.98827239
98.37811225
102.7097423
106.979116
111.1711371
115.2620454
119.2223843
123.0638554
126.7728327
130.3098767
133.6772241
136.8583074
139.8728043
142.6895316
145.2877178
147.6625234
149.7452321
151.5482125
153.0539221
154.2395253
155.1570001
155.7415601
156.0076271
155.9147822
155.4175251
154.5822054
153.3739355
151.839759
150.0501052
147.8825454
145.3126642
142.4024662
139.3599041
136.1689851
132.3682446
128.7640013
124.6304398
120.6585081
116.5448704
111.4133139
104.1417883
119.0258383
110.6474653
99.06191436
58.50626915
)


101
(
-5.29375917e-11
-2.042822905e-05
5.936181126e-07
0.000544074126
0.002305330332
0.005895280908
0.0118283142
0.02054682635
0.03240858971
0.0477621916
0.067167951
0.09085478564
0.1196414758
0.1542979016
0.195489093
0.2442976643
0.302507263
0.3710342981
0.4520105438
0.5479289929
0.6601113381
0.7912613103
0.9458395979
1.130377845
1.353037584
1.624899658
1.963073033
2.389320996
2.927155968
3.60001916
4.429822804
5.438978565
6.653687927
8.089111087
9.769622581
11.70587596
13.90060014
16.34954825
19.04002398
21.95939201
25.10630071
28.48478297
32.08262197
35.88568391
39.87235439
44.01172874
48.28469819
52.67264404
57.1632634
61.74452908
66.39961836
71.10836831
75.86094401
80.64406471
85.44320029
90.2487968
95.05961868
99.86112818
104.6206853
109.3296355
113.9706024
118.5193021
122.9442007
127.2479689
131.4002156
135.3873054
139.1764399
142.7462339
146.1103297
149.2397502
152.1257133
154.7437252
157.0418527
159.0188915
160.6467042
161.8869148
162.7718708
163.3285418
163.5205918
163.3214598
162.7058367
161.6999531
160.2640571
158.5246908
156.5031149
154.1547039
151.4557826
148.4231032
145.2281886
142.0054226
138.2628668
134.7241492
130.7828413
126.9334727
123.0915496
118.0089266
110.5760962
111.1124681
86.14744107
57.99811487
7.390514784
)


101
(
-5.248775866e-11
-2.090609521e-05
-6.512598328e-06
0.0004980865058
0.002134773282
0.005448747324
0.01088988486
0.01883172724
0.02956912001
0.04339065081
0.06081525331
0.08208303259
0.1078794239
0.1389641898
0.1760138389
0.219975528
0.2724452593
0.3343971663
0.4075450948
0.4940949788
0.5953836456
0.7136498453
0.852376538
1.016399223
1.212561105
1.449529104
1.741086242
2.106177942
2.566721538
3.145296302
3.863015901
4.740931362
5.803970704
7.068312384
8.562226576
10.30304406
12.30099216
14.55820063
17.06525854
19.80980823
22.79106818
26.01793061
29.48371085
33.18349756
37.10276028
41.20977686
45.48165236
49.89569581
54.4407955
59.10480341
63.87543775
68.7313235
73.65264845
78.62182517
83.62069031
88.63284182
93.65644655
98.68003448
103.6701381
108.6096333
113.4755405
118.2373213
122.8663455
127.3457367
131.6381796
135.7374401
139.5875784
143.1680342
146.4719069
149.4872376
152.1871824
154.5393421
156.5126997
158.0909173
159.2414356
159.9376165
160.2042933
160.0423501
159.4816682
158.5116068
157.1182551
155.2639911
152.9929724
150.4127982
147.5647877
144.4405835
141.0675892
137.4704498
133.7280315
130.0885155
126.1950522
122.4288036
118.534117
114.7637211
111.0462806
106.0192784
98.53915615
82.10975302
42.27037617
2.540926582
-49.90512527
)


101
(
-5.204039064e-11
-2.128878972e-05
-1.29895679e-05
0.00045500249
0.001975268632
0.005033960867
0.0100244725
0.01726313307
0.02699379748
0.03945482375
0.05512395246
0.0742547064
0.09742797125
0.1253646813
0.1587419834
0.1983817905
0.2456782243
0.3016071645
0.3675190029
0.4452025811
0.535959496
0.6415606601
0.7646756241
0.9085810747
1.07874368
1.281650618
1.527630558
1.832223968
2.215049716
2.697229716
3.298785511
4.039262657
4.941417009
6.020530626
7.306120165
8.820559742
10.58109639
12.59704397
14.86401068
17.37077968
20.11592408
23.11051451
26.35256563
29.84639884
33.5872789
37.54713589
41.70152059
46.02105446
50.49209014
55.10206763
59.84168427
64.69053143
69.62482992
74.61884366
79.64609533
84.6833458
89.71698109
94.73760645
99.71429753
104.6235573
109.4265845
114.0950814
118.5888337
122.8749714
126.9113024
130.6843523
134.1349437
137.2304326
139.9493261
142.2823202
144.184821
145.6473127
146.635317
147.1195794
147.078133
146.4999619
145.3881218
143.7553312
141.6882445
139.1889481
136.2576269
132.8625805
129.0880722
125.0573282
120.7614773
116.3483554
111.8245277
107.2469393
102.6441353
98.30616135
94.03339544
89.93288856
85.93850164
82.22624275
78.64366079
73.85133301
66.75959423
35.15402702
-13.16788567
-56.07229511
-99.26031646
)


101
(
-5.159548792e-11
-2.158099501e-05
-1.886534583e-05
0.0004146762499
0.001826140736
0.004648664847
0.009226182357
0.01582759768
0.02465569217
0.03590709882
0.0500205929
0.06725425957
0.08811840663
0.1132686357
0.1433674816
0.1791221449
0.2217183439
0.2720947135
0.3313003117
0.4006816017
0.4813727309
0.5747012992
0.6825231307
0.8069218195
0.9519109458
1.122109162
1.324566863
1.571037559
1.878143693
2.264901747
2.749900498
3.351123561
4.0888547
4.976148775
6.041401634
7.309338314
8.802972495
10.53855713
12.51805429
14.73319872
17.18207934
19.87567345
22.8140153
26.00833234
29.46493993
33.16439129
37.08378159
41.18761917
45.45603463
49.87178507
54.42699045
59.10348301
63.87607905
68.71268578
73.57539798
78.42961056
83.24566709
88.01088905
92.68948906
97.25513739
101.6602139
105.8676702
109.8246597
113.483384
116.7950757
119.7317983
122.2392825
124.272413
125.7945114
126.7925631
127.2287629
127.1031103
126.3782821
125.0333501
123.0662647
120.4756675
117.2749021
113.4811247
109.2135711
104.5244339
99.45430184
94.00297342
88.25017222
82.35309812
76.34956664
70.34828578
64.51166918
58.87040335
53.42962439
48.46632807
43.89913898
39.61726697
35.79184176
32.40550134
29.27291514
25.14787232
19.33879711
-21.28186339
-68.72441475
-105.9648925
-132.3264906
)


101
(
-5.115304879e-11
-2.178731229e-05
-2.416719126e-05
0.0003769694809
0.001686757753
0.004290771731
0.008489631476
0.01451289773
0.02253047955
0.03270480118
0.04543777607
0.06098354543
0.07980351031
0.1024762186
0.1296302812
0.1618696557
0.2001708611
0.2454004014
0.298368617
0.3600073734
0.4311687959
0.5127549282
0.6058180102
0.7115019091
0.8324153429
0.9716138592
1.133319827
1.325437147
1.560948482
1.85605324
2.227473964
2.691677074
3.266396811
3.962108871
4.803952064
5.816110222
7.024948208
8.453069915
10.10944818
11.99066137
14.09501996
16.43181255
19.00068453
21.81652633
24.89470307
28.22633121
31.79597641
35.56522021
39.50502861
43.58889631
47.80648337
52.1394334
56.5636822
61.04429144
65.53174224
69.97475291
74.32393104
78.55629534
82.6262472
86.50246668
90.13316825
93.46791451
96.4446172
99.00070479
101.0779339
102.6329608
103.6173778
103.9813407
103.6799922
102.7047982
101.0240201
98.64185974
95.54385147
91.73199377
87.22413751
82.04517989
76.23947908
69.82810309
62.96311606
55.76276251
48.33541723
40.69177294
32.92884953
25.24447822
17.72422675
10.41739253
3.609661589
-2.662551731
-8.408027424
-13.42833423
-17.72188831
-21.49598215
-24.5553486
-26.94787258
-29.01303094
-31.62746447
-34.89232961
-75.83928673
-113.49755
-138.7821375
-145.9075328
)


101
(
-5.071307414e-11
-2.191228074e-05
-2.892263396e-05
0.0003417511998
0.001556529981
0.00395835289
0.007809915114
0.01330805542
0.02059647283
0.0298101022
0.04131567896
0.05535838199
0.07235717669
0.09281523872
0.1173110425
0.1463552636
0.1807184331
0.2211593831
0.2683060555
0.3227401589
0.3849713491
0.4554591173
0.5345246574
0.6224850955
0.7206740817
0.8308350341
0.9549476908
1.09731336
1.266847885
1.476397396
1.740347529
2.073337394
2.490798429
3.000750306
3.623774497
4.38143673
5.300164388
6.407112813
7.7178259
9.234818034
10.95862422
12.89692986
15.04691159
17.4227195
20.04480001
22.91460479
26.02731008
29.34687167
32.83790002
36.45992179
40.19211498
44.01301423
47.89816156
51.81410388
55.70242808
59.49447577
63.11597416
66.52764021
69.66721947
72.49617522
74.95884799
76.99601905
78.53854304
79.51315016
79.84970426
79.49746753
78.412736
76.5518856
73.87494566
70.3827657
66.05798883
60.92759287
55.00959078
48.33782972
40.96399096
32.95408446
24.39343986
15.33613096
5.980827909
-3.527884935
-13.00954939
-22.4074397
-31.61036017
-40.39336138
-48.61891362
-56.32849036
-63.18418059
-69.10891614
-74.11684007
-78.12702981
-81.14962131
-83.3797356
-84.73672526
-85.22866022
-85.37002458
-85.47642746
-84.90250392
-118.1970123
-140.4645768
-151.5277356
-141.9091625
)


101
(
-5.02755435e-11
-2.196114135e-05
-3.315626551e-05
0.0003088968541
0.001434905151
0.003649622703
0.007182511729
0.01220314391
0.01883443327
0.02718955002
0.03760124721
0.05030329464
0.06567137184
0.0841403469
0.1062262627
0.1323555924
0.1631044744
0.199088632
0.2407926423
0.2885277569
0.3424553879
0.4025580117
0.4685247582
0.5399362188
0.6170054701
0.7003543015
0.7902093937
0.8878301706
0.9980728054
1.129985907
1.295147663
1.506052911
1.775674878
2.110156476
2.525439585
3.038754003
3.673750133
4.458800958
5.415307197
6.551874553
7.872606961
9.384531775
11.08183622
12.97510663
15.08418529
17.41715788
19.97982825
22.74502526
25.67381675
28.71281083
31.82477916
34.97594929
38.13933392
41.28250557
44.34386363
47.24012304
49.8741096
52.18124678
54.07913323
55.51627241
56.43551839
56.77358636
56.46034925
55.42087523
53.57677995
50.87851688
47.29196634
42.79157676
37.359277
31.01577358
23.77395018
15.69589818
6.84692606
-2.690360382
-12.81962267
-23.42771004
-34.37090446
-45.55065366
-56.73243412
-67.72822974
-78.34130818
-88.44825629
-97.93129843
-106.5684527
-114.1604519
-120.8753746
-126.3850694
-130.6231985
-133.590307