/*--------------------------------*- C++ -*----------------------------------*\
| =========                 |                                                 |
| \\      /  F ield         | OpenFOAM: The Open Source CFD Toolbox           |
|  \\    /   O peration     | Version:  2.3.1                                 |
|   \\  /    A nd           | Web:      www.OpenFOAM.org                      |
|    \\/     M anipulation  |                                                 |
\*---------------------------------------------------------------------------*/
FoamFile
{
    version     2.0;
    format      ascii;
    class       dictionary;
    location    "constant";
    object      rCH3O;
}
// * * * * * * * * * * * * * * * * * * * * * * * * * * * * * * * * * * * * * //

rCH3O_table
101
(

101
(
-6.882328702e-12
-1.314937729e-05
-0.0008151473063
-0.007375112625
-0.03079652024
-0.08526786224
-0.1850095214
-0.3471138132
-0.5850950184
-0.9136139679
-1.345895325
-1.896637799
-2.579156092
-3.411337512
-4.407032051
-5.581328153
-6.947966773
-8.513005548
-10.28738059
-12.24646258
-14.39164284
-16.69606009
-19.08973332
-21.53434215
-23.97460814
-26.3408629
-28.56708646
-30.59526208
-32.35543467
-33.81027637
-34.92583452
-35.69675275
-36.17574874
-36.18893423
-35.89835195
-35.30963274
-69.89603688
-128.8300146
-123.4798842
-117.3359567
-110.6645307
-103.726852
-96.55796515
-89.31354278
-82.14454361
-75.11794168
-68.31406377
-61.82193647
-55.66607559
-49.91900503
-44.59009003
-39.6990264
-35.24423957
-31.22217564
-27.61555792
-24.38878862
-21.5581516
-19.03537031
-16.83138521
-14.88649508
-13.19303888
-11.6957594
-10.37535215
-9.213453834
-8.194124384
-7.280659673
-6.465051497
-5.735296115
-5.079142961
-4.48470861
-3.94769042
-3.459932499
-3.018748205
-2.620080596
-5.225186621
-6.527049914
-5.393521451
-4.42011387
-3.586435483
-2.877836071
-2.279715428
-1.78502488
-1.37523168
-2.407412549
-2.761498451
-1.90202225
-1.273996534
-0.8241643236
-0.5126039442
-0.9345350842
-0.5604506933
-0.2546450383
-0.1007013934
-0.09801598813
-0.05355062299
-0.006141438735
3.8809084e-13
2.720567161e-31
-1.067975266e-22
9.269232019e-23
0
)


101
(
-6.779996135e-12
-2.687993502e-06
-8.606163834e-05
-0.0004322899553
-0.001098689146
-0.001988717936
-0.002980468985
-0.004023240256
-0.005060509239
-0.006082327573
-0.007070340264
-0.008026509791
-0.008937297275
-0.009857320851
-0.01079178247
-0.0117380739
-0.01267857352
-0.01366691411
-0.01469174949
-0.01568880212
-0.01684115064
-0.01806490624
-0.01928422958
-0.02056409034
-0.02188520701
-0.02319543238
-0.02451400443
-0.02577107397
-0.0267743744
-0.02766854208
-0.0286490407
-0.02982551845
-0.031234149
-0.03163167
-0.03118548187
-0.02672729401
-0.03203301695
-0.05289304666
-0.05703863507
-0.05525516266
-0.052694323
-0.04939044379
-0.04601470605
-0.04243144378
-0.03892982731
-0.03587983101
-0.03321314919
-0.03071427274
-0.02861061474
-0.02652009241
-0.02429964124
-0.02185847339
-0.0194531147
-0.01731061825
-0.01576903371
-0.01451460792
-0.01333207156
-0.01215787951
-0.01111699522
-0.01022428987
-0.009339080805
-0.008485908377
-0.007680900419
-0.006949372947
-0.006294102686
-0.005791909218
-0.005282704596
-0.004789773434
-0.004350501361
-0.003989617753
-0.003618833257
-0.003387974119
-0.003256039429
-0.002854029278
-0.002457779112
-0.002395187705
-0.002104240752
-0.001859924804
-0.001642516745
-0.00137252232
-0.001180992492
-0.0009919254681
-0.0008001085663
-0.0006807369833
-0.0005866425381
-0.000476655731
-0.0003707483821
-0.0002712164333
-0.0001930514852
-0.0001441992695
-9.912734417e-05
-6.324364849e-05
-3.55529805e-05
-1.861883084e-05
-1.13775471e-05
-9.715349933e-06
-1.003489138e-06
-3.671371001e-06
-9.901450121e-06
-0.0001250504792
0.0003174451209
)


101
(
-6.676819595e-12
-6.291571745e-07
-9.973492222e-06
-2.960948369e-05
-5.219403862e-05
-7.631773267e-05
-0.0001062269446
-0.0001473873006
-0.0002049418093
-0.0002841156998
-0.0003883747237
-0.0005231993871
-0.000694679344
-0.0009133656405
-0.001185707142
-0.001526816895
-0.001941347744
-0.002445606823
-0.003052302217
-0.00375836752
-0.004636613128
-0.005760911036
-0.007085409599
-0.008586082503
-0.01024238329
-0.01211259376
-0.01424029772
-0.01651364338
-0.01881617475
-0.02116216224
-0.02377541341
-0.02705481337
-0.03115732308
-0.03478336895
-0.0369915642
-0.03835033984
-0.0401587018
-0.04217722724
-0.04583523319
-0.04982014465
-0.05345164779
-0.05494179878
-0.05582282546
-0.05620846553
-0.05593281756
-0.05564194945
-0.0555779707
-0.05527438815
-0.05514354657
-0.05476679463
-0.0540041125
-0.05241632367
-0.05013099567
-0.04779930965
-0.0458179731
-0.04406720241
-0.04217417703
-0.04016997653
-0.03806952791
-0.03601918964
-0.03399101282
-0.03190868275
-0.02960665716
-0.02743069469
-0.0255290344
-0.02385104401
-0.02205655728
-0.02030394576
-0.01871094077
-0.01712503823
-0.01574423507
-0.01416619466
-0.01318612007
-0.01206751859
-0.01075089504
-0.009589676262
-0.00857730773
-0.007663656345
-0.006887321526
-0.006022210281
-0.005281943652
-0.004564339244
-0.00395824233
-0.003338815895
-0.002781314861
-0.002261034465
-0.001855016254
-0.001483416743
-0.001160292375
-0.000874381789
-0.000641076046
-0.0004389013448
-0.0003018319135
-0.0001948527666
-0.000121803778
-7.703570071e-05
-2.785552068e-05
-7.757704143e-05
-0.0002189421256
-0.001546539733
0.0006231492617
)


101
(
-6.572793214e-12
-1.817869379e-07
-1.69719999e-06
-5.037663578e-06
-1.285321785e-05
-2.926357806e-05
-5.880800777e-05
-0.0001056195961
-0.0001748369634
-0.0002724893586
-0.0004041393321
-0.0005782657881
-0.0008030865434
-0.001097077747
-0.001471056185
-0.001948040697
-0.002544891064
-0.003283682217
-0.004203011205
-0.005304553151
-0.006668851641
-0.008437989024
-0.01059973251
-0.01313797753
-0.01603735109
-0.01936443485
-0.02324591464
-0.02763115099
-0.03238000629
-0.03743495573
-0.04296176851
-0.04944896768
-0.05752514492
-0.0661439192
-0.07351625723
-0.07025359783
-0.08596091991
-0.09257223269
-0.09865165027
-0.1108446564
-0.1210852037
-0.1286060622
-0.135267853
-0.1407677765
-0.1451111149
-0.1493935069
-0.1537055401
-0.1577824365
-0.1612676489
-0.1643227247
-0.1663021174
-0.1670797883
-0.1664670522
-0.1643810422
-0.1619461032
-0.1608208662
-0.1567134429
-0.1529952218
-0.1486214279
-0.1435231392
-0.1381040959
-0.1322223978
-0.1255740895
-0.1187059898
-0.1119604932
-0.1051412593
-0.09835136685
-0.09039226351
-0.08368993544
-0.07709113857
-0.07087886816
-0.06413408965
-0.05840356247
-0.05276824569
-0.04714477318
-0.04199046248
-0.03721191566
-0.03255396991
-0.0286405873
-0.02514703391
-0.02209068192
-0.0189993134
-0.01635457955
-0.01391652484
-0.01180313904
-0.009826890172
-0.008046329373
-0.006536956681
-0.005225034872
-0.004130076445
-0.003174803407
-0.002374796952
-0.001719798502
-0.001222784427
-0.000830265613
-0.000539195073
-0.0002766262088
-0.0008542818193
-0.002556244021
-0.01133176495
-0.01242175873
)


101
(
-6.46791113e-12
-7.803000822e-08
-7.687822938e-07
-3.516168247e-06
-1.162384971e-05
-2.940395386e-05
-6.205455456e-05
-0.000114803006
-0.0001946589439
-0.0003098886157
-0.0004693920469
-0.0006855480384
-0.0009718717377
-0.001353695317
-0.001851197321
-0.002499354264
-0.003329277953
-0.004381711946
-0.005717761229
-0.007374464836
-0.009443436322
-0.01210675146
-0.01548861611
-0.01957560375
-0.02440864174
-0.03007349
-0.03681379069
-0.04469208923
-0.05363862855
-0.06363998724
-0.07442228918
-0.08760733948
-0.1028049187
-0.1206841329
-0.1381759851
-0.1554219797
-0.1730417189
-0.1918473584
-0.2134080412
-0.2386089296
-0.2649692787
-0.2900727132
-0.3152014559
-0.3391039733
-0.3624142216
-0.3866790934
-0.4106776505
-0.4339421306
-0.4561717962
-0.4801041912
-0.5029397483
-0.5240848832
-0.5425560552
-0.5591749175
-0.5732794538
-0.5849875757
-0.5952808437
-0.6032381168
-0.6092726954
-0.6067220911
-0.6026075814
-0.5967586611
-0.5847609084
-0.5716096833
-0.5570273348
-0.5346068078
-0.5112230517
-0.4843855449
-0.4565752939
-0.4302688221
-0.3971254811
-0.364862102
-0.3331499233
-0.3034217605
-0.2727884599
-0.2433143425
-0.2127626097
-0.1856522857
-0.1602057984
-0.1376357104
-0.1183222474
-0.09928733816
-0.08300835252
-0.06899896896
-0.05692821741
-0.04604529086
-0.03687123449
-0.02945928746
-0.02335303335
-0.01824826221
-0.01399728066
-0.01061524649
-0.007943193172
-0.005853432836
-0.004259968755
-0.002893390988
-0.001718976787
-0.009097388379
-0.01891000417
-0.05172147883
-0.05178288932
)


101
(
-6.362167472e-12
-5.187528078e-08
-6.597692512e-07
-3.464529288e-06
-1.194128855e-05
-3.089563831e-05
-6.652861708e-05
-0.0001254428642
-0.0002169040892
-0.0003518965258
-0.000543542506
-0.00080927142
-0.001170095559
-0.001658946712
-0.002310544859
-0.003175872095
-0.004306438155
-0.005772966544
-0.00767193069
-0.01008469134
-0.01314868752
-0.0171201955
-0.02222146913
-0.02857956922
-0.03633582984
-0.04568374658
-0.05697236939
-0.07054301361
-0.08653112666
-0.1050757276
-0.1263267204
-0.150798304
-0.1796993626
-0.2144640902
-0.2519453052
-0.2924164145
-0.3358225285
-0.3828997879
-0.4361419243
-0.498397297
-0.5673046454
-0.6420755661
-0.7232222336
-0.810433919
-0.9033244082
-1.002816533
-1.108462617
-1.221701215
-1.341963186
-1.472064159
-1.605055534
-1.736837264
-1.865150092
-1.994840457
-2.12458952
-2.240316983
-2.346469921
-2.447458242
-2.551622096
-2.616408433
-2.649454277
-2.691463165
-2.690883532
-2.681711078
-2.667242117
-2.618737906
-2.553126816
-2.468513944
-2.353497439
-2.263291941
-2.131742326
-1.99237636
-1.842453528
-1.699355498
-1.550976374
-1.402548615
-1.256255503
-1.114946549
-0.970170984
-0.8393885706
-0.7213742012
-0.6187791456
-0.5188843594
-0.433112455
-0.3562855226
-0.2897497529
-0.2293197715
-0.181107121
-0.1411876669
-0.1093704387
-0.08312947299
-0.06138196779
-0.04554510143
-0.03309772075
-0.02397117556
-0.01614857372
-0.01022498797
-0.04772934474
-0.0810816385
-0.2215374024
-0.2818614289
)


101
(
-6.255556452e-12
-4.37563324e-08
-6.436425507e-07
-3.508576032e-06
-1.231641078e-05
-3.240713481e-05
-7.104440428e-05
-0.0001364144842
-0.0002408327057
-0.0003980400107
-0.0006262463479
-0.0009499834299
-0.001398912404
-0.002017830952
-0.002859836251
-0.003997724173
-0.005515205793
-0.007522053574
-0.01017098997
-0.01361261855
-0.01805633806
-0.02386929943
-0.03148706103
-0.0412102758
-0.05338530016
-0.0684346296
-0.08688493382
-0.1094859431
-0.1369154549
-0.1697412896
-0.2085397614
-0.2541144164
-0.3079707643
-0.3739926803
-0.4504402854
-0.5379763868
-0.6377788654
-0.7523008471
-0.8867041987
-1.048273812
-1.239508405
-1.460628601
-1.713580367
-2.004511207
-2.329086392
-2.682915303
-3.065617963
-3.491144152
-3.956704244
-4.447354305
-4.965091732
-5.466365171
-5.952057132
-6.43090012
-6.927454961
-7.364172659
-7.736555299
-8.096477589
-8.422062667
-8.659042828
-8.825689239
-8.972740426
-9.017583632
-8.977878217
-8.910092207
-8.773892298
-8.572241955
-8.322049307
-7.99596105
-7.659535885
-7.28066376
-6.874734986
-6.435894285
-5.992503624
-5.535109598
-5.069963219
-4.62132399
-4.170884143
-3.718183794
-3.287710982
-2.880508286
-2.521433911
-2.175564728
-1.860522925
-1.578390555
-1.321540876
-1.087694396
-0.8817344195
-0.7102636857
-0.5702854247
-0.4467919726
-0.3410936968
-0.2601433428
-0.1939915606
-0.1448477339
-0.09789611008
-0.05963040604
-0.2283300395
-0.3459225481
-0.6539416847
-0.7952677002
)


101
(
-6.148072154e-12
-3.989353084e-08
-6.377081922e-07
-3.556762806e-06
-1.26896904e-05
-3.391520353e-05
-7.556531685e-05
-0.0001476303213
-0.0002664400537
-0.0004483561755
-0.0007179872796
-0.001108074666
-0.001660454926
-0.002434245468
-0.003509246184
-0.004985570218
-0.006992482709
-0.009696085805
-0.0133224961
-0.01813341719
-0.02444922504
-0.03280565875
-0.04396927323
-0.05846777062
-0.07700523203
-0.1004675725
-0.1298004085
-0.166392535
-0.2118510938
-0.2678879049
-0.336319617
-0.4193692195
-0.5205631955
-0.6469114013
-0.8029372669
-0.9952204136
-1.228367493
-1.509774266
-1.855497378
-2.279861599
-2.791772609
-3.391997485
-4.094154321
-4.903916954
-5.807110474
-6.784946337
-7.813739907
-8.909727404
-10.08092087
-11.27669955
-12.50546305
-13.64299922
-14.72587829
-15.7531921
-16.73927392
-17.59064402
-18.30544495
-18.90239046
-19.38842351
-19.69007902
-19.83618705
-19.91702391
-19.84375296
-19.63723637
-19.32357295
-18.90282856
-18.35513352
-17.76555418
-17.06890203
-16.33120736
-15.55008557
-14.70443271
-13.81876972
-12.91908275
-12.02228797
-11.10908302
-10.2235509
-9.348672358
-8.494042098
-7.66204168
-6.847061677
-6.085284746
-5.382444759
-4.713481938
-4.109096016
-3.549653192
-3.026001904
-2.547721682
-2.131167173
-1.772476672
-1.459631909
-1.167990918
-0.9357013725
-0.7398034533
-0.5788789282
-0.4262806958
-0.2773428398
-0.6831844973
-0.9228888156
-1.373823635
-1.614867335
)


101
(
-6.039708827e-12
-3.705398863e-08
-6.322669388e-07
-3.599266973e-06
-1.305346625e-05
-3.544832873e-05
-8.024470254e-05
-0.0001594465173
-0.0002940354474
-0.0005034850998
-0.000820140628
-0.001286768789
-0.001960256873
-0.00291923958
-0.004275626368
-0.006168436601
-0.008787854493
-0.01237479877
-0.01726493653
-0.02385377373
-0.03266040556
-0.04447668423
-0.06050259609
-0.08164564686
-0.1091048639
-0.1445612939
-0.1900154469
-0.2482075372
-0.3225945101
-0.4174364407
-0.5380307857
-0.6912824224
-0.8864586391
-1.137886769
-1.466325404
-1.888144063
-2.414421999
-3.065636402
-3.882071757
-4.871492726
-6.051103327
-7.421263756
-8.95851852
-10.65394786
-12.47939223
-14.39761352
-16.34838664
-18.31746457
-20.34157469
-22.29514267
-24.1368525
-25.78945544
-27.30021882
-28.57809636
-29.74894022
-30.73112218
-31.41505933
-31.87672991
-32.15315029
-32.1850125
-32.00067964
-31.69447628
-31.16942452
-30.5209335
-29.74909038
-28.88090475
-27.89374078
-26.82595488
-25.66541517
-24.42415737
-23.17746926
-21.88504275
-20.61524015
-19.33901993
-18.05606672
-16.78324803
-15.54307326
-14.32721582
-13.15115771
-12.01046127
-10.91351146
-9.851169845
-8.869864254
-7.925454395
-7.062960772
-6.240469225
-5.482329998
-4.763324763
-4.116981056
-3.537528551
-3.019346372
-2.526980704
-2.117528253
-1.760955515
-1.446509762
-1.146873061
-0.7919015835
-1.391785405
-1.707559499
-2.093490492
-2.318443375
)


101
(
-5.930460528e-12
-3.447646295e-08
-6.25962324e-07
-3.634118112e-06
-1.339054574e-05
-3.696207439e-05
-8.507705703e-05
-0.0001720426142
-0.0003232729259
-0.0005623771383
-0.0009321906333
-0.001487296829
-0.002303306124
-0.003484053619
-0.005179905768
-0.007582966668
-0.01096621936
-0.01567041872
-0.02217504056
-0.03108738807
-0.04317519362
-0.05955889734
-0.08196638552
-0.1122387205
-0.1520362924
-0.2045466971
-0.2738957404
-0.3655295364
-0.4866781217
-0.6471302824
-0.8603382413
-1.145233856
-1.525556595
-2.026235371
-2.690813439
-3.553002556
-4.632277182
-5.958149814
-7.593435883
-9.497369629
-11.66371824
-14.05647874
-16.62533826
-19.31346026
-22.07159332
-24.84166468
-27.53568519
-30.12663304
-32.60096667
-34.82173638
-36.77819118
-38.43770986
-39.80355355
-40.82781135
-41.62009854
-42.10406366
-42.29534672
-42.14834845
-41.81237397
-41.24706542
-40.44311202
-39.52804349
-38.41754578
-37.2032484
-35.89349332
-34.50751155
-33.0547229
-31.53947205
-29.98364303
-28.40897935
-26.85183593
-25.29867727
-23.76409153
-22.26826579
-20.81166615
-19.40023806
-18.02762406
-16.70130232
-15.44008745
-14.22446159
-13.05842244
-11.94701564
-10.8987834
-9.907260013
-8.98109847
-8.102097147
-7.284337758
-6.499427641
-5.775784967
-5.109415039
-4.499826794
-3.921451293
-3.408923843
-2.949255976
-2.527947962
-2.099852004
-1.593110927
-2.153903445
-2.376686435
-2.28714518
-2.099287781
)


101
(
-5.820321603e-12
-3.198131922e-08
-6.189177123e-07
-3.66519809e-06
-1.372061211e-05
-3.849123499e-05
-9.006150923e-05
-0.0001853089857
-0.0003544717513
-0.0006257167318
-0.001055556717
-0.001711714513
-0.002693257287
-0.004136064973
-0.00623617756
-0.009257377041
-0.0135817335
-0.01968000293
-0.02821639369
-0.04007696197
-0.05641438958
-0.0788391114
-0.1097629784
-0.1525373708
-0.2096724857
-0.287098584
-0.3929089371
-0.537659906
-0.7359259739
-1.008860628
-1.384612275
-1.901196212
-2.605269059
-3.538885405
-4.761006907
-6.314509431
-8.217595856
-10.48439706
-13.14606784
-16.08884814
-19.27091828
-22.59951245
-26.00019847
-29.36394609
-32.63547941
-35.75078713
-38.60023484
-41.14859785
-43.36568316
-45.18398401
-46.61614328
-47.67091795
-48.34779485
-48.63211297
-48.55054365
-48.18884799
-47.5755084
-46.65058579
-45.53327632
-44.23852773
-42.75560866
-41.18238323
-39.51451078
-37.78319631
-36.00436996
-34.20163414
-32.41518843
-30.62088152
-28.84861738
-27.10671892
-25.41913058
-23.78817782
-22.21917947
-20.71822373
-19.29039707
-17.93694692
-16.65524721
-15.44360591
-14.30764619
-13.24085004
-12.23861557
-11.2972727
-10.4147153
-9.587630909
-8.825900815
-8.113265978
-7.441406415
-6.802451174
-6.203431456
-5.649791726
-5.132761786
-4.637662387
-4.179355913
-3.753701099
-3.359269194
-2.911714377
-2.362097828
-2.527869851
-2.400269277
-1.39365972
-0.9830472296
)


101
(
-5.709306676e-12
-2.953171803e-08
-6.107654221e-07
-3.691373625e-06
-1.404347487e-05
-4.00457674e-05
-9.525302547e-05
-0.0001993064339
-0.0003873986038
-0.000693969084
-0.001191380509
-0.00196196118
-0.003134020362
-0.004883446144
-0.007462801242
-0.01122748829
-0.01668997223
-0.02449937234
-0.03556034458
-0.05114331374
-0.07302019195
-0.10352636
-0.1462792111
-0.2066301324
-0.2896458466
-0.4052744391
-0.5675890307
-0.7967976401
-1.120782688
-1.578932876
-2.219136754
-3.09997718
-4.289004498
-5.846936342
-7.821657607
-10.23636847
-13.07972032
-16.3190081
-19.91736329
-23.68458918
-27.54998718
-31.38129385
-35.08516146
-38.54870393
-41.71808528
-44.52403888
-46.85563273
-48.70367543
-50.0888051
-50.99720279
-51.45601963
-51.49928047
-51.16654781
-50.45734496
-49.39318242
-48.12496974
-46.61542534
-44.90449568
-43.03095853
-41.06970706
-39.00873912
-36.9079445
-34.79044564
-32.67951923
-30.59655393
-28.55140034
-26.56956392
-24.65264962
-22.80875012
-21.05080464
-19.38882659
-17.83095531
-16.37471139
-15.01786834
-13.76264264
-12.61357908
-11.56704405
-10.61186797
-9.750305719
-8.976059925
-8.285065133
-7.664366247
-7.106603259
-6.599952843
-6.163017486
-5.790692328
-5.440723062
-5.113965074
-4.812472263
-4.541407421
-4.300641013
-4.0554682
-3.818580069
-3.587787821
-3.372962535
-3.080528925
-2.67864411
-1.989591237
-1.227451273
1.004592559
1.966270095
)


101
(
-5.597440927e-12
-2.712150598e-08
-6.017550862e-07
-3.713622805e-06
-1.435822525e-05
-4.162130222e-05
-0.0001007066393
-0.0002141752626
-0.0004215496311
-0.0007660959197
-0.001340847744
-0.002240426063
-0.003631663727
-0.005741625838
-0.008889637056
-0.01354059237
-0.02035445631
-0.03021094652
-0.04435915271
-0.06465839194
-0.09378495539
-0.1352098802
-0.1944001927
-0.2791781037
-0.3991561295
-0.571438098
-0.8205306714
-1.181352181
-1.700385903
-2.43810257
-3.459971635
-4.83750193
-6.644804799
-8.940633141
-11.73212942
-14.99238185
-18.65182797
-22.60994896
-26.75905996
-30.8916213
-34.89884629
-38.64995212
-42.04472019
-44.99626281
-47.47103372
-49.4273176
-50.79655516
-51.58364137
-51.83826999
-51.6069722
-50.93257183
-49.86679082
-48.47077803
-46.77301585
-44.80948995
-42.6813055
-40.39590978
-38.00385448
-35.53146861
-33.03905831
-30.53881853
-28.06781612
-25.64969825
-23.3042254
-21.04974428
-18.8967667
-16.85543787
-14.92766028
-13.11610368
-11.43650285
-9.889552304
-8.486007144
-7.225223725
-6.095428046
-5.092166698
-4.216812955
-3.470410768
-2.841184102
-2.320864704
-1.907484388
-1.597437602
-1.369670453
-1.212057401
-1.111926787
-1.074826434
-1.125234904
-1.208218956
-1.29341784
-1.394220132
-1.516790103
-1.667517657
-1.789360767
-1.900253439
-1.996851109
-2.085614017
-2.096890386
-2.005679648
-0.07228812142
1.443681208
4.710164038
5.415926836
)


101
(
-5.484666916e-12
-2.474721217e-08
-5.920474502e-07
-3.731765093e-06
-1.466801328e-05
-4.321279585e-05
-0.0001063105324
-0.0002297173875
-0.0004575518163
-0.0008431847496
-0.001503804575
-0.00254845287
-0.004188871339
-0.006714952528
-0.01052827586
-0.01622378664
-0.02465294443
-0.03698580706
-0.05494963331
-0.08121335882
-0.1196715213
-0.1755434986
-0.2570965728
-0.3761508672
-0.5494276285
-0.8045379632
-1.181603486
-1.734430733
-2.529415425
-3.641077205
-5.138395044
-7.09010185
-9.558324454
-12.56707581
-16.05369291
-19.92958596
-24.06506107
-28.30701388
-32.50424237
-36.47444122
-40.08346223
-43.22407628
-45.8182576
-47.82365141
-49.23328406
-50.04399764
-50.24586808
-49.85679487
-48.94766446
-47.59205656
-45.83299381
-43.74454845
-41.40676581
-38.85588439
-36.13521144
-33.31268025
-30.42376347
-27.51542021
-24.60820729
-21.74097998
-18.93648478
-16.22701295
-13.63091568
-11.16408886
-8.838966649
-6.666181326
-4.652932601
-2.791115815
-1.085623473
0.4602285959
1.8424152
3.054616458
4.083721995
4.948672187
5.660585232
6.225441249
6.648949771
6.93999054
7.092005665
7.127173308
7.03822215
6.859336213
6.594550569
6.262688086
5.88305535
5.40525552
4.860116509
4.327992694
3.794802879
3.252803582
2.673016803
2.143725001
1.625202296
1.156147528
0.6978391932
0.3082683472
0.001182337456
3.214034714
5.220159234
8.799044718
8.84755915
)


101
(
-5.370978775e-12
-2.241812576e-08
-5.815432745e-07
-3.745712113e-06
-1.497387407e-05
-4.484129138e-05
-0.0001120608712
-0.0002459150936
-0.0004953628462
-0.0009254335519
-0.001677770036
-0.002890081107
-0.004810891086
-0.007807619047
-0.01238579261
-0.0193002445
-0.02968133599
-0.04508516322
-0.06788343166
-0.1021653375
-0.152735403
-0.2276354327
-0.3391955633
-0.5060825189
-0.7551045596
-1.126684573
-1.679324747
-2.483712251
-3.619512563
-5.162664518
-7.167053825
-9.67374908
-12.70986632
-16.25007067
-20.15558584
-24.28710105
-28.47581693
-32.54634894
-36.33690443
-39.68926271
-42.48974236
-44.67681108
-46.19786114
-47.04655995
-47.25092031
-46.84685334
-45.87378424
-44.36174576
-42.3927092
-40.04178084
-37.36635252
-34.44161036
-31.34434829
-28.12091242
-24.81869703
-21.48629061
-18.1556613
-14.88285008
-11.68193861
-8.577904882
-5.586776572
-2.744680628
-0.07132061012
2.430504443
4.752424999
6.872653122
8.798904022
10.52699517
12.07726081
13.43893364
14.60875598
15.59129707
16.36334654
16.94127473
17.33488379
17.55635415
17.63899732
17.57122698
17.35324837
17.00881157
16.51535892
15.92725285
15.25636782
14.50764009
13.70741682
12.83208349
11.8805603
10.91475038
9.984549274
9.069815354
8.091909445
7.209901638
6.286762861
5.473756953
4.676966826
3.923429176
3.183986515
7.161640211
8.950030207
11.82709634
11.22407659
)


101
(
-5.256370812e-12
-2.014181976e-08
-5.693628559e-07
-3.756186901e-06
-1.526927113e-05
-4.647103731e-05
-0.0001179369421
-0.0002627587584
-0.0005350671007
-0.001012979839
-0.001863946632
-0.003266755695
-0.005502367064
-0.00902751167
-0.01448303419
-0.02282044237
-0.03554326889
-0.05475157777
-0.08365614584
-0.1282933184
-0.1944477993
-0.294622092
-0.4471872724
-0.6797144639
-1.03186363
-1.557205402
-2.329516052
-3.426581874
-4.927838456
-6.896329822
-9.359946619
-12.31141858
-15.71531078
-19.50655585
-23.48434287
-27.48462494
-31.32809455
-34.84633491
-37.89273473
-40.33466193
-42.10593455
-43.17386416
-43.52584979
-43.19589847
-42.23963841
-40.70724053
-38.66914192
-36.17993265
-33.31884854
-30.15479683
-26.75870319
-23.1949361
-19.52666409
-15.80850777
-12.0876572
-8.402783784
-4.777738165
-1.269573676
2.102755798
5.326500487
8.389970185
11.26824507
13.93090467
16.38948941
18.63039982
20.62621212
22.39016342
23.92170572
25.24962559
26.35663989
27.24695924
27.93605786
28.39275113
28.64240079
28.68014299
28.50721415
28.18949347
27.71815351
27.11777423
26.37075688
25.47138079
24.4794392
23.39938069
22.26389394
21.08872568
19.84316518
18.54631625
17.22195617
15.94902231
14.73990184
13.44982583
12.30464143
11.09165527
10.01200928
8.984936857
7.93180291
6.816369027
10.67831096
11.42162583
12.68898306
9.15735374
)


101
(
-5.14083743e-12
-1.794268469e-08
-5.494250721e-07
-3.763360373e-06
-1.555618834e-05
-4.809373898e-05
-0.000123922829
-0.0002802265034
-0.0005777993663
-0.001107593827
-0.002063000576
-0.00367729893
-0.006265680972
-0.01039011009
-0.01686199152
-0.02687929802
-0.04239672849
-0.06621092653
-0.102674994
-0.1601684372
-0.2464048962
-0.3799850743
-0.5882082877
-0.907069891
-1.390889289
-2.103505499
-3.122691145
-4.519215333
-6.358981281
-8.679395435
-11.47240991
-14.67893545
-18.19992159
-21.93638189
-25.65788289
-29.20311519
-32.40419615
-35.11608275
-37.22331933
-38.62600406
-39.287915
-39.22303749
-38.45422714
-37.03615756
-35.04571184
-32.54532298
-29.6196765
-26.33256112
-22.76227411
-18.97380781
-15.03857954
-11.01209363
-6.946628055
-2.892220708
1.101691312
4.997316804
8.78556665
12.41040302
15.84093637
19.06995121
22.096935
24.90366593
27.46088142
29.78026114
31.83041215
33.61863284
35.12606609
36.35870249
37.35464446
38.10072715
38.61657285
38.90592356
38.95473365
38.78707451
38.39499666
37.76731229
36.95635382
36.02559505
34.97161521
33.79095559
32.48413898
31.0810539
29.5835868
28.08174565
26.56125829
25.00543701
23.42619859
21.83996218
20.3027938
18.88582216
17.42053576
16.10263445
14.75863567
13.52591693
12.39392721
11.17884657
9.861205688
12.57133756
11.67190979
11.12430454
6.630562278
)


101
(
-5.024372525e-12
-1.580613919e-08
-5.455734365e-07
-3.765999625e-06
-1.582901796e-05
-4.970439477e-05
-0.0001300028953
-0.0002982862977
-0.0006245378161
-0.001212972233
-0.00227507198
-0.004118856198
-0.007099139298
-0.01191295277
-0.01959190614
-0.0316519168
-0.05056537034
-0.08002866647
-0.1258915804
-0.1985565016
-0.310658241
-0.4875574942
-0.7682569603
-1.193471816
-1.830358552
-2.747568094
-4.013761683
-5.678380253
-7.783808766
-10.33346836
-13.27570125
-16.5097126
-19.89715685
-23.31035247
-26.51903911
-29.38602418
-31.76723392
-33.54535815
-34.63786022
-34.98381873
-34.57943689
-33.4717441
-31.70073716
-29.34285211
-26.48846572
-23.20447199
-19.57709016
-15.670822
-11.56718961
-7.324865867
-3.010967594
1.324650316
5.635944802
9.882439421
14.01645228
17.99341661
21.81651793
25.4307745
28.80345996
31.91912158
34.78395704
37.387436
39.71534109
41.76461252
43.49845258
44.94472072
46.05696368
46.8589988
47.38312727
47.64570426
47.65053513
47.40184459
46.9133769
46.20358143
45.26671049
44.10338502
42.75716924
41.26859007
39.69259449
38.04091137
36.31607377
34.49232491
32.61640407
30.7693804
28.95210903
27.1421932
25.34731317
23.60347366
21.90998755
20.38498272
18.89665272
17.50906444
16.16754877
14.93332058
13.79688365
12.56012831
11.19644449
12.14756504
9.643339173
7.761456482
2.995304183
)


101
(
-4.906970513e-12
-1.371421109e-08
-5.333834485e-07
-3.764152737e-06
-1.608567349e-05
-5.129682072e-05
-0.0001361664656
-0.0003169620768
-0.0006737424165
-0.001325348894
-0.002502306143
-0.004595662866
-0.008014220619
-0.01360731592
-0.02267500967
-0.03713010661
-0.06010248276
-0.09649440028
-0.1542029334
-0.2461352233
-0.3913703154
-0.6226443842
-0.9904007167
-1.537207916
-2.335935959
-3.453607108
-4.937387194
-6.803294229
-9.065957731
-11.69214508
-14.58920595
-17.63302199
-20.67539768
-23.56690258
-26.0959415
-28.15869448
-29.64446359
-30.46666145
-30.57354769
-29.9375168
-28.57805843
-26.56340339
-23.9476367
-20.81942096
-17.27570205
-13.38479036
-9.230475997
-4.873108699
-0.3911966152
4.156884034
8.707727586
13.21511559
17.63547396
21.93670417
26.07731334
30.01264041
33.73957134
37.205176
40.3872504
43.26009309
45.80780039
48.05893815
49.99484904
51.60742676
52.86518895
53.79673087
54.35795595
54.57058509
54.46928342
54.09074752
53.4202696
52.50411174
51.35568238
49.9864533
48.4089579
46.63936193
44.69015452
42.60879686
40.49266426
38.35914232
36.21339357
34.02043101
31.8314496
29.72253111
27.6663173
25.72282919
23.82487942
22.03444601
20.31852202
18.80653681
17.41174942
16.09814572
14.85831368
13.7411711
12.71531904
11.60094988
10.36454768
9.604585084
6.125174719
3.722107566
-1.003503587
)


101
(
-4.788625826e-12
-1.167064702e-08
-5.176522399e-07
-3.757253702e-06
-1.632495352e-05
-5.286489453e-05
-0.000142390195
-0.0003366627984
-0.0007263237122
-0.001445467708
-0.002758988923
-0.005100327023
-0.009033300022
-0.01552284533
-0.02619230108
-0.04344985989
-0.07126713711
-0.1161852302
-0.1887836653
-0.3056512385
-0.4925057334
-0.7900618022
-1.253618422
-1.928639392
-2.880798072
-4.169203778
-5.813595048
-7.790398755
-10.08391739
-12.63014138
-15.3085997
-17.98651603
-20.52581664
-22.77649097
-24.55318109
-25.77821863
-26.37679952
-26.29429301
-25.5047169
-24.00573719
-21.83564544
-19.07339245
-15.77942275
-12.04755499
-7.977733932
-3.639983589
0.8855327746
5.544215912
10.26438362
14.98517195
19.64309914
24.19519641
28.59617868
32.8135139
36.81635691
40.56945852
44.05726385
47.22952891
50.06445753
52.53348108
54.60638843
56.33207132
57.690807
58.68023424
59.28868092
59.52388445
59.36872317
58.83606766
57.95655224
56.78186239
55.317164
53.62526643
51.71380027
49.61080198
47.35465073
44.96191568
42.43819689
39.81879271
37.2068557
34.65142048
32.17431804
29.74231751
27.3724596
25.12726411
23.01043114
21.05465821
19.22026632
17.53491932
15.95539794
14.59997402
13.41201489
12.28004504
11.27677603
10.37139148
9.555504636
8.655759516
7.693961316
5.859489866
2.274578394
-0.01883317779
-3.9356224
)


101
(
-4.669332373e-12
-9.642407052e-09
-4.884690626e-07
-3.744832962e-06
-1.654491626e-05
-5.439369807e-05
-0.0001486716344
-0.0003569481814
-0.0007812675209
-0.001572565644
-0.003036953092
-0.005641767009
-0.01015651573
-0.01767910495
-0.03018379218
-0.05071628564
-0.08433145803
-0.1396644361
-0.2306556137
-0.3785668147
-0.6153107975
-0.9884375699
-1.551901877
-2.349610938
-3.429894641
-4.837213441
-6.566279921
-8.557678716
-10.76176644
-13.09150611
-15.4176988
-17.61153772
-19.55225626
-21.11036237
-22.1310332
-22.55062607
-22.32664597
-21.43534221
-19.87187987
-17.65254186
-14.82690808
-11.47699785
-7.664798743
-3.484266291
0.964024754
5.607582982
10.3677263
15.1935521
20.0182303
24.78281917
29.42358938
33.89432559
38.15241021
42.14792806
45.8609429
49.26756549
52.35162853
55.06177131
57.37707208
59.26722788
60.70400011
61.72141927
62.3201294
62.5023662
62.29867732
61.67886522
60.6629237
59.25988605
57.49870098
55.46019922
53.15805441
50.6456637
47.95665635
45.14469127
42.25920637
39.32671332
36.35516155
33.35066734