/*--------------------------------*- C++ -*----------------------------------*\
| =========                 |                                                 |
| \\      /  F ield         | OpenFOAM: The Open Source CFD Toolbox           |
|  \\    /   O peration     | Version:  2.3.1                                 |
|   \\  /    A nd           | Web:      www.OpenFOAM.org                      |
|    \\/     M anipulation  |                                                 |
\*---------------------------------------------------------------------------*/
FoamFile
{
    version     2.0;
    format      ascii;
    class       dictionary;
    location    "constant";
    object      rCH3O2H;
}
// * * * * * * * * * * * * * * * * * * * * * * * * * * * * * * * * * * * * * //

rCH3O2H_table
101
(

101
(
6.229748312e-11
2.784536783e-06
9.01430822e-05
0.0006586326716
0.002562308065
0.007026252
0.01549162635
0.02995937018
0.05248893862
0.08575401806
0.1329398942
0.198566246
0.2878753998
0.4106916782
0.5771553506
0.8005797437
1.098531875
1.496184222
1.997308122
2.652170488
3.45206764
4.404944842
5.546277854
6.853697119
8.303904868
9.871654893
11.52403618
13.22367419
14.94163967
16.643416
18.30500997
19.90480751
21.42523043
22.88460388
24.25907725
25.56107721
26.89393726
28.21388149
29.14251051
29.96432852
30.68064712
31.29943891
31.81659848
32.23550696
32.56355999
32.7969943
32.94334782
32.9991455
32.97089842
32.8568299
32.66397804
32.39268129
32.04567874
31.62624382
31.1387795
30.58601701
29.96255448
29.28515214
28.5458846
27.75494056
26.91121352
26.02410011
25.09532639
24.1288392
23.13105026
22.10661102
21.06014057
19.99640475
18.92058036
17.84032388
16.75996292
15.68669135
14.62665803
13.59456587
12.67078173
11.69198845
10.63700296
9.61648173
8.63569988
7.698236271
6.811411241
5.979553715
5.212702704
4.545516521
3.849450012
3.190640508
2.597836393
2.071628874
1.616196286
1.253254315
0.896674824
0.6057769309
0.3870001717
0.2149730517
0.09902549358
0.02429084612
-3.041226767e-17
6.712484309e-40
1.397465619e-29
-6.116991726e-28
0
)


101
(
6.179761215e-11
2.538492973e-06
8.483254914e-05
0.0006208898823
0.002412371927
0.006599215784
0.0145046095
0.02793124756
0.048715554
0.07917243614
0.1220300809
0.1810859729
0.2607549357
0.3691436262
0.5149769331
0.7093205592
0.9666865034
1.3077042
1.737881206
2.292593707
2.972815399
3.780780178
4.738617055
5.836798546
7.054104623
8.36667421
9.746247739
11.16116391
12.5833157
13.98570584
15.34563062
16.6457753
17.87422244
19.01952198
20.09486136
21.09544137
22.07577497
23.04304014
23.81524034
24.42544599
24.92772821
25.34779346
25.67901062
25.93065009
26.11108226
26.21446662
26.25005502
26.21408352
26.11420504
25.94884096
25.72524556
25.44383303
25.10748919
24.7189955
24.28224646
23.80031608
23.26999092
22.70336637
22.09551491
21.45367229
20.77770424
20.07304681
19.34259603
18.58854691
17.81495798
17.0259369
16.22476316
15.41445983
14.59780779
13.7801891
12.96460833
12.15476578
11.35420654
10.57000279
9.83026988
9.11245676
8.379138415
7.63911175
6.910905811
6.208260236
5.539655879
4.907722257
4.316392361
3.780031751
3.277751395
2.790384913
2.32946357
1.910434541
1.537658248
1.217663247
0.9405472787
0.6912145958
0.4825123211
0.3187267352
0.189836839
0.09412529572
0.02921572768
0.02891789565
0.02877665817
0.02903656685
0.02932650492
)


101
(
6.129886105e-11
2.306398047e-06
7.978849962e-05
0.0005850931298
0.002270729091
0.006198104412
0.01358406139
0.02605625618
0.04525881692
0.07320549065
0.1122455085
0.1655864409
0.2369680617
0.3331193913
0.4615845328
0.6316742335
0.8554988358
1.150149302
1.522108967
1.996726146
2.579989792
3.272067011
4.08603923
5.018824827
6.053069998
7.166925586
8.335608331
9.531950891
10.72989349
11.9068205
13.04245975
14.12214026
15.1370272
16.06596835
16.92809862
17.71949362
18.47234988
19.20121674
19.82447498
20.31274607
20.69191694
20.99252599
21.21544855
21.37153095
21.46996604
21.50691894
21.49009467
21.41685779
21.29372517
21.120095
20.90208247
20.64061418
20.33843529
19.99812144
19.62247846
19.21401914
18.77101957
18.30236535
17.80502918
17.28416906
16.74008185
16.17620397
15.59483355
14.99798642
14.38837365
13.76851161
13.14084793
12.50768164
11.87096197
11.23381178
10.59874248
9.967876417
9.343699841
8.729125937
8.135096992
7.564678408
7.005315603
6.447038625
5.889267312
5.3404211
4.811588156
4.308185524
3.832096172
3.388160462
2.978063601
2.592875068
2.222716775
1.873219907
1.555256843
1.272277281
1.023099748
0.8046741165
0.6085217448
0.4438306839
0.3109266613
0.1967800742
0.1027734077
0.1054942506
0.1082528591
0.1127137839
0.1169120574
)


101
(
6.080122947e-11
2.087705905e-06
7.499958494e-05
0.0005511493662
0.002136924213
0.00582126717
0.01272510531
0.02432149654
0.04208875982
0.06778808269
0.1034550936
0.1518158526
0.2160595643
0.3018080886
0.415618719
0.565422204
0.7614356598
1.01797554
1.342008398
1.752118933
2.256655983
2.855473547
3.5557816
4.357445057
5.2469642
6.204975179
7.209493343
8.236800676
9.263167723
10.26875992
11.23557269
12.15089175
13.0075235
13.78292249
14.49312589
15.13352834
15.73306238
16.29916252
16.79868389
17.20019087
17.50503525
17.73470438
17.89361526
17.99380468
18.0454946
18.04759445
18.00655582
17.92080164
17.7953016
17.63017694
17.4302961
17.19696286
16.93266001
16.63967647
16.32029506
15.97658229
15.60725233
15.21906136
14.81012188
14.38419719
13.94174656
13.48518729
13.01615665
12.53616718
12.04714638
11.5507958
11.0489827
10.54318624
10.03510116
9.526703457
9.019663131
8.515621346
8.016302488
7.523235814
7.040480756
6.572797973
6.119585781
5.675539834
5.234479228
4.795276016
4.364505965
3.949578387
3.554228162
3.180011062
2.829278286
2.502239783
2.193204939
1.895423128
1.615602823
1.360781432
1.131528193
0.9279037695
0.7454761899
0.5824144013
0.4456696203
0.3199729119
0.2037572068
0.2139427081
0.223744741
0.236373344
0.248391168
)


101
(
6.030471706e-11
1.8818867e-06
7.045494232e-05
0.0005189706736
0.002010531654
0.005467175904
0.01192327105
0.02271527936
0.03917852151
0.06286258511
0.09554416617
0.1395566048
0.1976406914
0.2745264356
0.3759453449
0.5087359583
0.6816167727
0.9067178203
1.19118023
1.549017422
1.989470579
2.512864477
3.122809256
3.820283641
4.595049085
5.430348311
6.306616797
7.20284633
8.097477931
8.972562781
9.811769825
10.60390796
11.34256769
12.007156
12.6093698
13.14665409
13.63478303
14.08723389
14.49104776
14.82368781
15.07807909
15.2644575
15.38577324
15.45346829
15.47820653
15.46154541
15.40960869
15.32176988
15.20186664
15.05032377
14.87095652
14.66513154
14.43514832
14.18313964
13.9109178
13.62004544
13.31003306
12.98569654
12.64588081
12.29328453
11.92852713
11.55346927
11.16924186
10.77699415
10.37805031
9.973469209
9.564765408
9.15308441
8.739527131
8.325564155
7.912094535
7.500609874
7.092373317
6.688634283
6.290853343
5.901664996
5.523008021
5.15491132
4.793572306
4.434269777
4.077150588
3.727535963
3.39117763
3.070040241
2.765120047
2.477689417
2.207405286
1.948921524
1.700044383
1.467483037
1.254495533
1.061396249
0.8873437935
0.7281477838
0.5893672455
0.4569688514
0.3259955442
0.3461396874
0.3655226893
0.3884011056
0.4102273589
)


101
(
5.980932337e-11
1.688425015e-06
6.614411375e-05
0.0004884731647
0.001891149421
0.005134403744
0.01117443335
0.02122696791
0.03650396537
0.05837793347
0.0884123885
0.1286209886
0.181379712
0.2506997272
0.3416202483
0.4601095686
0.6136978572
0.812782207
1.064487951
1.379742316
1.767904001
2.230063549
2.767804632
3.382360796
4.066044463
4.804628101
5.580719264
6.375495123
7.169289271
7.945498001
8.68908145
9.389381856
10.04064368
10.62508857
11.15040314
11.61458861
12.02665617
12.39941052
12.73106882
13.00908058
13.22558615
13.3836443
13.48289759
13.53236374
13.54196031
13.51517629
13.45850892
13.3726007
13.26057943
13.12277831
12.96213877
12.77991637
12.57828701
12.35937094
12.12477593
11.87555116
11.61155372
11.336544
11.0498648
10.75330384
10.44739437
10.13394133
9.813540679
9.487218145
9.155940833
8.820292795
8.481326093
8.139940878
7.796889951
7.453581782
7.11020877
6.767894055
6.427605951
6.090554494
5.757494792
5.429598894
5.108315989
4.795137317
4.489496112
4.188144701
3.887806623
3.58964553
3.298652177
3.018501731
2.750164782
2.494409047
2.251987101
2.02118562
1.798018047
1.584397036
1.385134927
1.201830729
1.034127371
0.8792119242
0.7402373016
0.6039952427
0.4629016116
0.4937400329
0.5242152777
0.562785577
0.6003192354
)


101
(
5.931504831e-11
1.50682031e-06
6.205703034e-05
0.0004595767697
0.001778397736
0.004821618002
0.01047478378
0.01984686307
0.0340433392
0.05428867401
0.08197144708
0.1188457264
0.1669910762
0.2298392286
0.3118479347
0.4182870052
0.5557430739
0.7332323108
0.9577508964
1.238149222
1.583526221
1.995799046
2.475597732
3.024087754
3.635506774
4.297972888
4.996104073
5.712892324
6.430282071
7.132661869
7.805863261
8.439462681
9.02766125
9.555495086
10.02769304
10.44197613
10.80337716
11.12221363
11.40195759
11.63798886
11.8251818
11.96333923
12.04959835
12.08977905
12.09192925
12.06040298
12.00211701
11.91931081
11.81495759
11.68924009
11.54446284
11.38142755
11.20218194
11.00889763
10.80335085
10.58608484
10.35702965
10.11932431
9.872556251
9.618106962
9.356483168
9.089179546
8.8165784
8.539408493
8.258633943
7.9745949
7.68785014
7.399077131
7.108778672
6.818143937
6.527446206
6.237297518
5.948292469
5.661434533
5.377373253
5.096756511
4.820377524
4.549302352
4.28438316
4.024725785
3.767282513
3.510181684
3.255600836
3.007739322
2.768628667
2.538773606
2.318813773
2.108670404
1.905977424
1.709060722
1.521790408
1.347159793
1.185576599
1.035117435
0.897260428
0.7584513971
0.6105986297
0.6561147651
0.7015729985
0.758613249
0.8147148005
)


101
(
5.882189118e-11
1.33658645e-06
5.818398861e-05
0.0004322050072
0.001671917986
0.004527577248
0.009820823177
0.01856616788
0.03177707386
0.05055438091
0.07614371096
0.1100888401
0.1542291614
0.2115290895
0.2859578133
0.3822195581
0.5061494042
0.6656593492
0.86755211
1.119288924
1.429554066
1.801044583
2.234143615
2.729918515
3.284052179
3.886780085
4.52463776
5.182210131
5.842810714
6.491585012
7.114933758
7.702441982
8.247792433
8.73823657
9.1764776
9.559815375
9.890485898
10.1759783
10.42169755
10.6281055
10.7937848
10.91801612
10.9971748
11.03416214
11.03462155
11.00278148
10.94542234
10.86623454
10.76875615
10.65332954
10.52174163
10.37420329
10.21268059
10.03925026
9.855789728
9.662830104
9.460377718
9.250710052
9.033788572
8.81053956
8.581558143
8.3483095
8.110996797
7.870242511
7.62675512
7.380894432
7.132778021
6.88305377
6.631815472
6.380109491
6.128348847
5.876775073
5.625826527
5.37616395
5.12843059
4.883032567
4.640616426
4.401670347
4.167082097
3.937130301
3.710336063
3.48430633
3.258641682
3.036003066
2.819540814
2.61010726
2.408036658
2.213713811
2.026366829
1.84354422
1.66677938
1.49959296
1.343249515
1.19698257
1.060683896
0.9211716109
0.7693678164
0.8327484036
0.8974862029
0.9819496774
1.067258614
)


101
(
5.832985197e-11
1.177250934e-06
5.451564925e-05
0.0004062848913
0.001571371419
0.004251123349
0.009209332717
0.0173769028
0.02968756369
0.0471391037
0.07086087321
0.1022269332
0.1428825443
0.1954153757
0.2633835216
0.3510294275
0.4635866219
0.6080807902
0.7910892342
1.019150795
1.300503515
1.638535099
2.033820174
2.487457008
2.996241549
3.552283832
4.143982845
4.757425615
5.377129275
5.988838918
6.579323767
7.138048795
7.657909051
8.127548253
8.548153245
8.916672329
9.23326024
9.502770473
9.730782727
9.920266687
10.07313851
10.18984546
10.26701778
10.30572226
10.30945959
10.28174867
10.22865507
10.15481073
10.06465756
9.958884593
9.838808079
9.704677462
9.558106015
9.400520293
9.234497867
9.060706326
8.878749546
8.690483769
8.496264025
8.296498941
8.091756078
7.883538044
7.671683215
7.45726717
7.240778321
7.022721884
6.80290484
6.581436467
6.358288622
6.133998635
5.909651097
5.68520432
5.461472282
5.238377987
5.016160239
4.795389797
4.576703574
4.360401412
4.147081735
3.937111784
3.730455782
3.525311062
3.320502866
3.116160732
2.915675868
2.720346386
2.531036762
2.3475383
2.170321555
1.997479145
1.828369401
1.666365136
1.513764135
1.370333608
1.235196133
1.094976347
0.9389901695
1.0272594
1.120769999
1.252865784
1.393765713
)


101
(
5.783892979e-11
1.028354635e-06
5.104301306e-05
0.0003817467485
0.001476437756
0.003991172235
0.008637331166
0.01627177239
0.02775891179
0.04401075001
0.06606258612
0.09515214018
0.1327681748
0.1811949
0.2436439915
0.3239774992
0.4269445292
0.5588563261
0.7260526253
0.9344671352
1.191919222
1.502390324
1.86689497
2.286761723
2.759705674
3.279488226
3.836293501
4.417689975
5.009335726
5.597501797
6.169189866
6.713698455
7.223099966
7.686667107
8.104047915
8.472095331
8.789561879
9.058911184
9.284875395
9.47096165
9.621168543
9.737687736
9.818808487
9.864673841
9.877206068
9.859001286
9.814930048
9.750137559
9.669438075
9.574311885
9.466254814
9.345693828
9.213507997
9.07067894
8.919836026
8.761726114
8.596772851
8.425353197
8.249041955
8.067669288
7.881206907
7.691665057
7.498389872
7.302721935
7.105137683
6.906223574
6.706094693
6.504124099
6.300235984
6.09471033
5.888588975
5.681976103
5.475402378
5.269211468
5.063312328
4.858000938
4.653580356
4.450778229
4.250292184
4.051691811
3.855490003
3.66154002
3.468400973
3.275074578
3.083076987
2.894678896
2.711712313
2.532988492
2.359758574
2.191036639
2.024968874
1.864272976
1.711914139
1.568260901
1.431977247
1.289055714
1.127920524
1.255226133
1.396813536
1.612878423
1.859130414
)


101
(
5.734912501e-11
8.894523639e-07
4.775742491e-05
0.0003585241889
0.001386815141
0.003746712453
0.008102059897
0.0152440909
0.02597680816
0.0411408414
0.06169571779
0.0887702057
0.1237273128
0.1686071485
0.2263290385
0.3004386879
0.3952916199
0.5166205884
0.6705269601
0.8625526256
1.100153246
1.387820093
1.727142994
2.119837621
2.56448674
3.056313668
3.587180674
4.146141289
4.720013846
5.295637131
5.860169137
6.402662733
6.914463336
7.385149391
7.812571689
8.193436011
8.525698226
8.809811108
9.048829916
9.245689285
9.405272751
9.531128637
9.624059049
9.684111937
9.712364927
9.710648056
9.682112552
9.631763062
9.564564248
9.48325134
9.389703694
9.284736954
9.168658356
9.041802897
8.905660977
8.76257027
8.613333143
8.45719305
8.296321042
8.130536072
7.958994851
7.783724776
7.604666568
7.422527892
7.237796596
7.051180654
6.86422651
6.67529803
6.484426074
6.290860266
6.095639996
5.89901601
5.702061066
5.504983358
5.307598594
5.109528261
4.911254663
4.713848012
4.517823523
4.322697647
4.12861587
3.936703525
3.745834305
3.555167321
3.363931582
3.17405849
2.989349846
2.808040642
2.631221214
2.459414866
2.289343093
2.123710468
1.965847946
1.816618359
1.67460677
1.523959914
1.351918901
1.548088688
1.774298695
2.123589817
2.495193762
)


101
(
5.68604428e-11
7.601111068e-07
4.465054394e-05
0.000336553745
0.001302217752
0.003516796639
0.007600963254
0.01428773647
0.02432830789
0.03850396594
0.05771330872
0.08299865478
0.1156222165
0.1574281304
0.2110887557
0.279884052
0.3678456274
0.4802350004
0.6229229299
0.801199785
1.022217271
1.29090691
1.609503585
1.98020006
2.402490741
2.872906902
3.384853269
3.928891178
4.493094678
5.064987821
5.631916625
6.182651711
6.707871643
7.197432044
7.647217661
8.053471081
8.413608538
8.726551692
8.99346625
9.215980416
9.39882934
9.546085504
9.660959334
9.744395831
9.797195064
9.820641676
9.815971786
9.78751606
9.740316099
9.678294288
9.603750055
9.518095963
9.421664086
9.313829609
9.195092933
9.0696686
8.936715691
8.796392848
8.650308689
8.499753957
8.342664836
8.180421584
8.013382873
7.842010732
7.667423631
7.489742999
7.310765256
7.130538943
6.948219115
6.762395229
6.573724819
6.382108858
6.188997942
5.994885364
5.799758844
5.602801024
5.404538324
5.206149673
5.007139066
4.808321783
4.609379525
4.411264523
4.214109442
4.017458823
3.818778646
3.61868295
3.422941324
3.230752457
3.041818387
2.85720899
2.674049389
2.495080887
2.323139696
2.160241729
2.005151249
1.8389432
1.646862509
1.955648693
2.314626818
2.846271206
3.384683895
)


101
(
5.637289167e-11
6.399106397e-07
4.171434469e-05
0.0003157748366
0.001222375208
0.003300537549
0.007131671179
0.01339709944
0.02280171751
0.03607741338
0.0540737905
0.07776526055
0.1083333323
0.1474651452
0.1976242708
0.2618650998
0.34394911
0.4487499308
0.5819198585
0.7485901566
0.9556535364
1.20842161
1.509793652
1.862483884
2.266928544
2.720903908
3.219300102
3.754186174
4.314991363
4.890072926
5.467099413
6.034670583
6.58288861
7.101718424
7.585176079
8.028703888
8.429118058
8.78416071
9.093347326
9.357018876
9.578489907
9.761415423
9.910649416
10.02858239
10.11629793
10.17506581
10.20469561
10.20829764
10.19023177
10.15554874
10.10688085
10.04660308
9.975482767
9.892239743
9.796766616
9.692871004
9.580240279
9.458345002
9.329694265
9.196066719
9.055475893
8.908026823
8.754367794
8.594448267
8.429420005
8.260880411
8.088979187
7.915193772
7.739557441
7.559354356
7.375503824
7.187121096
6.994676119
6.799680782
6.602581669
6.403013298
6.200563338
5.996035069
5.789571619
5.581108913
5.370602261
5.159455082
4.948269698
4.736692644
4.522992009
4.304805938
4.087710481
3.87457685
3.663771941
3.455946235
3.248943799
3.04646974
2.85016291
2.662719481
2.484837604
2.292090165
2.067081388
2.543104369
3.074195966
3.777117597
4.383584429
)


101
(
5.588645646e-11
5.284432593e-07
3.894110203e-05
0.0002961296012
0.001147031662
0.003097104239
0.00669198234
0.01256702559
0.02138649686
0.03384098126
0.05074031527
0.07300667089
0.1017566753
0.1385516561
0.1856789522
0.2459996767
0.3230482902
0.4213751325
0.546424587
0.7032259293
0.8984377425
1.137694665
1.424544589
1.762270066
2.152256488
2.593473903
3.082276289
3.612259866
4.174317722
4.757791317
5.350860949
5.942185785
6.52149668
7.078677257
7.605945538
8.097704464
8.550015086
8.959732341
9.325132899
9.645412242
9.921750246
10.1563436
10.35459268
10.52015688
10.6548615
10.76058701
10.83648723
10.88437914
10.90738961
10.91120582
10.89780934
10.87115379
10.83369768
10.7831334
10.71867242
10.64302372
10.5581749
10.46099317
10.35573884
10.24374444
10.12479051
9.996674629
9.860344685
9.715974866
9.56488088
9.40777477
9.244925852
9.078996733
8.909503681
8.7358795
8.557313024
8.373046823
8.181337449
7.984189655
7.782463346
7.576591673
7.366997695
7.153956854
6.935366636
6.712660856
6.484693931
6.254198833
6.02107136
5.785632039
5.547973679
5.303542923
5.0548895
4.809318388
4.565470589
4.323804747
4.08087612
3.843184332
3.610340139
3.387492365
3.17545126
2.943967263
2.671334844
3.341038916
4.020030173
4.76442093
5.214742528
)


101
(
5.540113646e-11
4.253128695e-07
3.632337829e-05
0.000277562763
0.001075944843
0.002905718506
0.006279858478
0.01179279037
0.02007307538
0.03177659227
0.04768028102
0.06866735221
0.09580195277
0.1305442851
0.1750332326
0.2319627251
0.3046749021
0.3974474329
0.5155241473
0.6638703322
0.848911768
1.076549653
1.350938721
1.675966995
2.053975468
2.48508154
2.9670641
3.495040083
4.061461224
4.656882499
5.270270631
5.890557997
6.507288287
7.110267444
7.690093223
8.239969816
8.754997823
9.231253223
9.666169214
10.05787359
10.40539544
10.70878531
10.97272328
11.2011159
11.39670484
11.56267288
11.69819003
11.80404921
11.88212855
11.93759654
11.97178796
11.99014865
11.99719708
11.98983924
11.96723628
11.93100052
11.88370977
11.8215408
11.74760147
11.66503891
11.57526578
11.47446902
11.36205599
11.24018434
11.10986735
10.96940606
10.82128538
10.66583298
10.50633906
10.34096388
10.16871272
9.989601118
9.800128178
9.601429666
9.393599199
9.17743126
8.956557545
8.72945103
8.494093705
8.251154687
7.997471003
7.737851666
7.473254346
7.203035266
6.927497882
6.644642823
6.353720081
6.060866106
5.770127218
5.48193538
5.189147163
4.904048448
4.620350012
4.350506324
4.094179368
3.812028962
3.473661701
4.278816391
4.952057414
5.451471252
5.365255807
)


101
(
5.491693167e-11
3.301352759e-07
3.385401926e-05
0.0002600215609
0.001008885434
0.002725650873
0.00589341249
0.01107006327
0.01885276493
0.02986805368
0.04486504845
0.06469848515
0.09039064683
0.123319835
0.1654999803
0.2194789749
0.2884322345
0.3764049896
0.4884441443
0.6294612983
0.805669477
1.023176195
1.286692023
1.600685931
1.968457815
2.391259102
2.868220875
3.395940124
3.968492411
4.577890889
5.214265973
5.867074898
6.525734136
7.180180969
7.819621168
8.436086207
9.023499874
9.577098271
10.09374503
10.57061767
11.00507787
11.39437305
11.74153808
12.04983068
12.32242647
12.56368759
12.77341492
12.95252149
13.10108099
13.22327508
13.32048587
13.39824999
13.4624936
13.51135001
13.5437926
13.56023524
13.56328563
13.54894301
13.51823889
13.47546602
13.42295726
13.35912705
13.28040421
13.19058281
13.08895452
12.97255415
12.8443957
12.70509577
12.55900436
12.40301682
12.23707825
12.0620508
11.87281525
11.67089953
11.45365934
11.21975364
10.97624435
10.72279631
10.45977739
10.18282048
9.889297997
9.584077252
9.268263491
8.944699578
8.612260775
8.268783686
7.915166073
7.555349471
7.195765098
6.841797876
6.481799704
6.132603919
5.785311132
5.455806481
5.147035616
4.802341412
4.380846552
5.130414524
5.480954527
5.313094294
4.148596942
)


101
(
5.443384246e-11
2.425378608e-07
3.152614253e-05
0.0002434556086
0.0009456364782
0.002556218573
0.005530897171
0.01039487365
0.01771766897
0.02810084197
0.04226936069
0.06105721895
0.08545440376
0.1167723497
0.1569193941
0.2083149548
0.2739849546
0.3577721745
0.4645308213
0.5991035659
0.7675374144
0.9760767933
1.229937696
1.534091474
1.892776928
2.308389625
2.781319199
3.309591707
3.888961813
4.513070892
5.17347483
5.860524116
6.563782027
7.273410207
7.977639242
8.667498729
9.335568993
9.975937586
10.58497855
11.15930917
11.69463804
12.18593141
12.63414069
13.04034097
13.40716888
13.74014965
14.04040268
14.30949881
14.54508878
14.75097039
14.92859757
15.08264439
15.21900983
15.33903443
15.44078197
15.52343647
15.59158299
15.63982684
15.6662795
15.67511259
15.67096186
15.65359665
15.61922908
15.57076889
15.50363835
15.41981172
15.31659518
15.19531139
15.06143796
14.91175385
14.74791663
14.56860122
14.37029165
14.15344988
13.91377916
13.64699534
13.35754821
13.05380767
12.73381428
12.39477303
12.0333519
11.65013599
11.24709629
10.83427173
10.40854454
9.969121894
9.516843196
9.057662389
8.59624203
8.146414875
7.696796011
7.260432994
6.835040978
6.433905133
6.066592564
5.652354854
5.135786101
5.482289791
5.062381193
3.788354152
1.295588616
)


101
(
5.395186703e-11
1.621587538e-07
2.933314909e-05
0.0002278167107
0.0008859922949
0.002396781676
0.00519069317
0.009763578451
0.0166605515
0.02646182614
0.03987088361
0.05770607958
0.08093376608
0.1108103248
0.1491541734
0.1982711652
0.2610493369
0.3411511372
0.4432434795
0.5720639516
0.7335592706
0.934036149
1.179154431
1.474295441
1.824559092
2.233497016
2.702715916
3.231614662
3.817640822
4.456145363
5.140194864
5.861383266
6.609970471
7.376427158
8.148469208
8.916471441
9.671641626
10.40652407
11.1166124
11.79822157
12.44621943
13.05384504
13.61938559
14.14122354
14.62033738
15.06251887
15.47022306
15.84613142
16.18670898
16.4947151
16.77095931
17.01937051
17.24500811
17.45175747
17.63844062
17.80230782
17.94985691
18.07422588
18.17266471
18.24620074
18.30057156
18.33719378
18.3548195
18.35295884
18.32493632
18.27489828
18.19457884
18.08730836
17.95697265
17.80348545
17.62513289
17.41985443
17.18708194
16.92562451
16.6301781
16.29591308
15.92409239
15.52033733
15.09074898
14.63540685
14.15101882
13.63147402
13.08331151
12.51903053
11.94015587
11.34636734
10.73850726
10.1290834
9.519723248
8.93253373
8.364102694
7.814917761
7.295612523
6.817354909
6.393002376
5.91152906
5.297453094
4.795692328
3.167159791
0.5271469583
-3.173034335
)


101
(
5.347100575e-11
8.864740702e-08
2.726863226e-05
0.0002130589232
0.0008297585181
0.002246741661
0.004871302472
0.009172844327
0.01567476322
0.02493896108
0.0376498489
0.0546125014
0.07677740649
0.1053546999
0.1420848946
0.1891727523
0.2493778343
0.3261988012
0.4241238158
0.5477658321
0.7029865076
0.8961047731
1.133119519
1.419794591
1.761945474
2.164260489
2.629548779
3.158521149
3.750298723
4.401945358
5.10804435
5.861675384
6.654395632
7.477164705
8.317650468
9.16597403
10.01220871
10.8471058
11.66483106
12.46140747
13.23120315
13.96637625
14.66312643
15.3169044
15.92596971
16.49499957
17.02685091
17.5259147
17.98974879
18.41867333
18.81215212
19.17307526
19.50524304
19.81404543
20.10016876
20.36102703
20.60162693
20.81399296
20.99685424
21.14727331
21.26584566
21.36110181
21.43062107
21.47228155
21.47883761
21.45233454
21.38312839
21.27244051
21.12305814
20.9360908
20.70528914
20.43297605
20.11714443
19.75504007
19.34289532
18.87582365
18.34871982
17.76720289
17.14366841
16.4818183
15.78120787
15.03541208
14.25102619
13.44441965
12.62237923
11.79458102
10.95633922
10.12881634
9.316044279
8.545635031
7.828135121
7.150340038
6.532861634
5.988432472
5.533197956
5.012556299
4.331568352
2.576242615
-0.4555376331
-4.297325083
-8.423670016
)


101
(
5.299125898e-11
2.166382312e-08
2.532646669e-05
0.0001991383711
0.0007767511948
0.002105537915
0.004571337287
0.008619619866
0.01475428025
0.0235213977
0.03558868077
0.05174793289
0.07294078104
0.1003376368
0.1356099643
0.1808718923
0.2387622201
0.3126275664
0.4067857743
0.5257246996
0.6752024554
0.8615218033
1.090864551
1.369410305
1.703502649
2.098886039
2.559583803
3.08757082
3.683538938
4.346240717
5.071803039
5.854858592
6.688612156
7.565050358
8.472270645
9.400431926
10.33885607
11.27661215
12.20606362
13.12248463
14.02013909
14.89081864
15.72932753
16.52862836
17.28358827
17.99612569
18.66848637
19.30647843
19.90965732
20.47661026
21.00474663
21.49581334
21.95138512
22.37577527
22.77240389
23.14128112
23.48496496
23.79457463
24.06810964
24.29956232
24.48464313
24.63427573
24.74475555
24.81394229
24.83635362
24.80685202
24.71758494
24.56533899
24.34972034
24.0716394
23.72520596
23.31216067
22.82793174
22.27169694
21.6429889
20.93610074
20.14348015
19.26783288
18.32424599
17.32504198
16.27809581
15.18071601
14.03809038
12.87031593
11.69920644
10.53991443
9.392698007
8.281502519
7.219531456
6.237976207
5.365594924
4.573801119
3.895443635
3.338222533
2.925512288
2.444569126
1.795595844
-1.359936008
-5.477068942
-9.765176547
-12.88154264
)


101
(
5.251262495e-11
-3.912188294e-08
2.350075428e-05
0.0001860131115
0.0007267959905
0.001972644633
0.004289511109
0.008101094669
0.01389360482
0.02219933243
0.0336711718
0.04908763693
0.06938470792
0.09569979451
0.1296415055
0.1732421319
0.2290264275
0.300195522
0.3909033391
0.5055174494
0.6496715558
0.8296199159
1.051619229
1.32221664
1.648146075
2.036045844
2.491158287
3.016730189
3.614840607
4.285834584
5.027461683
5.83589966
6.706017031
7.631389129
8.601199217
9.605823677
10.63440368
11.67467303
12.71689837
13.75522494
14.78375662
15.79439313
16.78123439
17.73558696
18.64896083
19.51962524
20.34759222
21.13865692
21.89363759
22.61185945
23.28937373
23.92537623
24.51993902
25.07164241
25.58599394
26.06591995
26.51422918
26.92029294
27.28099797
27.58682074
27.83036473
28.01607954
28.14155287
28.20315958
28.2008372
28.11819995
27.94947737
27.68646287
27.32480218
26.86677027
26.30431263
25.63448079
24.85446702
23.96673924
22.97346869
21.87216671
20.65687368
19.32680348
17.89987928
16.39920021
14.84883667
13.24949893
11.61315412
9.965190224
8.342706429
6.774378564
5.269501261
3.850412303
2.543703625
1.38247552
0.4155921614
-0.4000249108
-1.028901324
-1.468097233
-1.691982384
-1.970619108
-2.382087249
-6.5931194
-10.83118424
-14.33001209
-15.02140248
)


101
(
5.203510473e-11
-9.402966472e-08
2.178586365e-05
0.0001736431969
0.000679728196
0.001847569942
0.004024634068
0.007614702874
0.01308776722
0.02096397418
0.03188280489
0.04660996415
0.06607522759
0.09138958285
0.1241040777
0.1661761758
0.2200225029
0.2887010097
0.3762063065
0.4867885815
0.6259483723
0.799851946
1.014768623
1.277508116
1.595086908
1.974838331
2.423152975
2.944544072
3.54230937
4.218322276
4.972035893
5.801200465
6.70211391
7.669904629
8.695601229
9.770283892
10.88367496
12.02269358
13.17540585
14.33464204
15.49389008
16.64514607
17.78241546
18.89616687
19.97554665
21.0149777
22.01050821
22.96530392
23.88096294
24.75875892
25.59451221
26.38510393
27.12795211
27.81469491
28.44966816
29.03695843
29.58058697
30.06874359
30.49815217
30.85675648
31.13107452
31.3165454
31.41083332
31.40521053
31.30486224
31.08667909
30.74292717
30.26144598
29.63341377
28.86033231
27.9321273
26.84552939
25.59862104
24.19563897
22.64403174
20.94991161
19.1128412
17.13652718
15.04735809
12.87166288
10.65948016
8.42306144
6.187979679
3.989251726
1.879027615
-0.09833788799
-1.919387579
-3.565055487
-4.99895249
-6.18831392
-7.072491857
-7.704826263
-8.062647753
-8.152660454
-7.954356396
-7.776278975
-7.63248867
-11.963146
-14.92956256
-16.43292072
-14.03281216
)


101
(
5.155871331e-11
-1.433939005e-07
2.017630821e-05
0.0001619904243
0.0006353916196
0.001729852184
0.003775596326
0.007158087241
0.01233228392
0.01980744229
0.0302105927
0.04429528587
0.06298284838
0.08736292419
0.1189335912
0.159583069
0.2116262547
0.2779785371
0.3624762812
0.4692519046
0.6036702438
0.7717675304
0.9797832335
1.2347077
1.543758469
1.914734915
2.35496151
2.870142345
3.464734172
4.142072168
4.903363539
5.748022406
6.673664924
7.676217424
8.749054317
9.884695026
11.07421694
12.30467297
13.56201597
14.83756803
16.12389058
17.41261703
18.69773223
19.96964343
21.21642663
22.42884585
23.59822386
24.72333972
25.80486422
26.8448593
27.84002839
28.78617223
29.67659323
30.49759811
31.24825628
31.93097151
32.54786901
33.08915934
33.54939264
33.91645785
34.16825215
34.29224384
34.27967696
34.1169067
33.80686115
33.32988833
32.67101029
31.81708754
30.75545722
29.48275684
27.99134927
26.27972544
24.35141121
22.21446191
19.88303279
17.37718753
14.71209641
11.90638619
8.99577375
6.019433493
3.050033722
0.1302566312
-2.702015264
-5.392961342
-7.881556332
-10.10622292
-12.03145127
-13.64628288
-14.91448845
-15.80856523
-16.28087937
-16.38766408
-16.14709812
-15.57070434
-14.67091456
-13.7384942
-12.69176899
-15.83882096
-16.36167146
-15.40085935
-10.35722112
)


101
(
5.108343422e-11
-1.874884106e-07
1.866685803e-05
0.0001510183823
0.0005936386001
0.001619059268
0.003541370686
0.006729090821
0.01162310644
0.01872269392
0.02864299221
0.04212579037
0.06008173908
0.08358200604