/*--------------------------------*- C++ -*----------------------------------*\
| =========                 |                                                 |
| \\      /  F ield         | OpenFOAM: The Open Source CFD Toolbox           |
|  \\    /   O peration     | Version:  2.3.1                                 |
|   \\  /    A nd           | Web:      www.OpenFOAM.org                      |
|    \\/     M anipulation  |                                                 |
\*---------------------------------------------------------------------------*/
FoamFile
{
    version     2.0;
    format      ascii;
    class       dictionary;
    location    "constant";
    object      rCH;
}
// * * * * * * * * * * * * * * * * * * * * * * * * * * * * * * * * * * * * * //

rCH_table
101
(

101
(
-3.844080341e-21
-4.018828492e-11
-3.803440518e-09
-6.754325296e-08
-4.83570191e-07
-1.495074296e-06
-2.970173086e-06
-5.76056527e-06
-9.525321371e-06
-1.405666976e-05
-1.889764265e-05
-2.352303333e-05
-2.761447312e-05
-3.033122243e-05
-3.163879159e-05
-3.152687146e-05
-2.99061486e-05
-2.722283595e-05
-2.359280533e-05
-2.014687516e-05
-1.643657451e-05
-1.255512571e-05
-9.768112919e-06
-7.537286716e-06
-5.67607522e-06
-4.198173697e-06
-3.053166615e-06
-2.165970418e-06
-1.552832995e-06
-1.104152011e-06
-7.857900751e-07
-5.443634945e-07
-3.314960056e-07
-2.677506987e-07
-1.957399792e-07
-1.420064812e-07
-1.101111136e-07
-1.322189911e-07
-8.659916247e-08
-6.244777895e-08
-4.793578434e-08
-3.238167865e-08
-2.332734063e-08
-1.690464686e-08
-1.109342432e-08
-7.597981203e-09
-4.828378397e-09
-3.235968806e-09
-2.06487186e-09
-1.40639115e-09
-9.048438652e-10
-5.853425525e-10
-3.792019682e-10
-2.397817837e-10
-1.404082131e-10
-7.004588935e-11
-5.235070099e-11
-2.516754776e-11
-1.603825561e-11
-8.148912257e-12
-5.164843569e-12
-2.845228804e-12
-1.419021533e-12
-7.408113246e-13
-3.620678476e-13
-1.898971396e-13
-8.480641186e-14
-3.021774364e-14
-1.676419171e-14
-6.429580962e-15
-2.797557525e-15
-1.360973589e-15
-1.330487975e-15
-6.937298682e-16
-1.210339137e-16
-6.338666475e-17
-1.637326874e-17
-6.695744917e-18
-2.739239905e-18
-6.892010036e-19
-2.925407418e-20
-2.63869216e-20
-3.815009827e-21
-1.657620647e-22
-2.514370419e-22
-1.77869622e-23
-2.019155926e-24
-1.204691663e-25
-6.750155489e-26
-7.607750262e-27
-8.120608528e-28
-6.421610251e-29
-4.951745521e-30
-1.516357688e-30
-1.925404779e-31
-2.40652976e-32
3.505390376e-37
-1.070186304e-53
4.5205355e-38
2.519473227e-46
0
)


101
(
-4.782276857e-21
2.456107416e-10
-6.21455547e-10
-4.177814313e-08
-3.215854274e-07
-9.782226686e-07
-1.880600851e-06
-3.502352257e-06
-5.574509719e-06
-7.923784176e-06
-1.026996711e-05
-1.233908002e-05
-1.39947355e-05
-1.489415919e-05
-1.507922773e-05
-1.460601652e-05
-1.350224615e-05
-1.200922598e-05
-1.020198384e-05
-8.485952728e-06
-6.811316682e-06
-5.182570233e-06
-3.919534566e-06
-2.934926845e-06
-2.153606938e-06
-1.552118817e-06
-1.102603192e-06
-7.701545628e-07
-5.375433082e-07
-3.74462775e-07
-2.613594603e-07
-1.821578697e-07
-1.206940229e-07
-8.596172488e-08
-6.176261978e-08
-4.444255805e-08
-3.164498856e-08
-2.672609397e-08
-2.094773163e-08
-1.491352367e-08
-1.072953858e-08
-7.507822854e-09
-5.260852566e-09
-3.735808205e-09
-2.59815719e-09
-1.80389061e-09
-1.237847068e-09
-8.474737702e-10
-5.758428307e-10
-3.908685351e-10
-2.632226748e-10
-1.75423415e-10
-1.161085032e-10
-7.591595338e-11
-4.876374074e-11
-3.050134715e-11
-1.91597568e-11
-1.184060805e-11
-7.190109477e-12
-4.297315176e-12
-2.530604693e-12
-1.461603325e-12
-8.186658048e-13
-4.471530644e-13
-2.367123027e-13
-1.216729156e-13
-6.004749994e-14
-2.827136023e-14
-1.274215574e-14
-5.214993366e-15
-1.906571967e-15
-6.006628176e-16
-1.6208754e-16
-7.490152998e-19
3.962767623e-17
3.006369333e-17
1.734709875e-17
8.28698874e-18
3.568682762e-18
1.465122661e-18
5.529015506e-19
1.901793966e-19
5.664833519e-20
1.597405809e-20
4.061179846e-21
8.464350036e-22
1.377287066e-22
1.904444372e-23
5.979501459e-24
1.16526197e-24
1.589415305e-25
2.430013985e-26
3.062389244e-27
4.309755385e-28
2.218358538e-29
-6.206531601e-30
-2.215539398e-32
-5.041460659e-31
-1.521367234e-27
1.101672281e-17
1.321512923e-17
)


101
(
-5.654358024e-21
4.454258807e-10
1.527402422e-09
-2.476953843e-08
-2.156786074e-07
-6.525268629e-07
-1.2319353e-06
-2.229545697e-06
-3.46435638e-06
-4.823956785e-06
-6.147938738e-06
-7.294997187e-06
-8.199109505e-06
-8.704302618e-06
-8.832921893e-06
-8.611328524e-06
-8.058392209e-06
-7.289903899e-06
-6.340559476e-06
-5.382560621e-06
-4.435104202e-06
-3.520375389e-06
-2.744119134e-06
-2.104296447e-06
-1.584645091e-06
-1.17447005e-06
-8.595756624e-07
-6.22626003e-07
-4.490355397e-07
-3.233854646e-07
-2.332544922e-07
-1.688465968e-07
-1.2158389e-07
-8.84433055e-08
-6.436584135e-08
-4.720143492e-08
-3.560611406e-08
-2.63836433e-08
-2.049533604e-08
-1.581793434e-08
-1.182814927e-08
-8.655908544e-09
-6.309856e-09
-4.599319702e-09
-3.346671855e-09
-2.434095644e-09
-1.763844833e-09
-1.271181321e-09
-9.094314169e-10
-6.463183022e-10
-4.555224002e-10
-3.187270879e-10
-2.214579939e-10
-1.526345928e-10
-1.040631429e-10
-7.018834167e-11
-4.670172307e-11
-3.076620383e-11
-2.005508538e-11
-1.28887124e-11
-8.208802618e-12
-5.15054433e-12
-3.168148825e-12
-1.918578844e-12
-1.138686885e-12
-6.602473267e-13
-3.737361766e-13
-2.05607746e-13
-1.116525737e-13
-5.80237954e-14
-2.861105244e-14
-1.344307836e-14
-6.306659569e-15
-2.75217405e-15
-1.028766857e-15
-3.200611182e-16
-7.207950346e-17
1.468989127e-18
1.099203966e-17
8.776034485e-18
5.36055426e-18
2.911904493e-18
1.282376858e-18
5.036961382e-19
1.887645033e-19
6.163078406e-20
1.746104117e-20
3.512154729e-21
8.281026161e-22
2.181544991e-22
4.290637289e-23
5.665568899e-24
7.09778003e-25
8.682412391e-26
-4.536333774e-27
-7.086390896e-27
-7.460241793e-29
-3.188570581e-27
-9.209612859e-26
-6.748552841e-22
9.908533782e-12
)


101
(
-6.460329394e-21
5.8002425e-10
2.947067694e-09
-1.361050105e-08
-1.464423024e-07
-4.468054944e-07
-8.437339612e-07
-1.507409087e-06
-2.327931004e-06
-3.241338443e-06
-4.155961545e-06
-4.992712983e-06
-5.70560249e-06
-6.203366553e-06
-6.476537878e-06
-6.517058954e-06
-6.321063879e-06
-5.939683152e-06
-5.385844704e-06
-4.754760048e-06
-4.077198264e-06
-3.390229109e-06
-2.756624725e-06
-2.195577976e-06
-1.715519656e-06
-1.319260461e-06
-1.00134351e-06
-7.522701305e-07
-5.61692735e-07
-4.179025192e-07
-3.1067603e-07
-2.315351696e-07
-1.724800168e-07
-1.294208962e-07
-9.671205699e-08
-7.129563473e-08
-5.490959509e-08
-4.136253935e-08
-3.159896214e-08
-2.466053334e-08
-1.906328508e-08
-1.445411458e-08
-1.087339216e-08
-8.137364182e-09
-6.073302669e-09
-4.542817588e-09
-3.394681067e-09
-2.532278304e-09
-1.877664658e-09
-1.386112448e-09
-1.015275259e-09
-7.391772446e-10
-5.354522348e-10
-3.856447393e-10
-2.756143898e-10
-1.958002504e-10
-1.376385455e-10
-9.589830348e-11
-6.627568194e-11
-4.517925645e-11
-3.061911295e-11
-2.056559536e-11
-1.361412744e-11
-8.918855447e-12
-5.757247066e-12
-3.636116212e-12
-2.26074336e-12
-1.374388113e-12
-8.286953054e-13
-4.901768086e-13
-2.790364668e-13
-1.541605386e-13
-8.422349093e-14
-4.493971075e-14
-2.260375774e-14
-1.072334214e-14
-4.820971731e-15
-2.076196687e-15
-8.435111814e-16
-3.292211005e-16
-1.215845304e-16
-3.642196598e-17
-8.238049922e-18
-9.47922716e-19
8.102014928e-19
7.447147408e-19
4.025641156e-19
1.207004067e-19
2.801033848e-20
9.263757866e-21
3.214450865e-21
5.696316237e-22
7.248792568e-23
-2.516775383e-24
-7.594732626e-24
-3.069527749e-24
-1.025783705e-25
-4.541857006e-24
-4.034761086e-23
-2.703698421e-20
-4.649887159e-20
)


101
(
-7.200196501e-21
6.65309179e-10
3.852837811e-09
-6.347517536e-09
-1.011469111e-07
-3.16356874e-07
-6.09551099e-07
-1.093567464e-06
-1.708461975e-06
-2.422119363e-06
-3.179858064e-06
-3.929794019e-06
-4.629369094e-06
-5.20743039e-06
-5.631800519e-06
-5.87140633e-06
-5.904302494e-06
-5.748917185e-06
-5.406283998e-06
-4.940065198e-06
-4.382600287e-06
-3.776499719e-06
-3.179006779e-06
-2.617388321e-06
-2.112636939e-06
-1.677498249e-06
-1.313775041e-06
-1.01757694e-06
-7.823800241e-07
-5.984516461e-07
-4.563372752e-07
-3.483749796e-07
-2.655659342e-07
-2.042383217e-07
-1.561839907e-07
-1.201372963e-07
-9.212395614e-08
-7.055324434e-08
-5.450864633e-08
-4.264253971e-08
-3.350046593e-08
-2.609763167e-08
-2.021128186e-08
-1.554926732e-08
-1.190765699e-08
-9.132059201e-09
-7.002834564e-09
-5.372815868e-09
-4.106700077e-09
-3.13204674e-09
-2.374090217e-09
-1.789544586e-09
-1.3427577e-09
-1.004292034e-09
-7.471696831e-10
-5.51361039e-10
-4.051006608e-10
-2.95509134e-10
-2.144433379e-10
-1.533523569e-10
-1.090302138e-10
-7.719060302e-11
-5.396274543e-11
-3.75121091e-11
-2.585769543e-11
-1.746120441e-11
-1.162594286e-11
-7.629199763e-12
-4.950087519e-12
-3.198169275e-12
-1.998780117e-12
-1.223586005e-12
-7.37261004e-13
-4.384692709e-13
-2.518636792e-13
-1.401179105e-13
-7.541770032e-14
-3.923962145e-14
-1.963853683e-14
-9.567089236e-15
-4.602858294e-15
-2.136394678e-15
-9.057189791e-16
-3.792355054e-16
-1.469383447e-16
-5.193514548e-17
-1.547812687e-17
-4.837797585e-18
-1.872381647e-18
-6.936235198e-19
-1.683244197e-19
-5.362764121e-20
-2.035618106e-20
-6.628042317e-21
-2.967183846e-21
-9.232781988e-22
-6.166066153e-23
-1.753079396e-21
-1.518221529e-20
-2.70856447e-19
-9.107123568e-18
)


101
(
-7.873965015e-21
7.13494769e-10
4.397353611e-09
-1.671086103e-09
-7.145789098e-08
-2.331301123e-07
-4.665855052e-07
-8.528550493e-07
-1.364954884e-06
-1.990374716e-06
-2.694476621e-06
-3.437615241e-06
-4.17698971e-06
-4.847812163e-06
-5.404447225e-06
-5.802305443e-06
-6.006701368e-06
-6.016558738e-06
-5.824006599e-06
-5.473999949e-06
-4.99644239e-06
-4.433942097e-06
-3.844820988e-06
-3.260587231e-06
-2.710520456e-06
-2.216245058e-06
-1.786390315e-06
-1.42308851e-06
-1.124312243e-06
-8.826151799e-07
-6.902779622e-07
-5.386617697e-07
-4.194103795e-07
-3.296057047e-07
-2.578497369e-07
-2.022611581e-07
-1.582858163e-07
-1.234761895e-07
-9.674380338e-08
-7.655395502e-08
-6.092694138e-08
-4.844758554e-08
-3.845494588e-08
-3.0370203e-08
-2.385368835e-08
-1.871782369e-08
-1.46803415e-08
-1.154330772e-08
-9.06972743e-09
-7.117513965e-09
-5.558936699e-09
-4.31723527e-09
-3.337343104e-09
-2.574442596e-09
-1.981483887e-09
-1.514720853e-09
-1.151787406e-09
-8.712849949e-10
-6.58525916e-10
-4.915128009e-10
-3.634084187e-10
-2.688962986e-10
-1.964804413e-10
-1.429504338e-10
-1.037038975e-10
-7.417027934e-11
-5.236857839e-11
-3.654272503e-11
-2.507486688e-11
-1.728234488e-11
-1.164657011e-11
-7.718647181e-12
-5.02805331e-12
-3.236238492e-12
-2.030120673e-12
-1.245919976e-12
-7.545776622e-13
-4.441600012e-13
-2.51862569e-13
-1.389600594e-13
-7.543639023e-14
-4.094719771e-14
-2.086271556e-14
-1.037720554e-14
-4.998865545e-15
-2.28733204e-15
-9.691486721e-16
-3.985963816e-16
-1.673579065e-16
-7.005279349e-17
-2.597917584e-17
-9.029263033e-18
-3.483387865e-18
-1.214285699e-18
-4.814953995e-19
-1.474538084e-19
-1.575890912e-20
-4.530170208e-19
-3.491957359e-18
-5.328334415e-17
-6.533695584e-16
)


101
(
-8.481640116e-21
7.339758274e-10
4.688876899e-09
1.294310104e-09
-5.192616258e-08
-1.79524297e-07
-3.777370554e-07
-7.096334149e-07
-1.16958049e-06
-1.757076897e-06
-2.449452808e-06
-3.213874723e-06
-4.008045349e-06
-4.77047939e-06
-5.448281145e-06
-5.989123006e-06
-6.349003957e-06
-6.511850784e-06
-6.460954415e-06
-6.225586172e-06
-5.829704804e-06
-5.312631184e-06
-4.734725697e-06
-4.12814098e-06
-3.528126948e-06
-2.96577465e-06
-2.456666014e-06
-2.009792056e-06
-1.62932478e-06
-1.311250107e-06
-1.050149877e-06
-8.380527422e-07
-6.66005297e-07
-5.336865328e-07
-4.26674808e-07
-3.413101782e-07
-2.724327402e-07
-2.167600361e-07
-1.72816687e-07
-1.387828965e-07
-1.120829476e-07
-9.063954641e-08
-7.338387769e-08
-5.929733701e-08
-4.767254178e-08
-3.822538548e-08
-3.05998096e-08
-2.459164239e-08
-1.980111932e-08
-1.592769756e-08
-1.278601157e-08
-1.019913602e-08
-8.100991414e-09
-6.41863188e-09
-5.092687951e-09
-4.015215282e-09
-3.148108864e-09
-2.459419426e-09
-1.918010792e-09
-1.482383539e-09
-1.139383253e-09
-8.758048068e-10
-6.669216966e-10
-5.04382295e-10
-3.807933695e-10
-2.853806806e-10
-2.114834874e-10
-1.553587791e-10
-1.124996133e-10
-8.11020184e-11
-5.791977744e-11
-4.089765357e-11
-2.853390267e-11
-1.964470496e-11
-1.323592242e-11
-8.752314617e-12
-5.763667056e-12
-3.711699318e-12
-2.328418676e-12
-1.419877126e-12
-8.480456483e-13
-5.059361909e-13
-2.931860543e-13
-1.639924615e-13
-9.035249094e-14
-4.795248961e-14
-2.423062698e-14
-1.167094134e-14
-5.636381768e-15
-2.676806218e-15
-1.201763497e-15
-4.96696196e-16
-2.14523371e-16
-8.771747516e-17
-3.726949419e-17
-1.358457697e-17
-2.161460003e-18
-5.164348135e-17
-3.701096362e-16
-4.807525973e-15
-1.205153531e-12
)


101
(
-9.023227795e-21
7.33984314e-10
4.80423699e-09
3.132377882e-09
-3.899848077e-08
-1.445291741e-07
-3.211465946e-07
-6.216406369e-07
-1.054366604e-06
-1.626683423e-06
-2.324544641e-06
-3.120366052e-06
-3.974357657e-06
-4.828287575e-06
-5.626101897e-06
-6.310697654e-06
-6.830833346e-06
-7.157045146e-06
-7.262715014e-06
-7.161721914e-06
-6.868533834e-06
-6.416420214e-06
-5.867495298e-06
-5.251008249e-06
-4.605383179e-06
-3.972800295e-06
-3.376740789e-06
-2.833290456e-06
-2.354023038e-06
-1.940129078e-06
-1.589810531e-06
-1.297091587e-06
-1.052612842e-06
-8.590439433e-07
-7.007320793e-07
-5.721346309e-07
-4.660287419e-07
-3.781644846e-07
-3.072474618e-07
-2.508115034e-07
-2.056681111e-07
-1.68817103e-07
-1.39092624e-07
-1.146541124e-07
-9.418591213e-08
-7.717112727e-08
-6.302956616e-08
-5.15944627e-08
-4.239193292e-08
-3.485348797e-08
-2.866841758e-08
-2.341359899e-08
-1.906675953e-08
-1.550444161e-08
-1.261478865e-08
-1.021817109e-08
-8.254633411e-09
-6.640733461e-09
-5.334132343e-09
-4.24923543e-09
-3.366428451e-09
-2.669795613e-09
-2.102502123e-09
-1.649752248e-09
-1.289982392e-09
-1.004743883e-09
-7.747216345e-10
-5.951745565e-10
-4.518591499e-10
-3.409285662e-10
-2.560105681e-10
-1.899455872e-10
-1.399930438e-10
-1.019412481e-10
-7.303460403e-11
-5.14283194e-11
-3.608826117e-11
-2.495792529e-11
-1.701402145e-11
-1.131067515e-11
-7.358484542e-12
-4.723376787e-12
-3.014829702e-12
-1.855980455e-12
-1.129741946e-12
-6.690599144e-13
-3.851219584e-13
-2.109762768e-13
-1.150849452e-13
-6.129630238e-14
-3.140683459e-14
-1.516090232e-14
-7.488070629e-15
-3.546315249e-15
-1.699989038e-15
-7.280212143e-16
-1.635342951e-16
-3.038332991e-15
-1.954359757e-14
-2.082042378e-13
-8.462803913e-13
)


101
(
-9.498733194e-21
7.190933774e-10
4.797922313e-09
4.230933641e-09
-3.035780839e-08
-1.212391897e-07
-2.838898996e-07
-5.651941887e-07
-9.8299178e-07
-1.550536753e-06
-2.261363319e-06
-3.093081672e-06
-4.01027939e-06
-4.958826611e-06
-5.882052891e-06
-6.719932093e-06
-7.415439452e-06
-7.926301429e-06
-8.215036339e-06
-8.279526148e-06
-8.122018967e-06
-7.766323008e-06
-7.273964019e-06
-6.670870565e-06
-5.992758155e-06
-5.294608034e-06
-4.610626082e-06
-3.963830556e-06
-3.372866223e-06
-2.845201881e-06
-2.384638503e-06
-1.989115499e-06
-1.649309655e-06
-1.371348481e-06
-1.140453021e-06
-9.493227717e-07
-7.877013725e-07
-6.509250212e-07
-5.390954802e-07
-4.475608064e-07
-3.729200985e-07
-3.114986748e-07
-2.6077671e-07
-2.184861059e-07
-1.82759591e-07
-1.526999495e-07
-1.272192286e-07
-1.060901336e-07
-8.892758141e-08
-7.458633845e-08
-6.249753402e-08
-5.216648896e-08
-4.35045823e-08
-3.608746336e-08
-3.002984291e-08
-2.498437117e-08
-2.069035364e-08
-1.707366864e-08
-1.408679853e-08
-1.155058538e-08
-9.423464342e-09
-7.69699686e-09
-6.231353453e-09
-5.040686399e-09
-4.066706469e-09
-3.278803145e-09
-2.630367595e-09
-2.098227049e-09
-1.660092591e-09
-1.298514849e-09
-1.014164309e-09
-7.834167222e-10
-6.063304509e-10
-4.654181891e-10
-3.511881814e-10
-2.615852992e-10
-1.937357148e-10
-1.418871275e-10
-1.030692553e-10
-7.320195996e-11
-5.138051552e-11
-3.539619908e-11
-2.434848618e-11
-1.63041096e-11
-1.077001967e-11
-6.930307334e-12
-4.433366584e-12
-2.709623455e-12
-1.637882821e-12
-9.691572524e-13
-5.554965175e-13
-3.082997896e-13
-1.701796398e-13
-9.168580543e-14
-4.919796245e-14
-2.398613091e-14
-7.504127904e-15
-1.035139695e-13
-5.748182159e-13
-4.650516222e-12
-7.937414101e-11
)


101
(
-9.908162343e-21
6.935914015e-10
4.708577363e-09
4.847339159e-09
-2.449623247e-08
-1.053132042e-07
-2.582720321e-07
-5.269236129e-07
-9.358782165e-07
-1.503483125e-06
-2.230987613e-06
-3.101527901e-06
-4.085628582e-06
-5.134265022e-06
-6.191979244e-06
-7.197220709e-06
-8.08868156e-06
-8.811741764e-06
-9.31722622e-06
-9.587120656e-06
-9.608351787e-06
-9.39068438e-06
-8.989475618e-06
-8.435650729e-06
-7.750446878e-06
-7.003085489e-06
-6.239897178e-06
-5.490342838e-06
-4.779742933e-06
-4.12264149e-06
-3.53037196e-06
-3.008226583e-06
-2.548828877e-06
-2.159552402e-06
-1.827813446e-06
-1.548268868e-06
-1.308245272e-06
-1.101776261e-06
-9.308530284e-07
-7.868159733e-07
-6.661368129e-07
-5.644582641e-07
-4.796121011e-07
-4.078392884e-07
-3.467324554e-07
-2.949073968e-07
-2.503577271e-07
-2.12952361e-07
-1.81784603e-07
-1.550918461e-07
-1.323008332e-07
-1.127867798e-07
-9.608575679e-08
-8.153077906e-08
-6.931143306e-08
-5.879709129e-08
-4.988399672e-08
-4.201343106e-08
-3.548338164e-08
-2.988904948e-08
-2.500790106e-08
-2.098506981e-08
-1.747149131e-08
-1.453673648e-08
-1.20684273e-08
-9.999274783e-09
-8.27650482e-09
-6.80584416e-09
-5.566456994e-09
-4.522969194e-09
-3.665754401e-09
-2.950463404e-09
-2.363617573e-09
-1.885832954e-09
-1.489255445e-09
-1.165913537e-09
-9.045439455e-10
-6.952347641e-10
-5.33470035e-10
-4.016230466e-10
-2.976991242e-10
-2.193304298e-10
-1.598156419e-10
-1.155113195e-10
-8.15394328e-11
-5.643940023e-11
-3.916413624e-11
-2.623429011e-11
-1.731799221e-11
-1.119576612e-11
-7.054027591e-12
-4.354664727e-12
-2.659510589e-12
-1.602775826e-12
-9.625218785e-13
-5.275298459e-13
-2.085701897e-13
-2.168695038e-12
-1.02662717e-11
-6.158029685e-11
-2.84147949e-09
)


101
(
-1.025152018e-20
6.607693511e-10
4.563787143e-09
5.152644841e-09
-2.043550131e-08
-9.403249718e-08
-2.39710692e-07
-4.992451269e-07
-9.024476212e-07
-1.472486164e-06
-2.218937478e-06
-3.130708545e-06
-4.185679984e-06
-5.340999276e-06
-6.543841465e-06
-7.73253e-06
-8.842987503e-06
-9.809390415e-06
-1.056995471e-05
-1.109150465e-05
-1.134461071e-05
-1.13209471e-05
-1.106288092e-05
-1.060779327e-05
-9.957515191e-06
-9.193463731e-06
-8.372861419e-06
-7.530395354e-06
-6.697731887e-06
-5.899611853e-06
-5.155264409e-06
-4.478665376e-06
-3.869540549e-06
-3.340193033e-06
-2.876228046e-06
-2.477346332e-06
-2.131231097e-06
-1.830035836e-06
-1.575132171e-06
-1.353748127e-06
-1.164362548e-06
-1.000504287e-06
-8.628389878e-07
-7.443071577e-07
-6.427069297e-07
-5.563506684e-07
-4.810076551e-07
-4.162687493e-07
-3.608563224e-07
-3.128782646e-07
-2.715444605e-07
-2.359718297e-07
-2.050253085e-07
-1.778400626e-07
-1.535680376e-07
-1.328052972e-07
-1.151340802e-07
-9.918520682e-08
-8.560009793e-08
-7.380137957e-08
-6.323805821e-08
-5.421651883e-08
-4.635454193e-08
-3.954706554e-08
-3.363834866e-08
-2.849438118e-08
-2.424539763e-08
-2.050058918e-08
-1.731299779e-08
-1.451854339e-08
-1.213564566e-08
-1.007623444e-08
-8.357424444e-09
-6.909365575e-09
-5.671468345e-09
-4.608027259e-09
-3.722457028e-09
-2.990407696e-09
-2.390459972e-09
-1.888764747e-09
-1.471633612e-09
-1.143168846e-09
-8.768217113e-10
-6.702001255e-10
-5.035434303e-10
-3.699919324e-10
-2.725144793e-10
-1.960835962e-10
-1.38983521e-10
-9.743044979e-11
-6.613920604e-11
-4.468330531e-11
-2.975876236e-11
-1.958157717e-11
-1.290797801e-11
-7.911415178e-12
-3.830857168e-12
-2.873289726e-11
-1.161602197e-10
-5.431777155e-10
-2.648353321e-09
)


101
(
-1.053294558e-20
6.231547036e-10
4.38297788e-09
5.259491407e-09
-1.754070985e-08
-8.569120329e-08
-2.254769706e-07
-4.778621768e-07
-8.768807148e-07
-1.450599282e-06
-2.217697795e-06
-3.172873664e-06
-4.30263866e-06
-5.571656727e-06
-6.930941394e-06
-8.320165011e-06
-9.673218786e-06
-1.091566174e-05
-1.197375587e-05
-1.280078612e-05
-1.335146198e-05
-1.359529132e-05
-1.35574424e-05
-1.32689277e-05
-1.272286625e-05
-1.199721201e-05
-1.115128808e-05
-1.023146575e-05
-9.280280115e-06
-8.335113371e-06
-7.421916578e-06
-6.563023702e-06
-5.768735787e-06
-5.070098292e-06
-4.441816608e-06
-3.889418151e-06
-3.40384073e-06
-2.976669332e-06
-2.606693053e-06
-2.275254024e-06
-1.987954451e-06
-1.734318659e-06
-1.517402018e-06
-1.32929256e-06
-1.166288954e-06
-1.026201637e-06
-9.016820433e-07
-7.923496982e-07
-6.970278055e-07
-6.140075496e-07
-5.413330126e-07
-4.779931095e-07
-4.227646854e-07
-3.732120666e-07
-3.275952469e-07
-2.897585602e-07
-2.554286818e-07
-2.247217393e-07
-1.972448372e-07
-1.737141911e-07
-1.521997016e-07
-1.332690145e-07
-1.164323909e-07
-1.014178439e-07
-8.833989409e-08
-7.666168636e-08
-6.648979992e-08
-5.766191283e-08
-4.993591571e-08
-4.302969806e-08
-3.69926721e-08
-3.161981958e-08
-2.698509841e-08
-2.296141911e-08
-1.942411448e-08
-1.629101023e-08
-1.362961017e-08
-1.137258771e-08
-9.393389863e-09
-7.70962085e-09
-6.275585112e-09
-5.07493795e-09
-4.071884087e-09
-3.252450876e-09
-2.564557783e-09
-1.981747191e-09
-1.530666773e-09
-1.169499436e-09
-8.795365538e-10
-6.539682915e-10
-4.739716547e-10
-3.435353009e-10
-2.448329226e-10
-1.736042738e-10
-1.230298179e-10
-8.212648426e-11
-4.649512463e-11
-2.632941035e-10
-9.123741378e-10
-3.40118901e-09
-2.263462679e-08
)


101
(
-1.075872762e-20
5.826737204e-10
4.180102011e-09
5.242013986e-09
-1.540125427e-08
-7.921950293e-08
-2.139371955e-07
-4.603305254e-07
-8.559479797e-07
-1.433955987e-06
-2.223104868e-06
-3.223717712e-06
-4.431943171e-06
-5.821803562e-06
-7.349135154e-06
-8.95640244e-06
-1.057590793e-05
-1.212705803e-05
-1.352859192e-05
-1.472417466e-05
-1.564934699e-05
-1.625033698e-05
-1.652812701e-05
-1.648580057e-05
-1.611694197e-05
-1.549656758e-05
-1.468450346e-05
-1.373210071e-05
-1.269190043e-05
-1.161311904e-05
-1.052810554e-05
-9.470705976e-06
-8.46647541e-06
-7.570238902e-06
-6.745566154e-06
-6.003904407e-06
-5.340121886e-06
-4.745162753e-06
-4.217746835e-06
-3.740463198e-06
-3.318883432e-06
-2.940457364e-06
-2.609294532e-06
-2.319933186e-06
-2.065871316e-06
-1.84472134e-06
-1.646164931e-06
-1.468726915e-06
-1.310792911e-06
-1.17232104e-06
-1.049079114e-06
-9.400254176e-07
-8.442046555e-07
-7.574532284e-07
-6.776283672e-07
-6.087356785e-07
-5.458291612e-07
-4.88043383e-07
-4.359670632e-07
-3.906234454e-07
-3.490001601e-07
-3.114570973e-07
-2.776959346e-07
-2.467256632e-07
-2.186257213e-07
-1.941850779e-07
-1.719349172e-07
-1.521251917e-07
-1.34727134e-07
-1.186117947e-07
-1.043953056e-07
-9.156830069e-08
-7.997672264e-08
-6.970457607e-08
-6.046250476e-08
-5.219022517e-08
-4.49172763e-08
-3.848791551e-08
-3.285665697e-08
-2.780616997e-08
-2.334839696e-08
-1.952236298e-08
-1.623438453e-08
-1.338746632e-08
-1.098194506e-08
-8.876472572e-09
-7.109378137e-09
-5.668362802e-09
-4.458532151e-09
-3.469903623e-09
-2.659213401e-09
-2.033410219e-09
-1.52894902e-09
-1.142887437e-09
-8.604127717e-10
-6.161989518e-10
-3.933326578e-10
-1.737131862e-09
-5.19300528e-09
-1.589603278e-08
5.26229862e-08
)


101
(
-1.091848753e-20
5.407818485e-10
3.965005067e-09
5.148516659e-09
-1.375265918e-08
-7.394820739e-08
-2.041001413e-07
-4.452222549e-07
-8.379169745e-07
-1.420509952e-06
-2.232477651e-06
-3.280510596e-06
-4.570237428e-06
-6.086971513e-06
-7.793112396e-06
-9.635881342e-06
-1.154877076e-05
-1.344672557e-05
-1.524422152e-05
-1.6880051e-05
-1.825814803e-05
-1.930855013e-05
-2.000283983e-05
-2.0308408e-05
-2.02163264e-05
-1.979141584e-05
-1.910150906e-05
-1.819721632e-05
-1.713602467e-05
-1.596599079e-05
-1.472457908e-05
-1.346899486e-05
-1.224776692e-05
-1.113935839e-05
-1.008842016e-05
-9.117674293e-06
-8.228687671e-06
-7.416904092e-06
-6.685314671e-06
-6.021168953e-06
-5.422935789e-06
-4.877513605e-06
-4.389276706e-06
-3.95762877e-06
-3.573232733e-06
-3.232907518e-06
-2.926103328e-06
-2.649604866e-06
-2.398990096e-06
-2.180030836e-06
-1.977338016e-06
-1.79394752e-06
-1.635120032e-06
-1.488990777e-06
-1.353202155e-06
-1.230530972e-06
-1.122614656e-06
-1.019170024e-06
-9.266032355e-07
-8.425940884e-07
-7.66735774e-07
-6.95650938e-07
-6.305017692e-07
-5.699092503e-07
-5.152026454e-07
-4.655173666e-07
-4.193315097e-07
-3.782822454e-07
-3.399664025e-07
-3.05588582e-07
-2.742070427e-07
-2.45836749e-07
-2.19116866e-07
-1.948344055e-07
-1.725162754e-07
-1.51992435e-07
-1.337626281e-07
-1.176211176e-07
-1.026199161e-07
-8.911918357e-08
-7.675989935e-08
-6.597450125e-08
-5.627399816e-08
-4.763353601e-08
-4.021904449e-08
-3.36392657e-08
-2.775767061e-08
-2.28387561e-08
-1.858936059e-08
-1.501400102e-08
-1.197759095e-08
-9.527610602e-09
-7.463816342e-09
-5.831693044e-09
-4.573580869e-09
-3.456587039e-09
-2.395529972e-09
-8.57680362e-09
-2.255849369e-08
-5.873226159e-08
6.516407529e-08
)


101
(
-1.101223088e-20
4.985894344e-10
3.744449247e-09
5.010270616e-09
-1.242531392e-08
-6.946033701e-08
-1.953675043e-07
-4.316974301e-07
-8.218057713e-07
-1.409125106e-06
-2.243828007e-06
-3.341513231e-06
-4.715150318e-06
-6.363409527e-06
-8.257991123e-06
-1.035304688e-05
-1.258973514e-05
-1.488058679e-05
-1.713619412e-05
-1.930903883e-05
-2.122185344e-05
-2.281154924e-05
-2.401855662e-05
-2.478884243e-05
-2.510448898e-05
-2.499936329e-05
-2.455558108e-05
-2.38110483e-05
-2.282313271e-05
-2.163594959e-05
-2.029006829e-05
-1.886616316e-05
-1.744092888e-05
-1.612197442e-05
-1.482775818e-05
-1.359809513e-05
-1.244606734e-05
-1.13738513e-05
-1.039172526e-05
-9.494774208e-06
-8.675056995e-06
-7.919077183e-06
-7.230558037e-06
-6.605909579e-06
-6.038925737e-06
-5.533025742e-06
-5.073894256e-06
-4.654050788e-06
-4.274270393e-06
-3.937258654e-06
-3.615531613e-06
-3.3221367e-06
-3.070477889e-06
-2.833400493e-06
-2.612726911e-06
-2.410461231e-06
-2.229534035e-06
-2.05731984e-06
-1.895132413e-06
-1.747782795e-06
-1.615745663e-06
-1.489402014e-06
-1.367624079e-06
-1.255593438e-06
-1.155026056e-06
-1.058057394e-06
-9.70143397e-07
-8.859460976e-07
-8.103407798e-07
-7.403162339e-07
-6.743501489e-07
-6.146180941e-07
-5.576059377e-07
-5.045313747e-07
-4.544937522e-07
-4.071897318e-07
-3.654621034e-07
-3.266157284e-07
-2.904233032e-07
-2.575414011e-07
-2.260266976e-07
-1.97904744e-07
-1.725869302e-07
-1.492425859e-07
-1.281508229e-07
-1.096841081e-07
-9.313887079e-08
-7.821664815e-08
-6.543281873e-08
-5.440429023e-08
-4.459156941e-08
-3.659585829e-08
-2.947798383e-08
-2.374767337e-08
-1.924046649e-08
-1.511385895e-08
-1.106413174e-08
-3.307331258e-08
-7.745392969e-08
-1.789812739e-07
-1.247070796e-06
)


101
(
-1.103996306e-20
4.569251934e-10
3.522936325e-09
4.847354575e-09
-1.13110853e-08
-6.54941942e-08
-1.873732034e-07
-4.192444167e-07
-8.07076078e-07
-1.399216595e-06
-2.256008887e-06
-3.405028553e-06
-4.864671474e-06
-6.648454787e-06
-8.741194053e-06
-1.110566589e-05
-1.369635375e-05
-1.642839631e-05
-1.920609153e-05
-2.20040494e-05
-2.453578805e-05
-2.676928804e-05
-2.862037298e-05
-2.999710259e-05
-3.088164953e-05
-3.126438552e-05
-3.123207146e-05
-3.078961454e-05
-2.999390382e-05
-2.889676492e-05
-2.755925276e-05
-2.606091869e-05
-2.446838382e-05
-2.297112742e-05
-2.14317168e-05
-1.992642269e-05
-1.848500923e-05
-1.712001441e-05
-1.585497322e-05
-1.468176023e-05
-1.360816116e-05
-1.259767188e-05
-1.165764306e-05
-1.079132873e-05
-9.992760163e-06
-9.265015871e-06
-8.592844246e-06
-7.981574978e-06
-7.422489437e-06
-6.916372879e-06
-6.433685922e-06
-5.987609903e-06
-5.598596608e-06
-5.231757856e-06
-4.891929196e-06
-4.5748481e-06
-4.283870808e-06
-4.009942905e-06
-3.742754974e-06
-3.49786318e-06
-3.267781308e-06
-3.054241663e-06
-2.840540233e-06
-2.648603222e-06
-2.470505461e-06
-2.2925271e-06
-2.128199675e-06
-1.971157248e-06
-1.829961578e-06
-1.692846135e-06
-1.561484143e-06
-1.442664904e-06
-1.325994989e-06
-1.218298113e-06
-1.11436107e-06
-1.011650519e-06
-9.197141006e-07
-8.31325567e-07
-7.52359501e-07
-6.756243466e-07
-6.021725324e-07
-5.358797837e-07
-4.735769773e-07
-4.165134644e-07
-3.64461655e-07
-3.159660779e-07
-2.730647637e-07
-2.336266005e-07
-1.98705677e-07
-1.685286343e-07
-1.406044035e-07
-1.176474454e-07
-9.710047708e-08
-7.989850544e-08
-6.627083005e-08
-5.336959509e-08
-4.061448955e-08
-1.055408719e-07
-2.26001407e-07
-4.770829542e-07
1.323811415e-06
)


101
(
-1.100168972e-20
4.163924707e-10
3.303310862e-09
4.672285339e-09
-1.034145083e-08
-6.188696955e-08
-1.798912297e-07
-4.07532117e-07
-7.934725934e-07
-1.390630889e-06
-2.26832222e-06
-3.46924118e-06
-5.016744397e-06
-6.940519139e-06
-9.242465015e-06
-1.18957637e-05
-1.486940474e-05
-1.808473114e-05
-2.144162608e-05
-2.49270591e-05
-2.817012356e-05
-3.116797086e-05
-3.384554456e-05
-3.600268133e-05
-3.765865803e-05
-3.875465374e-05
-3.933688641e-05
-3.936824391e-05
-3.892508693e-05
-3.807880282e-05
-3.690782552e-05
-3.547842379e-05
-3.381617215e-05
-3.221494113e-05
-3.04675672e-05
-2.870832551e-05
-2.69871332e-05
-2.532206675e-05
-2.376346928e-05
-2.23087409e-05
-2.094162547e-05
-1.963688131e-05
-1.842212082e-05
-1.727076431e-05
-1.617968908e-05
-1.517059689e-05
-1.423476425e-05
-1.338837569e-05
-1.258151896e-05
-1.184788181e-05
-1.116209345e-05
-1.052146887e-05
-9.936999763e-06
-9.401445182e-06
-8.895370508e-06
-8.402865586e-06
-7.965798645e-06
-7.556110021e-06
-7.136179788e-06
-6.740520596e-06
-6.371224714e-06
-6.02310073e-06
-5.675900803e-06
-5.366370209e-06
-5.046775025e-06
-4.755547857e-06
-4.469204736e-06
-4.184771872e-06
-3.923519596e-06
-3.66422844e-06
-3.423130922e-06
-3.194182357e-06
-2.970793119e-06
-2.761611331e-06
-2.557049287e-06
-2.350111409e-06
-2.149948634e-06
-1.970451227e-06
-1.798752245e-06
-1.632122927e-06
-1.475568179e-06
-1.328777095e-06
-1.183472701e-06
-1.054092419e-06
-9.330279764e-07
-8.195361166e-07
-7.159883936e-07
-6.214764079e-07
-5.342812496e-07
-4.583108002e-07
-3.883136952e-07
-3.282617286e-07
-2.759215189e-07
-2.301427187e-07
-1.938444094e-07
-1.592591717e-07
-1.249583932e-07
-2.906450278e-07
-5.806272438e-07
-1.16682487e-06
8.578613527e-07
)


101
(
-1.089741626e-20
3.773666669e-10
3.096386057e-09
4.492644763e-09
-9.4733119e-09
-5.853741217e-08
-1.727807435e-07
-3.963306568e-07
-7.807670833e-07