/*--------------------------------*- C++ -*----------------------------------*\
| =========                 |                                                 |
| \\      /  F ield         | OpenFOAM: The Open Source CFD Toolbox           |
|  \\    /   O peration     | Version:  2.3.1                                 |
|   \\  /    A nd           | Web:      www.OpenFOAM.org                      |
|    \\/     M anipulation  |                                                 |
\*---------------------------------------------------------------------------*/
FoamFile
{
    version     2.0;
    format      ascii;
    class       dictionary;
    location    "constant";
    object      rCO;
}
// * * * * * * * * * * * * * * * * * * * * * * * * * * * * * * * * * * * * * //

rCO_table
101
(

101
(
-0.004193995884
-1.112952474
-6.050868145
-15.31019201
-28.08678882
-43.28111381
-59.76956467
-76.38925278
-92.21270302
-106.4651498
-118.4172256
-127.5255554
-133.4348744
-135.7186459
-134.4161389
-129.7040187
-121.9418901
-111.7540547
-99.99102624
-87.44512409
-74.86155328
-62.78982969
-51.81359407
-42.10547277
-33.72582738
-26.6583963
-20.80640292
-16.02943638
-12.19904783
-9.150355075
-6.749027447
-4.865517664
-3.383422129
-2.284777758
-1.435489334
-0.7932917447
-0.3785306897
-0.1167447935
0.1749512358
0.3812324493
0.5235256649
0.6152630189
0.6693452087
0.6945346793
0.6963699949
0.6828273917
0.6566800512
0.6234071243
0.5842621398
0.5426840684
0.4991373819
0.4554471803
0.4126790446
0.3713889768
0.3314835388
0.2935477573
0.2594333743
0.2268266746
0.1976806652
0.1708250592
0.1468547147
0.1253373391
0.1061541669
0.08941058788
0.07464631109
0.06175708325
0.05062762967
0.04112193931
0.03315011783
0.02641123315
0.0208455593
0.01626054966
0.01258874698
0.009614272628
0.007541600383
0.005806735215
0.004248247935
0.003076826857
0.00218947746
0.001521324667
0.001030376617
0.0006957690916
0.000456001024
0.0003273317644
0.0002213008907
0.0001366634486
8.215273684e-05
4.78453253e-05
2.701684082e-05
1.837398067e-05
9.605642833e-06
4.469724477e-06
2.077594663e-06
9.206495367e-07
3.687140241e-07
9.629962516e-08
-4.917161542e-14
1.102280027e-32
4.028022031e-24
-3.600852737e-24
0
)


101
(
-0.004174681428
-1.087514163
-5.907430563
-14.95374605
-27.44301422
-42.29857501
-58.42617568
-74.69761454
-90.21499106
-104.2291092
-116.0482047
-125.1465271
-131.1821215
-133.7628363
-132.8875892
-128.7097803
-121.5501142
-111.9662044
-100.7301425
-88.6034936
-76.30430804
-64.39702799
-53.42652777
-43.63686659
-35.1209458
-27.88236268
-21.84741367
-16.89303587
-12.89183463
-9.69459657
-7.165515761
-5.178390504
-3.61780373
-2.43209755
-1.525898652
-0.8357130464
-0.3426658102
-0.003467842187
0.2772462198
0.4898398686
0.6357738612
0.7282976536
0.7802653838
0.801908503
0.8002358312
0.7818348519
0.7510934049
0.7121411269
0.6676508334
0.6201391715
0.5711605969
0.5220456794
0.4738642572
0.4273116517
0.3827689894
0.3405826922
0.3015542486
0.2653695561
0.2322474796
0.2020558132
0.1747535422
0.1502230581
0.1282711458
0.1088031085
0.09166563496
0.07669036119
0.06366025811
0.05241089983
0.04278535911
0.03462303417
0.02776727762
0.02205004676
0.01732604388
0.01343972536
0.01042923646
0.008101416923
0.006182723601
0.004624933302
0.00339709274
0.002449010848
0.001733769075
0.001206194405
0.0008229097958
0.0005602849946
0.0003815387289
0.0002548412838
0.0001654635614
0.0001038220392
6.341960622e-05
3.847361808e-05
2.288197887e-05
1.315787068e-05
7.10371236e-06
3.623653392e-06
1.80974648e-06
7.540453448e-07
1.524606584e-07
2.386555168e-07
4.370975032e-07
9.688192141e-07
2.122053483e-06
)


101
(
-0.004155398357
-1.062404085
-5.766101548
-14.60273247
-26.80992801
-41.33450755
-57.11165445
-73.04760591
-88.27402085
-102.0668759
-113.7697331
-122.8746425
-129.0517629
-131.9388371
-131.5029486
-127.8717513
-121.3289776
-112.3710584
-101.6942802
-90.02461685
-78.04786006
-66.33509785
-55.41036936
-45.56032228
-36.91523169
-29.50347799
-23.27417078
-18.12309599
-13.93030987
-10.55797102
-7.873833656
-5.754098245
-4.084716373
-2.797414548
-1.808194932
-1.051928601
-0.4911764622
-0.08585550114
0.2245500958
0.4596325921
0.6261169361
0.7354915549
0.8001951935
0.831370694
0.8373525
0.8247981704
0.7986540808
0.7628746672
0.7205327399
0.6741262891
0.6255495421
0.5762537664
0.5273852017
0.4797144158
0.4337447534
0.3898915769
0.3486393616
0.3101849411
0.2746348046
0.2419404312
0.212082078
0.1849444574
0.1603792636
0.1383064962
0.1186097162
0.1011395681
0.08568845479
0.07210806276
0.0602608618
0.04997276616
0.04113018567
0.03356668381
0.02717879417
0.02177528362
0.01728711351
0.01363860225
0.01067755089
0.008276001366
0.006338756433
0.004785988643
0.003562706189
0.00261227038
0.001885926754
0.001339962892
0.0009396648227
0.000651254777
0.0004499365318
0.0003058269143
0.0002027775296
0.0001326378733
8.489017613e-05
5.327947043e-05
3.362587508e-05
2.027879548e-05
1.217392365e-05
6.648398145e-06
2.357865683e-06
4.247177013e-06
7.670049116e-06
1.52379362e-05
2.785355073e-05
)


101
(
-0.004136146668
-1.037620673
-5.626862191
-14.2570804
-26.18731195
-40.38837038
-55.8248935
-71.43722421
-86.3864773
-99.973342
-111.5746247
-120.700103
-127.0310287
-130.231079
-130.2423374
-127.165863
-121.2499036
-112.93438
-102.8430774
-91.66220817
-80.042084
-68.55234922
-57.70610134
-47.81676412
-39.04999717
-31.46269816
-25.02786733
-19.66129292
-15.25493608
-11.68153298
-8.814857021
-6.534397246
-4.727589228
-3.318210482
-2.223252872
-1.378108286
-0.7396787338
-0.2637311181
0.09635400877
0.3695124159
0.5694873162
0.7078224384
0.7964647607
0.8468542278
0.868350978
0.8684013709
0.8525115654
0.8249160036
0.7888351503
0.7470032121
0.7014715132
0.653988595
0.605900867
0.5581347218
0.5113357788
0.466071392
0.4226501086
0.3814913033
0.3428706131
0.3067883801
0.2733580787
0.2425172016
0.2141642068
0.1882487185
0.1646795279
0.1433358218
0.1240994286
0.10681368
0.09144176108
0.07779074965
0.06573637355
0.05514421718
0.0459490135
0.03797765732
0.03110728248
0.02525961193
0.02033798151
0.01623664326
0.01285036643
0.01007368108
0.007814631024
0.005984351145
0.004523907486
0.003371038703
0.002474546048
0.001790055422
0.001280845546
0.0009145819862
0.0006430048533
0.0004423761924
0.0002997324474
0.0002010932537
0.0001359920786
8.95117234e-05
5.852697119e-05
3.543323934e-05
1.490358093e-05
2.957775981e-05
5.347121942e-05
0.0001025149136
0.0001948762056
)


101
(
-0.004116926359
-1.013162401
-5.489693927
-13.91672084
-25.57495513
-39.45964304
-54.56483421
-69.86456967
-84.54923769
-97.94372935
-109.4562146
-118.6139002
-125.1083528
-128.6255994
-129.0882892
-126.5712563
-121.2884452
-113.6275077
-104.1436113
-93.47949126
-82.24788354
-71.00994641
-60.2724414
-50.36626764
-41.48854418
-33.72596733
-27.07702354
-21.47894931
-16.83866338
-13.04021695
-9.964906162
-7.496955379
-5.525754681
-3.972121936
-2.750611126
-1.79722011
-1.063139569
-0.5046860735
-0.07929643319
0.2457717941
0.4902993935
0.6676980757
0.7896786408
0.8676417018
0.9115652407
0.9298086635
0.9286694837
0.9129569274
0.8861862328
0.8514125123
0.8108368779
0.7664735545
0.7199670709
0.6725594866
0.6250336663
0.5780154707
0.5321295923
0.4876743903
0.4451652619
0.4046168262
0.3663793152
0.3305306671
0.2970122042
0.2658675736
0.2370192259
0.2102981491
0.185714081
0.1632024059
0.1427471906
0.1242299892
0.1074381403
0.09233186797
0.07885889626
0.06691899744
0.05636227087
0.04708901253
0.03899226954
0.03203457093
0.02610010352
0.02108812201
0.01689949793
0.01339817433
0.01050649336
0.008140370971
0.006221237598
0.004687961268
0.003482546048
0.002567150724
0.001885722138
0.001362022603
0.0009651940139
0.0006743262329
0.0004685804393
0.000326226218
0.0002251791196
0.0001459156187
7.294785247e-05
0.0001465967485
0.0002569429325
0.0004706527887
0.0007511545676
)


101
(
-0.004097737425
-0.9890277486
-5.35457851
-13.58158665
-24.97265417
-38.54782704
-53.33046966
-68.327862
-82.7594097
-95.97367114
-107.4084927
-116.6081018
-123.273683
-127.1105776
-128.0263867
-126.0708976
-121.4250802
-114.4279502
-105.5701411
-95.44828465
-84.63584828
-73.67951728
-63.08087902
-53.18246843
-44.20834841
-36.27484046
-29.4070335
-23.5650079
-18.67307364
-14.62799066
-11.32016949
-8.639152832
-6.477800084
-4.756903794
-3.387788924
-2.305905708
-1.459000642
-0.8027812627
-0.2965978992
0.09424373136
0.3944125091
0.6203699465
0.7844470299
0.8980851403
0.9714854597
1.013704599
1.032000202
1.032098372
1.018015899
0.9930791027
0.9596968277
0.9201185463
0.8763273937
0.8299918961
0.782203826
0.7336204079
0.6850670633
0.6369567483
0.5900656781
0.5443365929
0.5002371444
0.45823889
0.4182248872
0.3804443065
0.344915883
0.3114018227
0.2799159405
0.250483148
0.2231364575
0.1980480171
0.1748194935
0.1534439438
0.1338817584
0.1161520834
0.1001366841
0.08574509376
0.07287553063
0.06146023246
0.05138557246
0.04263526377
0.03511022335
0.02869617328
0.02320367946
0.01858024099
0.01469965656
0.01149022741
0.008844525053
0.006734380574
0.005092605357
0.003825223827
0.002816591281
0.002049159748
0.001477443327
0.001055368463
0.0007574019344
0.000515342464
0.0002874198954
0.0005482463002
0.0009433189826
0.001887088198
0.00315890822
)


101
(
-0.004078579873
-0.9652152512
-5.221498131
-13.2516128
-24.3802136
-37.65244606
-52.12084345
-66.82542153
-81.0142864
-94.05910423
-105.425898
-114.6754412
-121.5178923
-125.6753773
-127.0438802
-125.6498329
-121.6428299
-115.3164147
-107.1007988
-97.54494756
-87.18163117
-76.53800935
-66.1096338
-56.24634822
-47.19463638
-39.0992622
-32.0124314
-25.9181207
-20.76004345
-16.44931108
-12.88689763
-9.969019844
-7.59270076
-5.681144457
-4.142950267
-2.912380049
-1.934475743
-1.163707237
-0.5603178497
-0.08869443924
0.2795446717
0.564337261
0.7796483407
0.937472378
1.0481476
1.121133619
1.16453702
1.185220033
1.187966255
1.176461374
1.15346855
1.121305671
1.082285941
1.038519379
0.9916500624
0.9423706073
0.8916481748
0.8400915682
0.7886405961
0.7374104998
0.687027882
0.6381019934
0.5906442543
0.544949356
0.5013338645
0.4596204719
0.4197094255
0.3816814543
0.345610976
0.3118166845
0.2801650149
0.250549535
0.2228779891
0.197197887
0.1734920752
0.1517477905
0.1319511253
0.1139291468
0.09758199129
0.08295846487
0.07001823774
0.05874364403
0.04883079827
0.04022864227
0.03283089456
0.02649676347
0.02109681243
0.01658350967
0.01292752572
0.01002663493
0.007643521867
0.00573622217
0.004285121762
0.003160906509
0.00233849524
0.001625820482
0.0009665916645
0.001998273409
0.003475849934
0.006950380144
0.01092005268
)


101
(
-0.004059453687
-0.9417234518
-5.090435145
-12.92673567
-23.79744632
-36.77305345
-50.93507455
-65.35571644
-79.3113672
-92.19628074
-103.5033484
-112.8093194
-119.8328065
-124.3105179
-126.1296277
-125.2950825
-121.9268977
-116.2761715
-108.7167039
-99.74914281
-89.86440796
-79.56582797
-69.34074172
-59.54282697
-50.43657376
-42.19327842
-34.89223173
-28.54194533
-23.10703359
-18.51460366
-14.67771497
-11.50065529
-8.885469665
-6.75960226
-5.030030371
-3.6298976
-2.501786776
-1.598452754
-0.8802895479
-0.3113600299
0.1392797308
0.4949127537
0.7718966089
0.9834655077
1.140383389
1.252393833
1.328135944
1.375490748
1.400335516
1.406983507
1.398632709
1.377641018
1.346705277
1.308258143
1.264384248
1.216171832
1.164841241
1.110928438
1.055647791
0.9991831313
0.9423949587
0.886169076
0.8306551873
0.7763074746
0.7235151072
0.6723514813
0.6226096053
0.5745165023
0.5280166254
0.4835587728
0.4413178827
0.4011321861
0.362990126
0.3268753514
0.292885
0.2610330201
0.2315301107
0.2041878249
0.1788794224
0.1555874783
0.1343425714
0.1153162383
0.09832846525
0.0831025823
0.069708515
0.0579282637
0.04758195781
0.03858028765
0.03101971006
0.02476047187
0.01955442406
0.0151375784
0.01166355409
0.008896636668
0.006741110014
0.004879288454
0.003080086653
0.006599610569
0.01149666129
0.02318498507
0.03629130627
)


101
(
-0.00404035888
-0.9185509435
-4.961372428
-12.60689388
-23.2241734
-35.90922836
-49.77235086
-63.91735977
-77.64835209
-90.38176001
-101.6361977
-111.0038018
-118.2111407
-123.0076425
-125.2738941
-124.9953721
-122.2644154
-117.2926092
-110.4012751
-102.0429035
-92.66576242
-82.7456346
-72.75859488
-63.05929876
-53.92587454
-45.5535685
-38.04821737
-31.44313547
-25.72484428
-20.83789661
-16.7089928
-13.25195372
-10.37486588
-8.01092686
-6.066701673
-4.474945915
-3.176119202
-2.120921518
-1.269205203
-0.5848849959
-0.03533748439
0.4055906255
0.7566919778
1.033107878
1.246618786
1.407429447
1.524552523
1.606607921
1.660650959
1.691723536
1.703483554
1.698827185
1.680689088
1.65144258
1.614006909
1.569940113
1.520439712
1.466262655
1.408954389
1.348685912
1.286465781
1.223434291
1.159732173
1.096360144
1.033789426
0.972419401
0.9120403081
0.8526470957
0.7942176872
0.7369954369
0.6818240203
0.6285385009
0.5775709524
0.5285424049
0.4813736171
0.43631762
0.3937665724
0.3536898245
0.3159766734
0.2804593563
0.2473507849
0.216800455
0.1890985924
0.1636016922
0.1406340162
0.1198108297
0.1012908757
0.08451762146
0.06997636245
0.05747661934
0.04674539588
0.03735581603
0.029738544
0.02346589854
0.01831230302
0.01385744583
0.009201482793
0.01972692201
0.03422446568
0.06876321891
0.1124829899
)


101
(
-0.004021295427
-0.8956963102
-4.83429296
-12.29202778
-22.66022228
-35.06056546
-48.63189431
-62.50904225
-76.02309038
-88.61232902
-99.8201156
-109.253394
-116.6462013
-121.7591156
-124.467897
-124.7406021
-122.6438766
-118.3526584
-112.1396154
-104.409944
-95.56885911
-86.06146225
-76.34888651
-66.78441929
-57.65556328
-49.17831271
-41.48373664
-34.6298784
-28.62589396
-23.43501058
-18.99904105
-15.24287079
-12.08181305
-9.456166116
-7.273239969
-5.466518256
-3.974924103
-2.746978639
-1.741428003
-0.921957868
-0.2549012681
0.288054137
0.7281205549
1.082673972
1.365059792
1.586287459
1.755770896
1.882741315
1.975007973
2.03854283
2.077865938
2.096568799
2.097642018
2.083585034
2.057683501
2.021864575
1.978200252
1.926914035
1.870529343
1.809138314
1.743511906
1.675353441
1.604646829
1.532798399
1.46049071
1.38838464
1.316709457
1.245108543
1.173647387
1.102499564
1.03260828
0.9640934853
0.8973561076
0.8324924051
0.7692935892
0.7079085676
0.6486021723
0.5918690564
0.5379075351
0.4860496278
0.4365219649
0.3900365919
0.3468528503
0.3066615026
0.2692117104
0.2345049539
0.203235893
0.1741155034
0.1480087227
0.1248918139
0.1043604597
0.0861069852
0.07061366317
0.05751320502
0.04623190614
0.03623400947
0.02578441102
0.05392851599
0.09261745106
0.1807882432
0.3077392801
)


101
(
-0.004002263354
-0.8731582354
-4.709180446
-11.98208112
-22.10543199
-34.22668433
-47.51296516
-61.12951303
-74.43361306
-86.88509756
-98.05115893
-107.5530363
-115.1318004
-120.5578654
-123.7035523
-124.5215104
-123.0546879
-119.4442275
-113.9178278
-106.8348151
-98.55746878
-89.49779582
-80.09815608
-70.70741833
-61.61902129
-53.06596324
-45.2024587
-38.11078068
-31.82318499
-26.32263852
-21.56735373
-17.4947307
-14.028718
-11.11812949
-8.671972617
-6.625696393
-4.917588003
-3.494222075
-2.312992211
-1.337001768
-0.5317396044
0.1325928061
0.6792342569
1.127863177
1.493821118
1.789362321
2.024368942
2.208514649
2.350195175
2.456524732
2.532959968
2.583945883
2.612710343
2.621829869
2.614126589
2.592927113
2.560865232
2.517832427
2.466958695
2.40862728
2.343256017
2.272768326
2.197729022
2.119263692
2.038254369
1.95563653
1.872927148
1.789165146
1.704690701
1.619002331
1.533151516
1.447489885
1.363016467
1.279887719
1.197948444
1.116908548
1.037263108
0.959951553
0.8852439324
0.8125679295
0.7418009301
0.6741760627
0.6099342099
0.5494620526
0.4918053017
0.436806941
0.386454074
0.3389753208
0.2950193021
0.2553607045
0.2187161033
0.1856398137
0.1566124232
0.1313623431
0.1089704976
0.08824928575
0.06622304441
0.1357101613
0.2304495873
0.4280325054
0.6712029701
)


101
(
-0.003983262674
-0.8509353698
-4.586018595
-11.67699839
-21.55964598
-33.4072183
-46.414855
-59.77758345
-72.87807372
-85.19740013
-96.32567446
-105.8980538
-113.66222
-119.3973607
-122.9734574
-124.329662
-123.4871552
-120.5561444
-115.7229949
-109.3029979
-101.6159866
-93.03922257
-83.99273901
-74.81706079
-65.80885192
-57.21396198
-49.20696241
-41.89350166
-35.32912254
-29.51729519
-24.43375044
-20.02972313
-16.23918117
-13.02106808
-10.28696478
-7.975512013
-6.025495751
-4.382158576
-3.001531526
-1.845808356
-0.8795468739
-0.07186818992
0.6018700789
1.163566709
1.630705291
2.017068944
2.333206894
2.589263397
2.79428849
2.95642927
3.0819962
3.176392156
3.243520907
3.285872734
3.305977009
3.30885234
3.296114985
3.26878739
3.229752559
3.180809444
3.121676453
3.054098256
2.979052374
2.897620063
2.81134919
2.720877327
2.628108235
2.533547848
2.437025866
2.337671428
2.236354163
2.133250254
2.029833386
1.926627914
1.823741982
1.720597154
1.617828072
1.516634034
1.416648511
1.318516354
1.221792959
1.127346519
1.036120824
0.9489716373
0.8643248709
0.7815019601
0.7039987581
0.6306905542
0.5611233221
0.4961954082
0.4349367299
0.3787974013
0.3278052229
0.2823063521
0.2412076399
0.2021073101
0.160354868
0.3135658769
0.5229598983
0.93012967
1.442842667
)


101
(
-0.003964293425
-0.8290264153
-4.46479162
-11.37672605
-21.02271369
-32.60181493
-45.33688206
-58.45212091
-71.35476025
-83.5467666
-94.64025712
-104.2841173
-112.2321859
-118.2715715
-122.2708095
-124.1573268
-123.9324501
-121.6781493
-117.543131
-111.8007804
-104.7290998
-96.66980106
-88.01744641
-79.10003843
-70.2145693
-61.61613523
-53.49660565
-45.98320883
-39.15435691
-33.03441168
-27.61758919
-22.87023604
-18.73764814
-15.19042162
-12.14378854
-9.540773312
-7.321917314
-5.432099522
-3.826368505
-2.465646713
-1.313389752
-0.3377882306
0.4865413569
1.18337517
1.772270547
2.268826428
2.684762113
3.030730378
3.316201691
3.550376757
3.74023032
3.892271888
4.011336091
4.10008224
4.161120271
4.199539902
4.217514679
4.215928023
4.198539957
4.167786366
4.123636865
4.067206024
3.999849287
3.922315461
3.83631831
3.743920754
3.645793063
3.543746232
3.438511488
3.328218735
3.21416695
3.095956971
2.974428275
2.851121818
2.726645531
2.600825132
2.473531446
2.345867645
2.218218235
2.090621254
1.962968113
1.836428988
1.712128782
1.590968031
1.472457903
1.35406986
1.239432763
1.130369807
1.025307426
0.9244654208
0.8272931276
0.7370702968
0.6528816513
0.5752918599
0.5043591987
0.4356740005
0.3627097258
0.677479083
1.103224129
1.865922904
2.776043512
)


101
(
-0.003945355535
-0.8074301126
-4.345484059
-11.08121194
-20.49449001
-31.81013563
-44.27838379
-57.15202933
-69.86211215
-81.93097814
-92.99171551
-102.7071909
-110.836786
-117.1747916
-121.5891549
-123.9972268
-124.382473
-122.8010596
-119.3673848
-114.3153595
-107.8817836
-100.3729002
-92.15542464
-83.54116872
-74.82391671
-66.26432904
-58.06843385
-50.38273326
-43.30748709
-36.8878303
-31.13716977
-26.03812299
-21.54854679
-17.65220781
-14.26911045
-11.34788148
-8.832106836
-6.667469828
-4.808742604
-3.215483812
-1.849893188
-0.679221299
0.3222303432
1.179643333
1.914313657
2.54376412
3.081422515
3.538709589
3.925545614
4.252075815
4.52508714
4.752547253
4.941106548
5.093221887
5.211586579
5.300895693
5.365442987
5.404253768
5.422787092
5.423191897
5.407080466
5.373944004
5.32567435
5.263256497
5.188803102
5.1037011
5.008802168
4.907194859
4.799099806
4.684824909
4.56422512
4.437117391
4.302473512
4.162561161
4.018546656
3.870922008
3.720227876
3.567342389
3.410632885
3.251854028
3.089919117
2.927229351
2.763986268
2.601659846
2.441677565
2.27976615
2.117320369
1.960504104
1.807609794
1.658544865
1.510958031
1.372013137
1.239110365
1.114614173
0.9980161915
0.88477681
0.7659300461
1.362369535
2.157478827
3.475443731
5.057975346
)


101
(
-0.003926448988
-0.7861452137
-4.228080641
-10.79040512
-19.9748341
-31.03185527
-43.23872826
-55.87626237
-68.39865076
-80.34798606
-91.37709579
-101.1635344
-109.471495
-116.1017608
-120.9225421
-123.8426205
-124.829662
-123.9162957
-121.185535
-116.8346838
-111.0596698
-104.1321181
-96.38933408
-88.1239815
-79.62291314
-71.14840832
-62.9171836
-55.09230597
-47.79441949
-41.08902132
-35.00902975
-29.55413974
-24.69587419
-20.43263388
-16.69042734
-13.42466723
-10.58321963
-8.113804281
-5.971905969
-4.116283579
-2.507609569
-1.111919705
0.09647454317
1.143517527
2.051811936
2.840795556
3.525922491
4.11967363
4.632803369
5.07594227
5.455677969
5.781371731
6.061724389
6.298915833
6.496296916
6.658274032
6.789968228
6.89011447
6.963396722
7.013690093
7.044042669
7.052629399
7.040289457
7.010104292
6.96416969
6.901594197
6.825594156
6.736913755
6.639715868
6.533090538
6.416840457
6.291667924
6.154768711
6.007901918
5.85182864
5.68745085
5.518417075
5.343492104
5.161165908
4.972978909
4.775480082
4.573498358
4.367902357
4.158664653
3.947698661
3.733448313
3.514028607
3.294915283
3.079672674
2.867836278
2.651547107
2.446561986
2.243184623
2.05197585
1.86963103
1.692645767
1.506401008
2.550338883
3.918205495
6.047217571
8.760512479
)


101
(
-0.003907573796
-0.7651705377
-4.112566555
-10.50425644
-19.46361016
-30.26666031
-42.21731437
-54.62382277
-66.96297932
-78.79589538
-89.79377951
-99.64963025
-108.1321177
-115.0476958
-120.2656197
-123.6874423
-125.2669059
-125.0154255
-122.9872492
-119.3456125
-114.2474123
-107.9303458
-100.7014071
-92.83103948
-84.59586356
-76.256021
-68.03498303
-60.10931407
-52.61820268
-45.64677883
-39.24746208
-33.43736861
-28.20252882
-23.5574985
-19.43544346
-15.79979903
-12.6038558
-9.798608518
-7.341417993
-5.191151741
-3.306863404
-1.65350227
-0.205296624
1.064285828
2.178672248
3.158502374
4.021207795
4.781279197
5.450128433
6.038895166
6.554827142
7.007620105
7.407397454
7.757536622
8.061895999
8.324489039
8.550947751
8.740216806
8.895383671
9.021656732
9.122627495
9.19869955
9.247967129
9.275907929
9.283023116
9.267037484
9.232182787
9.179462886
9.11447084
9.034734423
8.941333169
8.836179236
8.714181113
8.578133347
8.426020399
8.256536581
8.077553703
7.888087981
7.689398047
7.47689701
7.24771424
7.007466389
6.755922606
6.496292078
6.228753267
5.950874261
5.662665224
5.367017765
5.0700121
4.776735358
4.469262119
4.174999818
3.87680975
3.592007235
3.318816367
3.051888106
2.770956637
4.483722432
6.68416006
9.935345779
13.64058284
)


101
(
-0.003888729985
-0.7445049535
-3.998927363
-10.22271813
-18.9606878
-29.51425183
-41.21357101
-53.39375899
-65.55377107
-77.2729465
-88.23941287
-98.16220204
-106.8147411
-114.0082303
-119.6135329
-123.526211
-125.6876125
-126.0902551
-124.7622934
-121.8348572
-117.4294911
-111.750089
-105.0731205
-97.64361456
-89.72508656
-81.57216243
-73.41082876
-65.42785108
-57.77876497
-50.56705163
-43.86412018
-37.70469267
-32.08992315
-27.05176834
-22.53176864
-18.50249443
-14.92375147
-11.7510115
-8.944800995
-6.465157637
-4.270315736
-2.323765
-0.5993542168
0.9295377578
2.286674894
3.493622049
4.569773006
5.531749451
6.391046783
7.160435111
7.848364626
8.464186427
9.018143875
9.516615544
9.962900988
10.36051412
10.71796357
11.03312157
11.30651374
11.54384918
11.75101041
11.92939265
12.07694525
12.19929685
12.29251427
12.36067358
12.40154754
12.41701225
12.41455924
12.39117474
12.3507882
12.29256176
12.2129404
12.11385592
11.99122302
11.84011338
11.66555324
11.47821557
11.27359526
11.04863519
10.79926543
10.52558383
10.22616024
9.913543782
9.582573039
9.232181112
8.860380659
8.472240816
8.069567764
7.669755757
7.245636757
6.829635657
6.406912082
5.993361258
5.595911794
5.208175841
4.80330689
7.455418419
10.80038902
15.57984362
21.0982383
)


101
(
-0.003869917496
-0.7241472537
-3.887151529
-9.945742303
-18.46593871
-28.77434128
-40.22695144
-52.18515884
-64.16970511
-75.77743176
-86.71185955
-96.69825823
-105.5157306
-112.9792895
-118.9617267
-123.3537936
-126.0856673
-127.1332507
-126.5013221
-124.2900718
-120.5910789
-115.5741633
-109.4853459
-102.5416858
-94.99069134
-87.07865014
-79.03009469
-71.03829205
-63.27238146
-55.85235396
-48.86754859
-42.37029201
-36.37735818
-30.93896511
-26.00621628
-21.56183138
-17.57315741
-14.00139081
-10.81159993
-7.966161068
-5.423161349
-3.144711033
-1.104671605
0.7240352688
2.365351474
3.841213956
5.172472847
6.377661892
7.469244279
8.461453293
9.363939561
10.18636297
10.93841234
11.62889402
12.26186509
12.83922376
13.37305097
13.85979283
14.29978625
14.69623344
15.05673239
15.38388547
15.67882872
15.94391779
16.17285159
16.37389256
16.53716546
16.66823316
16.77303616
16.85309334
16.90810841
16.93591377
16.937202
16.91152753
16.85268844
16.75518286
16.62079904
16.45488223
16.26267264
16.04323699
15.79052694
15.49136759
15.15098794
14.78203166
14.38168941
13.94695808
13.4717882
12.97078461
12.43406838
11.89492563
11.32360849
10.7431621
10.15439485
9.569967139
9.001454172
8.45271012
7.884216867
11.81549186
16.69550362
23.5534605
31.51863775
)


101
(
-0.003851136355
-0.704096356
-3.777221996
-9.673283651
-17.97924171
-28.04665667
-39.25694142
-50.99716439
-62.80944772
-74.30756433
-85.20918076
-95.25516138
-104.231833
-111.9570491
-118.3056325
-123.1647151
-126.4545666
-128.136605
-128.1950575
-126.7008744
-123.7190705
-119.3865606
-113.9187147
-107.5042233
-100.3711243
-92.75483197
-84.87486078
-76.92707267
-69.09104243
-61.5009072
-54.26240391
-47.44500819
-41.08136455
-35.24051052
-29.88424944
-25.00643922
-20.58285603
-16.58145275
-12.97311312
-9.723839783
-6.792735284
-4.141109386
-1.742652546
0.4303624351
2.401976388
4.194027926
5.828050985
7.324435167
8.69814463
9.963624366
11.13165119
12.21264726
13.21594822
14.15208854
15.0267374
15.84225198
16.61059874
17.32717578
17.99560368
18.61570168
19.18917183
19.72879865
20.23362371
20.70441612
21.13467863
21.53197601
21.884191
22.19540742
22.47131832
22.71598727
22.92164083
23.09457853
23.23272798
23.3317622
23.38699318
23.39264079
23.33835488
23.23055904
23.08227615
22.89285959
22.6544487
22.34791565
21.97647992
21.55326636
21.06995009
20.54454664
19.94518182
19.30188185
18.5960194
17.8756398
17.1117576
16.31777045
15.5042795
14.69073884
13.89454633
13.13571285
12.35559521
18.00661166
24.93646463
34.6571989
45.54102833
)


101
(
-0.003832386587
-0.6843512196
-3.66912518
-9.405297946
-17.50048033
-27.33093862
-38.3030537
-49.82896716
-61.47174311
-72.86163464
-83.7295791
-93.83049364
-102.9600653
-110.9380305
-117.6411138
-122.9540015
-126.7883315
-129.0929898
-129.8344606
-129.0570025
-126.8007224
-123.171787
-118.3539634
-112.5095108
-105.8433799
-98.57763502
-90.92387515
-83.07664612
-75.22221667
-67.50619351
-60.04884114
-52.93571103
-46.21510278
-39.97524502
-34.1893806
-28.86358097
-23.98287931
-19.52295617
-15.46171162
-11.77006679
-8.409163754
-5.340270307
-2.53721435
0.02860514355
2.381426214
4.542587653
6.533879039
8.377272852
10.09054953
11.68829515
13.18205856
14.58410058
15.90316243
17.14940782
18.33149027
19.45504942
20.53045552
21.55255912
22.52595274
23.44833934
24.3165614
25.14973341
25.94443881
26.70202288
27.42005551
28.09716155
28.72528764
29.30322946
29.83326743
30.32014984
30.75785408
31.15343761
31.49817201
31.78957968
32.02759544
32.20130487
32.29169709
32.29944825
32.2356916
32.10896225
31.91499555
31.63000176
31.24399899
30.76531588
30.19932211
29.56379978
28.82121892
28.00141374
27.0836658
26.13088412
25.11578695
24.03806573
22.93733736
21.81894089
20.72575867
19.68926805
18.63882105
26.62321699
36.33557876
50.05419665
65.49545072
)


101
(
-0.003813668134
-0.6649107466
-3.562847364
-9.141741031
-17.02954055
-26.62693671
-37.36482344
-48.6797782
-60.15536336
-71.43797921
-82.27104837
-92.42216834
-101.6975169
-109.9187773
-116.9641289
-122.716904
-127.0813531
-129.9954396
-131.410677
-131.3475249
-129.8225814
-126.9132871
-122.7718807
-117.5352386
-111.3832624
-104.5219994
-97.15288767
-89.46565789
-81.64897872
-73.85689275
-66.22213841
-58.8446598
-51.7876713
-45.15852232
-38.94244382
-33.15871002
-27.80249429
-22.85785612
-18.31084225
-14.13831422
-10.30463777
-6.772024398
-3.515003816
-0.5039431033
2.285667956
4.874741637
7.285111113
9.539508644
11.65707354
13.65456223
15.54503639
17.34158127
19.05506724
20.69002568
22.25888038
23.7713283
25.23976305
26.65695851
28.02894333
29.35073475
30.61869117
31.84584885
33.0326166
34.17875769
35.29456977
36.35950335
37.37325702
38.32759804
39.21995354
40.0608895
40.84089414
41.5565484
42.20151379
42.77804801
43.28617288
43.71353292
44.03385285
44.23366248
44.31599691
44.30295698
44.20661281
43.97858807
43.60536126
43.0848547
42.43046132
41.67489137
40.77114791
39.73780198
38.55762505
37.30816868
35.97301477
34.53915291
33.06556303
31.55343398
30.07419691
28.68461855
27.29695472
38.50208104
52.07787104
71.46271922
93.52567863
)


101
(
-0.003794981051
-0.6457739955
-3.458382257
-8.882571791
-16.56631568
-25.9344166
-36.44181794
-47.54886718
-58.85916481
-70.0350365
-80.8316413
-91.02830461
-100.4415169
-108.8959308
-116.2708208
-122.4489862
-127.3284318
-130.8374467
-132.9152742
-133.561558
-132.7712167
-130.5944672
-127.1531155
-122.5587977
-116.9656912
-110.5614131
-103.5352152
-96.06904641
-88.34980903
-80.53668322
-72.77235044
-65.16907175
-57.80345875
-50.80152893
-44.16095152
-37.91475654
-32.0690904
-26.61698182
-21.55375533
-16.86293382
-12.51311334
-8.468615661
-4.705440518
-1.193380606
2.092921377
5.174475845
8.07250415
10.80868817
13.4038434
15.8778769
18.24577867
20.52241092
22.72068854
24.83889471
26.89121243
28.89051777
30.85318079
32.77018971
34.65189166
36.4932547
38.28617211
40.03409271
41.74351888
43.40651915
45.04979112
46.63887647
48.17562115
49.64653532
51.04285336
52.37667787
53.63300042
54.80478859
55.88365924
56.86911663
57.76227177
58.55441226
59.20592985
59.70013107
60.03565139
60.21132357
60.27727898
60.16111934
59.84769447
59.31871363
58.58983522
57.71588129
56.63744344
55.36293957
53.87142852
52.2577187
50.52471802
48.65114274
46.71839793
44.7008742
42.74407908
40.92230406
39.14732153
54.84951752
73.8546779
101.3167099
132.6156402
)


101
(
-0.003776325367
-0.6269416988
-3.355710083
-8.627748751
-16.11070065
-25.25315139
-35.53360929
-46.43553249
-57.58209031
-68.65133882
-79.40947178
-89.64689693
-99.18959206
-107.8664226
-115.557621
-122.1460931
-127.5247582
-131.6131536
-134.3406032
-135.6888827
-135.6334836
-134.1986874
-131.477513
-127.5568363
-122.5649413
-116.6685679
-110.0425286
-102.8587446
-95.29901391
-87.52416408
-79.68385716
-71.90013955
-64.26107656
-56.91024139
-49.8578313