/*--------------------------------*- C++ -*----------------------------------*\
| =========                 |                                                 |
| \\      /  F ield         | OpenFOAM: The Open Source CFD Toolbox           |
|  \\    /   O peration     | Version:  2.3.1                                 |
|   \\  /    A nd           | Web:      www.OpenFOAM.org                      |
|    \\/     M anipulation  |                                                 |
\*---------------------------------------------------------------------------*/
FoamFile
{
    version     2.0;
    format      ascii;
    class       dictionary;
    location    "constant";
    object      rETA2;
}
// * * * * * * * * * * * * * * * * * * * * * * * * * * * * * * * * * * * * * //

rETA2_table
101
(

101
(
68.66742703
1388.155213
4023.306085
6959.335854
9788.08622
12332.05258
14479.48594
16140.02568
17271.34752
17888.62698
18002.23039
17663.97463
16950.87954
15901.77144
14630.1248
13211.29572
11711.69365
10200.27818
8770.02483
7403.838579
6188.858497
5107.27131
4157.373387
3351.603806
2672.933724
2105.831127
1636.886343
1252.421134
939.6751407
687.1607003
484.2890433
321.6859574
190.2220636
88.32538673
7.259268335
-57.01580712
-414.5609691
-941.2047602
-911.9524729
-871.9750343
-826.9531112
-782.3897389
-734.9933164
-687.9995856
-643.4449934
-599.9115703
-559.2848015
-520.7845721
-485.3562392
-452.4687331
-422.6327429
-395.3462773
-370.4863923
-347.8851068
-327.3151794
-308.475008
-290.7611043
-274.7176264
-259.4318608
-245.1487256
-231.4674755
-218.4268852
-205.8930508
-193.7413099
-181.9298596
-170.4476294
-159.2882706
-148.429204
-137.8469308
-127.6297588
-117.7478315
-108.2450258
-99.12501249
-90.50646665
-94.30632148
-92.70823901
-81.45944697
-71.22930818
-61.95258104
-53.5618914
-46.01528807
-39.27398758
-33.31594042
-33.11681445
-30.39994329
-23.67891247
-18.20893914
-13.77818292
-10.24715493
-9.742435555
-6.577068309
-4.008945682
-2.342851861
-1.440162337
-0.6890717595
-0.1450754618
-2.804083125e-12
1.223376593e-27
4.391230012e-22
-2.577685171e-22
1.219525834e-20
)


101
(
68.17481176
1354.117694
3920.342636
6779.183955
9530.074486
11998.2602
14076.51238
15678.63835
16767.5647
17358.46354
17466.76929
17142.63837
16462.21158
15467.02639
14262.39208
12921.99762
11508.92846
10086.73822
8741.317737
7459.250216
6317.636221
5304.868255
4413.645886
3656.437976
3018.794304
2484.830212
2041.187241
1674.952624
1373.343167
1126.09402
923.1743195
756.2784662
618.1188537
501.5028826
404.504792
322.1632904
268.2937113
242.4598789
202.1441557
156.2659408
114.1593466
76.98319472
44.5557939
16.30640595
-8.503758373
-30.11723895
-49.04591663
-65.4073506
-79.54850638
-91.53828935
-101.6562072
-110.0057338
-116.7417165
-122.0665662
-126.059535
-128.7937339
-130.1626206
-130.5989681
-129.9783226
-128.5397048
-126.2887182
-123.3841787
-119.926464
-115.9712284
-111.5859303
-106.8424534
-101.8432017
-96.64387838
-91.2908355
-85.86979463
-80.41693021
-74.98513649
-69.60887563
-64.36933163
-59.42195167
-54.65853043
-49.87100371
-45.11646887
-40.50687857
-36.11801317
-31.99408856
-28.14028467
-24.57710373
-21.37291715
-18.4113701
-15.58130723
-12.93976929
-10.56233132
-8.465508277
-6.675543451
-5.137144918
-3.76522988
-2.622737655
-1.728024202
-1.026594942
-0.5064151625
-0.1559829973
-0.157587176
-0.1599802699
-0.1645751204
-0.1671487532
)


101
(
67.6829998
1320.458062
3818.731523
6601.17706
9274.423328
11667.06694
13676.84239
15221.90979
16270.22272
16836.62076
16940.10251
16628.70278
15975.80044
15026.21697
13874.35266
12593.15114
11242.99621
9882.722228
8587.851755
7359.021678
6253.312255
5272.165194
4407.971986
3667.583644
3041.923584
2516.740914
2078.987017
1716.496462
1417.424758
1171.699953
970.0390637
804.3490697
667.3846197
552.5144032
455.7671384
373.7705044
313.2412029
274.4017401
238.0408615
198.7188662
160.1773545
124.8790881
93.81901524
66.65425505
42.74560913
21.78586694
3.339257449
-12.8777689
-27.09586837
-39.47593642
-50.1924145
-59.37319279
-67.12199955
-73.60603575
-78.96466775
-83.26769725
-86.50865858
-88.81625706
-90.23333782
-90.87625905
-90.78749206
-90.06526818
-88.79843025
-87.02985242
-84.81579941
-82.21504395
-79.30167393
-76.12179219
-72.71170345
-69.14112179
-65.44370065
-61.66321948
-57.82136135
-53.97778178
-50.21529283
-46.56478818
-42.96698298
-39.37334193
-35.79668577
-32.29819541
-28.94867352
-25.78157963
-22.80758774
-20.05397883
-17.52861453
-15.1787784
-12.9475798
-10.86348029
-8.983435615
-7.320336824
-5.86498659
-4.596185975
-3.465758502
-2.520036015
-1.758047677
-1.105629059
-0.5719515263
-0.5978684306
-0.6237822543
-0.6613007384
-0.6843561367
)


101
(
67.19199133
1287.314103
3718.979449
6427.008543
9025.497046
11346.63968
13293.10606
14787.36677
15802.03904
16351.62544
16457.87877
16166.6228
15548.03801
14648.98795
13554.41979
12335.1148
11048.92751
9750.441142
8506.182872
7327.008733
6256.220274
5302.91536
4461.632179
3735.115594
3117.515733
2596.93987
2161.072621
1798.428226
1498.090284
1250.322582
1046.443952
878.7820145
740.1913465
624.6623416
526.7462241
442.3319306
377.9243018
330.2462359
291.0983497
254.1419634
217.9795424
183.9136539
153.2936093
126.1442884
102.0880391
80.87708798
62.04642732
45.29628048
30.32054636
16.98298637
5.083436231
-5.458347201
-14.72396256
-22.8459122
-29.95996324
-36.12878038
-41.44125346
-45.9271625
-49.60535959
-52.57803045
-54.849539
-56.49183362
-57.57755061
-58.14295619
-58.24010823
-57.92177944
-57.22224152
-56.18816539
-54.8180735
-53.18202982
-51.32400849
-49.27563547
-47.04464223
-44.67693324
-42.2284048
-39.7461605
-37.24498696
-34.70175802
-32.09887561
-29.44983038
-26.81469457
-24.25515376
-21.79946181
-19.46621378
-17.27598669
-15.23255164
-13.30676311
-11.46026454
-9.736342354
-8.174026761
-6.774636854
-5.535238637
-4.43035845
-3.448866715
-2.626650413
-1.872597333
-1.180962484
-1.259005411
-1.335919534
-1.442558548
-1.512326432
)


101
(
66.70177997
1254.681182
3621.063258
6256.607384
8783.097728
11036.51079
12924.37491
14373.3744
15360.43262
15899.67182
16014.92056
15749.67621
15170.64628
14325.67621
13291.50864
12135.84382
10914.01423
9676.828335
8483.036653
7350.702918
6313.746061
5385.597376
4563.971925
3848.949051
3236.595273
2717.42571
2280.264931
1914.395827
1609.773224
1357.094234
1148.130656
975.7636244
833.0037999
714.5652745
614.2649379
528.1928452
458.1511409
403.4567241
359.5661163
321.2580503
285.4977591
251.7881504
220.9879784
193.2429357
168.3609479
146.2255425
126.4080092
108.6105397
92.46955042
77.83910494
64.4835776
52.32563895
41.31579573
31.3704125
22.34479968
14.14255283
6.739400788
0.04587551094
-5.917584065
-11.2542881
-15.93434586
-19.98497516
-23.4616637
-26.39241835
-28.83205336
-30.84581757
-32.44807826
-33.6460515
-34.437184
-34.86649391
-34.99576439
-34.84599372
-34.41606338
-33.7258098
-32.81707454
-31.73658058
-30.52074089
-29.16875976
-27.67534224
-26.03247983
-24.26596847
-22.43912298
-20.60473828
-18.7889908
-17.01830994
-15.31055239
-13.67676859
-12.08819259
-10.542855
-9.093394425
-7.764760914
-6.555824929
-5.464878318
-4.469268549
-3.601274869
-2.772274195
-1.95902915
-2.115159398
-2.262236266
-2.448563093
-2.510740587
)


101
(
66.21238416
1222.554904
3524.953161
6089.872248
8546.9656
10736.12935
12569.64226
13978.27086
14942.89558
15477.19602
15606.51612
15371.92028
14836.45228
14048.10035
13076.42548
11985.48461
10828.06356
9651.575485
8508.054398
7420.489028
6416.436419
5511.645078
4707.253739
4001.911709
3392.827051
2872.736861
2431.848516
2060.34047
1749.02938
1489.123146
1272.874043
1093.405569
944.1871727
820.6211458
716.0951142
626.6686192
551.5981399
490.4461642
440.8474591
399.0169926
361.6236151
327.0041489
295.2252568
266.2381664
239.8679888
216.0965742
194.5968632
175.1366769
157.3110382
140.8947599
125.6355508
111.4458982
98.30344861
86.16468263
74.91475968
64.45915086
54.7625143
45.71748377
37.34418189
29.64827716
22.62961203
16.18522751
10.4286225
5.247090525
0.5938528615
-3.540487062
-7.240895847
-10.49721229
-13.24970938
-15.63311524
-17.5606696
-19.15645638
-20.41066291
-21.3531272
-21.97096718
-22.3074101
-22.40695162
-22.29363473
-21.9571772
-21.40633177
-20.63445924
-19.68297839
-18.60325271
-17.44153045
-16.22365505
-14.97743789
-13.72603255
-12.46759803
-11.18487326
-9.91133823
-8.707389405
-7.573020206
-6.520017429
-5.53930991
-4.650238941
-3.770534617
-2.86883431
-3.128981071
-3.306203321
-3.467894034
-3.328744454
)


101
(
65.72378623
1190.930193
3430.617425
5926.700591
8316.847237
10444.9712
12227.96824
13600.53086
14547.16246
15081.02238
15228.51789
15028.19323
14539.29836
13809.31798
12901.46568
11875.85037
10782.69397
9666.302007
8572.900769
7528.695243
6556.909142
5674.405116
4885.61532
4188.69985
3581.593296
3058.999947
2612.627512
2233.638987
1913.732422
1644.6967
1419.262873
1230.82083
1073.165489
942.3968605
831.8101838
737.3054462
656.7267968
589.1040706
533.0542402
485.9893209
444.8767129
407.4869417
373.2289327
341.6495115
312.461806
285.6871712
261.0849617
238.4792487
217.496879
197.9405576
179.4769495
162.1578151
145.9249523
130.7473778
116.4439399
103.1970801
90.95253204
79.3543006
68.5627323
58.66990416
49.59048574
41.14306096
33.60634201
26.89028892
20.77006964
15.29919748
10.37821727
5.927229726
2.060683362
-1.38054632
-4.332013902
-6.901999967
-9.101440915
-11.00684341
-12.57546936
-13.81945821
-14.81569844
-15.55975125
-16.07407788
-16.37758815
-16.43170072
-16.27274504
-15.91077348
-15.40770336
-14.78213134
-14.05859953
-13.26796482
-12.41693778
-11.48639017
-10.4867093
-9.482911583
-8.499274781
-7.535927963
-6.612281682
-5.741747097
-4.835611606
-3.881911884
-4.195320049
-4.05779793
-2.762089156
-1.112885688
)


101
(
65.23599104
1159.80258
3338.026398
5766.99615
8092.507055
10162.55617
11898.50471
13238.79383
14171.21359
14708.34421
14877.30518
14714.03289
14273.93039
13603.45445
12760.19449
11800.15807
10770.98873
9714.142878
8670.805622
7669.115942
6729.303549
5868.622122
5094.45727
4405.205291
3799.327808
3273.246146
2820.215623
2432.43873
2102.496901
1822.810156
1586.610125
1387.585
1219.742712
1079.806162
961.1924243
859.6799571
772.2254617
697.164157
633.3433256
578.9061217
531.3326934
488.2861842
448.742484
411.8847305
377.2918908
345.0157612
314.9645815
287.0308439
260.8594473
236.4586023
213.3941103
192.0983309
172.2310385
153.7754789
136.6118979
121.0274374
106.8845183
93.88242865
82.00585412
71.4202598
61.96055142
53.23646533
45.5659065
38.82532742
32.89687672
27.69673323
23.16283731
18.93019904
15.21566887
11.85773635
8.894549262
6.333383906
4.055674688
1.952291782
-0.002445238867
-1.721954423
-3.265979223
-4.631310418
-5.889031285
-7.032068347
-7.978716433
-8.702029891
-9.247174736
-9.64801005
-9.904938145
-10.02863412
-10.03203315
-9.964391631
-9.729473459
-9.351375515
-8.874489883
-8.356311605
-7.741643585
-7.097129739
-6.430720123
-5.658381141
-4.82838009
-4.035975505
-1.866794526
5.621682364
12.60846575
)


101
(
64.7489871
1129.167422
3247.150521
5610.66523
7873.720491
9888.436564
11580.47938
12891.84423
13813.24341
14356.67676
14549.70503
14425.5889
14035.86284
13425.55175
12647.22529
11752.76894
10787.23129
9789.443398
8796.211363
7836.658526
6928.882352
6090.078634
5330.127895
4648.245371
4043.332791
3513.28911
3052.924247
2655.514319
2314.498059
2022.939217
1774.591902
1563.473093
1383.729138
1232.54299
1103.494067
992.3702218
895.5853052
810.8038561
736.6563512
671.7458685
614.0481345
561.4363331
513.0240198
467.8380103
425.347076
385.5985579
348.6494124
314.5678954
282.8465616
253.9564486
227.6565006
204.0028958
182.4481667
163.3535099
145.9639933
130.5266864
117.3871006
105.845081
95.69094691
86.96829854
79.47756676
72.78775748
67.21336568
62.3504221
58.1878033
54.58227235
51.46636149
48.58425421
45.90976858
43.41145927
40.97683411
38.68532807
36.38045195
34.04456094
31.63149787
29.15218465
26.67499257
24.23236621
21.7409807
19.14471124
16.53611545
14.06271536
11.78729291
9.569274375
7.483213524
5.508343464
3.740205402
1.971183422
0.4863320861
-0.7439602299
-1.778446971
-2.701944219
-3.297203285
-3.709061388
-3.988969344
-3.998780427
-4.089309574
1.769423117
10.22330026
33.09000779
53.85354893
)


101
(
64.26279813
1099.020718
3157.962807
5457.621486
7660.279307
9622.197617
11273.18262
12558.58151
13471.63253
14023.80717
14242.91492
14159.49486
13821.21092
13271.35206
12557.97596
11728.91686
10826.61898
9887.478829
8944.487074
8027.076556
7151.739355
6335.332769
5589.685513
4915.323813
4311.580338
3777.595563
3309.646339
2902.098563
2549.230619
2244.731035
1982.859231
1757.965554
1564.293943
1399.355696
1256.806112
1132.621118
1022.995195
925.1039135
837.223483
758.5172825
687.539954
622.7659737
563.5703499
509.1306046
458.8185299
412.6052801
370.5240376
332.5908024
298.5403421
268.8619604
243.0217869
220.7148283
201.4854246
185.2823376
171.3731512
159.9549799
150.7299283
143.4966243
137.5171163
132.6954026
128.9381294
125.7027929
123.1887026
121.0514273
119.2549067
117.734049
116.3682222
114.9482974
113.3064895
111.3393676
109.0900355
106.5947708
103.8659867
100.8225889
97.36767728
93.49616139
89.30466978
84.92367317
80.36814597
75.42849336
70.16838196
64.88029687
59.71198318
54.5866468
49.38112672
44.17120383
39.3516359
34.35645361
29.65821873
25.32356816
21.21487879
17.32037121
13.97953184
11.10620173
8.38271205
6.078970474
3.247176644
21.78675978
43.42929054
92.47974862
138.2887871
)


101
(
63.77743393
1069.358478
3070.436774
5307.782378
7451.988198
9363.452999
10975.95461
12237.98937
13144.9347
13707.79433
13954.47793
13912.79975
13626.58167
13137.15227
12488.48687
11724.50082
10885.02609
10004.19512
9111.660477
8236.683305
7394.490893
6601.445315
5870.767225
5204.47808
4602.524541
4065.045053
3589.612262
3171.661774
2806.297248
2487.799717
2210.872629
1970.17151
1760.065805
1578.394712
1418.865486
1277.87336
1151.78909
1037.699889
933.9133669
840.1963733
755.5364331
679.0632366
610.4611268
549.126209
494.1885917
445.3757804
402.5500236
365.5448682
334.0301398
307.981262
286.6592719
269.4582069
255.8213997
245.3612971
237.65023
232.075149
228.3374905
226.2277212
225.2040603
224.900849
225.1477042
225.551172
226.0167228
226.4102639
226.6599447
226.7173352
226.5788649
226.0442157
224.9496854
223.0913168
220.540254
217.3152691
213.5740385
209.2855883
204.3321452
198.5762171
192.1328465
185.2543121
178.0023349
170.1541297
161.6290287
152.8496203
143.9479073
135.1089624
125.9237451
116.3244624
107.2479583
97.91421864
88.67065918
79.94498242
71.16138363
62.70556985
54.97758811
47.97266027
41.1206605
34.37335588
25.91797644
68.00736336
111.0387195
193.0125534
254.4972402
)


101
(
63.2928442
1040.175766
2984.54369
5161.063546
7248.654847
9111.831537
10688.17267
11929.12392
12831.83139
13406.90265
13682.20891
13682.89953
13448.9976
13019.72171
12435.32993
11735.98733
10958.89964
10136.09769
9294.312105
8462.300683
7654.205835
6885.834047
6171.313925
5514.016198
4914.820509
4374.618251
3892.044975
3463.571061
3085.110155
2751.487773
2457.82004
2199.093149
1969.926407
1768.629445
1589.169454
1428.670053
1284.118166
1152.96397
1033.849515
926.9923021
831.4866107
746.7610152
672.7249329
608.6769955
553.4803586
506.620207
467.5992506
435.7873761
410.3280044
390.8091475
376.374202
366.2667665
359.6568336
355.9616895
354.6564668
354.9380609
356.7351308
359.4278374
362.8374536
366.4727669
370.0696593
373.3601195
376.179793
378.4071331
380.0207345
380.9611509
381.336699
381.1084181
380.1033182
378.0289819
374.9259135
370.7438633
365.7281661
359.9358131
353.2976697
345.5696024
336.8560022
327.4602061
317.2892498
306.4214661
294.6538606
282.2207495
269.4288959
256.5997482
243.1464083
228.7165376
214.6839611
200.5841451
186.2674869
172.0694154
157.6490172
143.6475671
130.2329662
117.6947687
105.4050608
92.46524289
76.23430396
150.0805971
219.4691867
337.3898559
421.4132495
)


101
(
62.80906232
1011.468953
2900.259333
5017.390292
7050.105172
8866.994485
10409.26785
11631.1302
12531.14994
13119.59662
13424.17997
13467.51601
13285.86918
12916.26209
12395.55035
11760.33504
11045.20096
10280.19654
9489.512402
8701.183992
7928.288954
7186.109586
6489.264463
5842.165919
5246.84632
4704.878478
4215.75923
3776.840824
3384.797708
3034.989619
2723.029501
2444.396806
2194.191385
1971.49994
1770.853724
1590.348176
1427.885176
1281.559375
1150.391169
1034.407479
932.6540739
844.3041831
769.3172252
706.7217755
655.0539025
613.4013909
580.6708619
555.8898577
537.8147041
525.6205298
518.3350246
515.1566799
515.1675208
517.5699349
521.7073284
527.0304827
533.2717266
539.7454454
546.424669
552.9640238
559.0192748
564.3265649
568.7625937
572.1696718
574.5344221
575.9581746
576.409015
576.0419947
574.8429309
572.3726511
568.7188264
563.7110929
557.4456053
550.1634177
541.9080077
532.4966116
521.811236
510.0735071
497.4026808
483.729496
468.9036974
453.1266706
436.6832818
419.8815174
402.5166144
383.6449304
364.4380435
345.3865556
326.0128623
306.1845806
285.8308199
266.038236
246.6063096
227.7204986
209.3236437
189.1770672
164.0352426
275.2198465
370.5608156
514.8504695
601.7228035
)


101
(
62.32606621
983.2337845
2817.558071
4876.687187
6856.168865
8628.616857
10138.69766
11343.2048
12241.83828
12844.52142
13178.65912
13264.62262
13134.90605
12824.28444
12366.52208
11794.85313
11141.29411
10433.96138
9694.794219
8950.974664
8214.410498
7499.97965
6822.490322
6187.102417
5597.003766
5054.388158
4559.485847
4110.394246
3704.525949
3337.857338
3006.722389
2707.358581
2435.600957
2191.673588
1970.924376
1772.428572
1594.951546
1437.121007
1298.149992
1177.489041
1073.913644
985.9909245
913.4067553
854.8100129
808.4816906
773.1746275
747.2121776
729.3632817
718.0734221
712.3336391
711.0681524
713.4566535
718.6305346
725.6920199
733.9102252
742.8325684
752.2576447
761.3199102
770.193989
778.5903128
786.3032005
792.8993943
798.3270746
802.4709452
805.3506088
806.9633143
807.2706101
806.5897543
804.8605682
801.9789881
797.8090743
792.1968865
784.9180005
776.2847666
766.4568423
755.3862428
743.0095882
729.4009289
714.384383
698.2148226
680.5855756
661.8284155
641.9470891
621.3292699
600.2809629
577.5134232
553.4254383
529.4400112
505.181174
480.2416948
454.1154093
428.672869
403.230376
378.3866066
353.7369414
326.3689652
292.5067283
437.2307077
549.6264465
702.847281
781.5441151
)


101
(
61.84387345
955.4668574
2736.417107
4738.885436
6666.688986
8396.400012
9875.9656
11064.61486
11962.94723
12580.47994
12944.11732
13072.44
12994.11138
12741.62291
12345.96112
11837.19431
11244.86683
10595.1825
9907.993428
9209.631057
8510.547855
7825.408242
7169.027059
6547.062617
5963.74376
5421.793738
4922.077652
4463.394467
4043.993487
3660.66352
3310.708822
2991.404557
2699.561364
2436.693596
2198.939537
1986.111444
1797.528274
1632.080432
1488.990494
1367.240433
1264.942735
1179.80869
1111.158774
1057.299822
1016.278486
986.6738097
966.4317304
954.1546307
948.1003217
947.1958817
950.1671757
956.2984771
964.9254933
975.0474897
985.9394487
997.1783113
1008.642263
1019.37895
1029.507401
1038.938743
1047.641181
1055.037136
1060.95622
1065.523175
1068.741286
1070.331555
1070.478868
1069.201602
1066.896179
1063.359392
1058.447598
1052.109394
1043.89972
1033.986023
1022.482575
1009.454241
995.2327927
979.5251794
962.1873919
943.4467271
922.7721374
900.7654026
877.4586218
852.9412187
827.6784242
800.9730758
772.5090757
743.3433562
714.1975893
684.5279545
652.7754449
622.2406247
590.5131238
560.1496874
529.7395175
495.6410789
452.5498363
616.7305771
729.9762248
873.715723
943.6186598
)


101
(
61.3625522
928.1655412
2656.816333
4603.922581
6481.520964
8170.067978
9620.617985
10794.69244
11693.62052
12326.41221
12719.24381
12889.38966
12861.7367
12666.4107
12331.91775
11885.35353
11353.87337
10761.82458
10127.04921
9474.977046
8814.585765
8160.369907
7527.038017
6920.383896
6345.584374
5805.870335
5302.666711
4835.539706
4403.779539
4005.217985
3638.276461
3301.416686
2992.607887
2714.566046
2463.964194
2240.991462
2045.140589
1875.298863
1730.61162
1609.730948
1510.023848
1428.47467
1363.878586
1314.132048
1277.129196
1251.537814
1235.172892
1226.543204
1223.804309
1225.866931
1231.342052
1239.562984
1250.04263
1261.833275
1274.225146
1286.761381
1299.375243
1311.102516
1321.881433
1331.74412
1340.734098
1348.501689
1354.599587
1359.352508
1362.608197
1363.94717
1363.598412
1361.561885
1358.325255
1353.598469
1347.366987
1339.696901
1329.978942
1318.388531
1304.741122
1288.921672
1271.717764
1252.878902
1232.534178
1210.267883
1185.726756
1159.555643
1131.686309
1102.499883
1072.299616
1040.508332
1007.002572
972.2055573
937.2491047
902.3306065
864.6586519
828.7742171
791.0318362
754.9204018
719.2293613
678.1816689
625.4412895
790.965162
889.4349681
1011.568482
1046.511224
)


101
(
60.88198827
901.324547
2578.728064
4471.724959
6300.508641
7949.338089
9372.205802
10532.78919
11433.04186
12081.33439
12502.86144
12714.03116
12736.19703
12596.98994
12322.67405
11937.56831
11466.4791
10931.97363
10349.98144
9744.851245
9124.430333
8502.847887
7894.688057
7305.415692
6741.094583
6205.548986
5700.749526
5227.166931
4785.33563
4374.285512
3993.615035
3642.936441
3321.260916
3032.401381
2773.176646
2543.833615
2343.75429
2171.655156
2026.597155
1907.044073
1809.919076
1731.454011
1670.003496
1623.085118
1588.427316
1564.859084
1550.299446
1543.37259
1542.07817
1545.395059
1551.933548
1560.971894
1572.038424
1584.444223
1597.390228
1610.348244
1623.484644
1635.722594
1646.733869
1656.541271
1665.382683
1673.016047
1678.982256
1683.533164
1686.17978
1686.997148
1685.650593
1682.170147
1677.112613
1670.211786
1661.675621
1651.376982
1638.913444
1624.340912
1607.307156
1587.410004
1565.223532
1541.493309
1515.995288
1488.449801
1458.47344
1426.241935
1391.699444
1355.972723
1318.915444
1280.325334
1240.034466
1198.323845
1155.929865
1114.232709
1069.978299
1027.356814
983.4335466
940.7716464
899.410301
851.3553761
789.6434363
938.9784187
1015.429932
1122.184803
1166.717052
)


101
(
60.40218126
874.9403654
2502.135051
4342.2299
6123.514901
7733.959784
9130.329327
10278.32506
11180.46465
11844.36561
12293.96142
12545.12345
12616.11209
12531.91672
12316.72904
11992.29693
11581.08034
11103.96602
10575.08883
10017.36977
9438.215978
8851.00886
8270.200293
7700.575651
7148.961576
6619.982484
6116.229101
5639.155327
5190.638211
4770.949368
4380.812518
4020.807506
3690.675594
3395.199812
3131.024718
2898.285155
2696.094812
2522.910727
2377.748385
2259.023655
2163.44085
2086.775636
2027.110294
1981.545731
1947.604074
1924.280992
1909.710063
1902.768392
1901.40777
1904.661171
1911.141349
1920.08906
1930.93421
1943.188913
1956.082624
1968.901398
1982.047661
1994.311397
2005.299998
2014.739726
2022.967254
2029.84142
2035.141088
2038.803309
2040.186306
2039.603484
2036.227801
2030.264178
2022.092033
2011.764388
1999.245335
1984.368486
1967.084225
1947.313477
1924.627421
1898.592451
1869.510917
1837.896922
1804.336152
1768.803282
1730.862429
1689.842607
1646.226265
1601.186767
1554.757129
1506.781866
1457.158251
1406.5409
1354.742257
1304.221102
1252.265209
1201.082284
1149.833425
1099.876725
1051.548608
996.0489937
925.3346575
1053.272647
1118.258818
1237.168216
1331.22442
)


101
(
59.92326668
849.011585
2427.017913
4215.387304
5950.423859
7523.716148
8894.63927
10030.79058
10935.19637
11614.67025
12091.68623
12381.63425
12500.3219
12469.93255
12312.69699
12048.02816
11696.07879
11276.15174
10800.74785
10291.13223
9754.502402
9203.372901
8651.950542
8104.441962
7568.127669
7048.64343
6549.329222
6072.612554
5621.682545
5197.984971
4803.172137
4438.496746
4104.123041
3805.683123
3539.468168
3305.514563
3102.594108
2928.818411
2783.1855
2664.255232
2568.763619
2492.325711
2432.942491
2387.385521
2352.907859
2328.557425
2312.625145
2304.358266
2301.920829
2304.263519
2309.966177
2318.238107
2328.384676
2340.010379
2352.443455
2364.940926
2377.791188
2389.69147
2400.427264
2409.345615
2416.333155
2421.860243
2425.600658
2427.35158
2426.460493
2423.133677
2416.462108
2406.508547
2393.570459
2377.849172
2358.987363
2337.288677
2312.667966
2284.938708
2253.864063
2219.05214
2180.183084
2137.795659
2093.108069
2046.37892
1997.27473
1944.843397
1889.493831
1832.544037
1773.864088
1714.413181
1653.190412
1591.537377
1528.611078
1467.464218
1406.268532
1345.391834
1285.330253
1227.112129
1171.001735
1108.108151
1029.421347
1149.422656
1233.831573
1411.363987
1604.539241
)


101
(
59.44511095
823.533013
2353.350454
4091.129996
5781.099092
7318.370561
8664.772795
9789.675552
10696.55773
11391.42884
11895.22655
12222.60262
12387.75963
12409.89327
12309.32528
12103.39006
11810.00723
11446.97671
11025.34565
10564.7245
10071.89708
9558.589016
9038.478875
8515.747523
7997.738494
7491.199808
7000.364071
6528.519232
6079.99863
5657.264155
5262.633581
4897.733098
4562.920292
4264.528468
3998.442791
3764.762859
3561.973726
3387.807493
3241.233294
3121.047775
3024.224345
2946.496572
2886.041305
2839.45201
2803.669142
2777.621854
2759.637775
2749.330196
2745.203349
2746.190038
2750.777919
2758.187447
2767.530273
2778.283463
2789.94903
2801.952845
2814.345969
2825.741786
2835.930928
2843.99355
2849.414914
2852.894478
2854.019581
2852.619542
2848.247338
2840.631015
2829.095962
2813.41776
2793.7072
2770.222742
2742.761383
2711.723956
2676.89235
2638.29832
2596.081732
2549.81293
2498.859828
2443.450957
2384.924075
2324.245114
2261.57265
2195.924312
2127.070558
2056.259389
1984.153969
1911.625172
1837.843624
1764.163693
1689.48695
1617.036418
1545.879194
1474.654046
1405.746909
1338.880918
1274.965346
1205.108167
1120.731132
1267.469506
1419.406591
1713.213519
2067.832997
)


101
(
58.96775686
798.502053
2281.113976
3969.405582
5615.428179
7117.722488
8440.418987
9554.530639
10463.94518
11173.91391
11703.78919
12067.25744
12277.47484
12350.76224
12305.48785
12157.16302
11921.57167
11615.03533
11247.34681
10836.58797
10388.8664
9915.160522
9428.504922
8933.399397
8437.105544
7947.39831
7469.50712
7007.418892
6566.31975
6149.47482
5759.649808
5398.592573
5066.654254
4770.794828
4506.550826
4274.211305
4072.162911
3897.786402
3749.982715
3627.830726
3528.654566
3448.501409
3385.959089
3337.649932
3300.244418
3272.460618
3252.453051
3240.038168
3233.971719
3233.462846
3237.001989
3243.698823
3252.59954
3262.632563
3273.462925
3284.713203
3296.448819
3307.092391
3316.457037
3323.347625
3327.060281
3327.803808
3325.359833
3319.539118
3310.460895
3297.077877
3279.074726
3255.960133
3227.661499
3194.692739
3156.848647
3114.272932
3067.01122
3015.445345
2959.989079
2900.463167
2836.1711
2766.795625
2693.477226
2617.940765
2541.332834
2462.219252
2380.08881
2295.802413
2210.628337
2125.826804
2040.489088
1955.634585
1870.23549
1787.274793
1706.857518
1626.399907
1549.175541
1474.247427
1402.99505
1327.666901
1240.756034
1466.005896
1742.034875
2214.724413
2790.672821
)


101
(
58.49119809
773.9145353
2210.298831
3850.161654
5453.301319
6921.579917
8221.286317
9324.940651
10236.80313
10961.45721
11516.62516
11914.92738
12168.62117
12291.56769
12300.14604
12208.24142
12029.60384
11779.0429
11465.31318
11105.15319
10703.86841
10271.61112
9820.824519
9356.413484
8885.566795
8416.881756
7956.590962
7509.231367
7080.49336
6674.194497
6293.421188
5939.923709
5613.834817
5322.654017
5061.691185
4831.538658
4630.768385
4456.544754
4307.618622
4183.377212
4081.474209
3998.337342
3933.160532
3882.791266
3843.823087
3814.7744
3793.400784
3779.36963
3771.653844
3769.886366
3772.69136
3779.153932
3788.192589
3798.114956
3808.511764
3819.093884
3830.05739
3839.691835
3847.982812
3853.612925
3855.516562
3853.248913
3846.769293
3835.661812
3820.742216
3800.578473
3775.007077
3743.440764
3705.645519
3662.270411
3613.138767
3558.45822
3498.427865
3433.558604
3364.607637
3291.919189
3214.778804
3132.798103
3046.936045
2958.44416
2869.937577
2779.8264
2687.429697
2592.915183
2497.79248
2403.965617
2310.261229
2217.200796
2123.80877
2032.68967
1944.831924
1856.940212
1772.852296
1690.522821
1612.977419
1533.843427
1447.794881
1811.426266
2269.816971
2988.540297
3844.463776
)


101
(
58.01540145
749.7713028
2140.876707
3733.344553
5294.609698
6729.757082
8007.091381
9100.514138
10014.62668
10753.44693
11333.03304
11764.93605
12060.44155
12231.44922
12292.36885
12255.61653
12133.04375
11937.86908
11677.97357
11368.98644
11015.4265
10626.481
10214.12766
9783.717645
9342.358113
8899.112846
8461.067444
8033.208377
7621.457545
7229.975773
6862.127595
6519.65549
6202.330078
5917.867733
5661.525287
5434.393775
5235.51106
5062.082058
4912.62383
4786.790589
4682.525092
4596.557632
4528.760651
4476.398353
4436.235191
4406.678043
4384.993515
4370.498605
4362.131104
4359.827184
4362.50586
4369.418843
4379.308654
4390.090877
4400.976767
4411.58707
4422.05147
4430.840651
4438.045553
4442.564016
4442.873741
4438.053626
4427.794424
4411.547428
4390.365491
4363.378858
4330.210309
4290.510323
4243.982604
4190.992157
4131.735273
4066.491298
3995.821126
3920.269981
3840.661079
3757.864994
3671.512987
3581.639493
3488.269366
3392.415655
3297.115104
3201.873373
3105.091879
3006.433279
2906.61508
2809.059188
2712.138162
2615.258833
2517.533189
2421.376862
2328.162927
2234.203507
2143.787835
2054.282212
1970.733397
1888.377105
1804.862984
2370.987426
3072.396963
4113.525014
5326.84602
)


101
(
57.54050125
726.0688904
2072.833939
3618.914316
5139.266578
6542.101018
7797.596167
8880.919109
9796.991559
10549.36745
11152.40895
11616.63269
11952.27545
12169.67411
12281.35814
12298.3989
12230.93547
12090.58615
11884.33274
11626.88437
11322.16346
10978.36972
10607.05275
10214.08472
9806.458933
9393.236456
8981.980688
8578.025298
8187.466376
7814.684847
7463.250533
7134.92647
6829.161035
6553.639133
6303.576682
6080.613471
5884.451231
5712.681344
5563.760876
5437.455691
5331.898241
5243.989008
5174.264151
5120.483833
5079.743968
5050.608566
5030.005742
5016.811239
5009.482843
5008.016927
5011.658024
5019.988505
5031.741786
5044.673857
5057.453873
5069.428438
5080.409506
5089.165022
5095.962932
5100.041371
5099.496434
5093.297593
5080.703218
5060.907905
5034.831179
5002.666243
4963.865624
4918.376708
4866.037187
4807.015878
4741.641656
4670.649856
4594.944005
4514.790446
4430.930751
4344.811091
4256.736164
4166.778042