/*--------------------------------*- C++ -*----------------------------------*\
| =========                 |                                                 |
| \\      /  F ield         | OpenFOAM: The Open Source CFD Toolbox           |
|  \\    /   O peration     | Version:  2.3.1                                 |
|   \\  /    A nd           | Web:      www.OpenFOAM.org                      |
|    \\/     M anipulation  |                                                 |
\*---------------------------------------------------------------------------*/
FoamFile
{
    version     2.0;
    format      ascii;
    class       dictionary;
    location    "constant";
    object      rH2;
}
// * * * * * * * * * * * * * * * * * * * * * * * * * * * * * * * * * * * * * //

rH2_table
101
(

101
(
3.924855793e-06
0.008188153991
0.06421040199
0.1908200156
0.3798679766
0.6115853214
0.8639919409
1.115713679
1.350045633
1.556489812
1.725097236
1.85205912
1.936480859
1.97855972
1.982182915
1.951821151
1.891986882
1.808355241
1.704834995
1.588534116
1.462274548
1.329898639
1.198905343
1.071710009
0.9508710283
0.8387038596
0.7365243645
0.6446888519
0.5635767925
0.4922499371
0.429986177
0.3755086976
0.3270212608
0.2869156264
0.2514917023
0.2206562161
0.2005850058
0.1886419774
0.165466157
0.1455294116
0.1282074279
0.1126596366
0.09910979195
0.08715106923
0.07646170141
0.06707805484
0.0587213345
0.05138320748
0.04485839416
0.03911443886
0.03401662754
0.02951393535
0.02553831707
0.02203408712
0.01894481707
0.01621926555
0.01386693352
0.01178100101
0.009982229662
0.008408825576
0.007052427238
0.005881754113
0.004871198172
0.004011045718
0.003284185891
0.002665403474
0.00214565992
0.001712940886
0.001356243956
0.00106227121
0.0008240826363
0.0006314745775
0.0004786315316
0.0003580911474
0.0002827425133
0.0002178608751
0.0001556665337
0.0001097390668
7.590988282e-05
5.12205719e-05
3.371840905e-05
2.191071863e-05
1.380591899e-05
9.62243777e-06
6.263649849e-06
3.666658555e-06
2.083132679e-06
1.146918984e-06
6.123109259e-07
3.874785606e-07
1.921057964e-07
8.638925125e-08
3.925857987e-08
1.616733797e-08
5.906936482e-09
1.028055176e-09
-1.518642942e-21
-1.635566768e-38
1.252797396e-30
-3.641750605e-30
0
)


101
(
3.887061681e-06
0.007948036786
0.06243327013
0.1859097793
0.3707852629
0.5978944388
0.845844242
1.093761475
1.325298896
1.529882824
1.697925529
1.825226868
1.910775141
1.954817221
1.960852121
1.933209667
1.876402677
1.79594012
1.695794678
1.582456561
1.459308559
1.329863407
1.20049971
1.074490158
0.9543470064
0.8422822751
0.739757234
0.6473479525
0.5653729032
0.4932672221
0.43029434
0.3753487719
0.326839319
0.2855183792
0.2496668226
0.2183915567
0.1946969823
0.1786089287
0.1601698688
0.1413942531
0.1244253236
0.1093025535
0.09601474468
0.08436299011
0.07406299018
0.06498720219
0.05695949863
0.049872944
0.04360506706
0.03806985062
0.03317794078
0.02885528143
0.02503793086
0.02166300789
0.01868592213
0.01606506445
0.01377786063
0.01177444825
0.01002710759
0.0085045164
0.007181743479
0.006036602577
0.005046065666
0.004193452893
0.003464965859
0.002846006646
0.002320952329
0.001878389624
0.001507827206
0.001200214225
0.0009469999587
0.0007399062491
0.0005718665415
0.0004359491221
0.0003327737843
0.0002543184675
0.000190481471
0.0001395777971
0.0001002892261
7.060010634e-05
4.870156159e-05
3.292956191e-05
2.176940765e-05
1.431061097e-05
9.377086806e-06
6.018005675e-06
3.758055435e-06
2.267799639e-06
1.337654439e-06
7.88381775e-07
4.582777362e-07
2.624440452e-07
1.447798575e-07
7.670785293e-08
3.934326887e-08
1.704469123e-08
4.137051477e-09
1.125000131e-08
3.143130638e-08
8.043430538e-08
1.853817637e-07
)


101
(
3.849414175e-06
0.007712160398
0.06068668058
0.1810836085
0.3618714691
0.5845105707
0.8282164117
1.072636028
1.301801413
1.505093842
1.673242809
1.801689489
1.889240483
1.936122299
1.945453425
1.921344998
1.868238002
1.79147114
1.695026187
1.584910517
1.464828561
1.338146767
1.210397501
1.085241588
0.9653432155
0.8529027937
0.7494909797
0.655898669
0.5724996767
0.4989790343
0.4347064794
0.3787209534
0.3296093797
0.2872263343
0.250472303
0.2184733426
0.1927528178
0.1733794746
0.1557226753
0.1383032518
0.1219493896
0.107146493
0.09405423911
0.0825736905
0.07248821102
0.06362580406
0.05582292071
0.04893237648
0.04284751486
0.03746998261
0.03272273009
0.02853147184
0.02483517238
0.02157202339
0.01868926938
0.01614617003
0.01390977775
0.01195256286
0.01024018414
0.008744775412
0.007441781974
0.006308370796
0.005323444513
0.004471310903
0.003737557261
0.003108474571
0.002569985169
0.002111382947
0.001723148871
0.001395615126
0.001121855276
0.0008940786333
0.0007069624481
0.0005529636367
0.0004283709266
0.0003295834185
0.0002513571577
0.0001896031322
0.0001412304731
0.0001036305853
7.49158385e-05
5.328586663e-05
3.729414168e-05
2.566447104e-05
1.741297765e-05
1.166943386e-05
7.82583916e-06
5.201259613e-06
3.397506714e-06
2.213157936e-06
1.433327391e-06
9.236906902e-07
6.05458006e-07
3.858787683e-07
2.422343826e-07
1.405379332e-07
6.421629687e-08
1.543109466e-07
3.625144744e-07
7.836208313e-07
1.585426915e-06
)


101
(
3.811913238e-06
0.007480488147
0.05897022849
0.1763395578
0.3531199198
0.5714157632
0.8110690113
1.052262256
1.279424849
1.481918651
1.650753299
1.781034841
1.871333808
1.921790367
1.935142578
1.915225866
1.866346944
1.793653618
1.70110119
1.5943144
1.477166389
1.352989649
1.226677586
1.102011867
0.9818500967
0.8684869169
0.7635960037
0.6681642709
0.5826988511
0.5070879993
0.4408490525
0.3831928126
0.3328681448
0.2892546872
0.2513572712
0.2180547322
0.1909855058
0.1691704225
0.1506047047
0.1336283197
0.1178029039
0.103361634
0.09048305429
0.07915011419
0.06923284397
0.06056348887
0.05297739734
0.04630957226
0.04043800841
0.03526140376
0.03070002024
0.02668550608
0.02315951199
0.02006191796
0.01733783849
0.01494554105
0.01283661894
0.01099612814
0.009389014829
0.007989398384
0.006774839295
0.005723308574
0.004813622838
0.004029419424
0.003355407197
0.002777644379
0.002285275742
0.001867047069
0.001515820945
0.001221286246
0.000975339207
0.0007713742612
0.0006047131555
0.0004692370089
0.000359912732
0.0002729087239
0.0002043921087
0.0001512307935
0.0001106409914
8.003150612e-05
5.724068476e-05
4.038046644e-05
2.82276276e-05
1.959642719e-05
1.35791363e-05
9.461609579e-06
6.70285155e-06
4.895442534e-06
3.667827203e-06
2.807851285e-06
2.196573092e-06
1.739538724e-06
1.372038403e-06
1.063651389e-06
8.00921592e-07
5.727007604e-07
3.836748951e-07
7.832821487e-07
1.519262893e-06
2.442259413e-06
3.90060183e-06
)


101
(
3.774558828e-06
0.007252984547
0.05728352325
0.1716757582
0.3445241619
0.5585925045
0.7943633994
1.032566004
1.25804115
1.460151207
1.630154865
1.762835609
1.856486318
1.911090805
1.929005339
1.913750247
1.869434654
1.801000857
1.712363036
1.608817318
1.494320057
1.372248288
1.247031388
1.122404812
1.001414303
0.8864979926
0.7794543951
0.6814685127
0.5932160091
0.514779618
0.4458184539
0.3857632789
0.3335180182
0.28824133
0.2489573751
0.2146629974
0.1857465298
0.1619007867
0.1418972622
0.1243894707
0.108611299
0.09439828342
0.08173199367
0.07058354369
0.06086550907
0.05241853082
0.04509417924
0.03871349274
0.03314641564
0.02827996067
0.02402873042
0.02031968481
0.01709883942
0.01431278682
0.01190232687
0.009817092981
0.008010531565
0.006466520972
0.005144546899
0.004019518611
0.003071459362
0.002281712807
0.00162684654
0.001090583663
0.0006555697768
0.0003042633263
2.824564383e-05
-0.0001823440791
-0.0003363593522
-0.0004419929042
-0.0005107090659
-0.0005477810729
-0.0005593713995
-0.0005498959782
-0.0005245795798
-0.0004877376774
-0.0004439519969
-0.0003961934272
-0.0003468701996
-0.0002980775308
-0.0002516252314
-0.0002085465881
-0.0001693690182
-0.0001344167938
-0.0001039752268
-7.826950123e-05
-5.709322153e-05
-4.051240692e-05
-2.804734843e-05
-1.844778329e-05
-1.128918537e-05
-6.263384645e-06
-3.01849761e-06
-1.11671184e-06
-4.787543217e-08
5.609353999e-07
1.089514143e-06
9.584803212e-07
1.08247088e-07
-5.073015908e-06
-1.324612626e-05
)


101
(
3.7373509e-06
0.007029614837
0.05562618847
0.1670904237
0.3360780423
0.5460241006
0.7780628258
1.013477606
1.237530857
1.439600929
1.611169963
1.746705616
1.84418414
1.903371219
1.92622826
1.915929914
1.87633823
1.812162831
1.72726899
1.626667713
1.514348021
1.393784961
1.269093447
1.14387937
1.021338494
0.9040889541
0.7940702105
0.6926697861
0.6007555586
0.5186161954
0.4460885996
0.3827206558
0.3276858796
0.2800140104
0.238752637
0.2029205469
0.1722574904
0.146479228
0.1247690337
0.1061104388
0.08976107202
0.07540321843
0.06277763223
0.05177261911
0.04227560625
0.03408952729
0.02709015034
0.02108900052
0.0159563051
0.01155029727
0.007785575804
0.004574759305
0.001865795442
-0.0003864092545
-0.002238616887
-0.003753960393
-0.004991341853
-0.005948840491
-0.006682937215
-0.007218444362
-0.007582999128
-0.007785891899
-0.007857937756
-0.00781533239
-0.007676259133
-0.0074617504
-0.007182661503
-0.006850114363
-0.006476898682
-0.006068319856
-0.005638657627
-0.005194447102
-0.004745167113
-0.004296590358
-0.003854754893
-0.003424535019
-0.003011946931
-0.002622398053
-0.002258296406
-0.001923413963
-0.001620021132
-0.001349256752
-0.001108434305
-0.0008974046408
-0.0007138184819
-0.0005576309275
-0.0004258093805
-0.0003185493896
-0.0002342492519
-0.0001692181338
-0.0001176318287
-7.913715605e-05
-5.13301037e-05
-3.185145222e-05
-1.93256935e-05
-1.019931161e-05
-1.939888621e-06
-1.178835282e-05
-3.224094112e-05
-9.967069822e-05
-0.0001995122346
)


101
(
3.700289436e-06
0.006810345466
0.05399786307
0.1625818553
0.3277757253
0.5336947466
0.7621325759
0.9949313981
1.217781797
1.420088873
1.59353775
1.732282455
1.833943949
1.898015717
1.926039911
1.920817409
1.885927245
1.825807518
1.744267664
1.646068989
1.535207201
1.415290945
1.290259445
1.163560882
1.038489506
0.9178752413
0.8038185322
0.6979018912
0.6011989886
0.5142264683
0.4370131116
0.3692487608
0.310338444
0.259227161
0.2151053734
0.1769432747
0.1441361914
0.1162586565
0.09258647869
0.07227717784
0.05472304921
0.03964623341
0.02663716645
0.01551970157
0.006128624685
-0.001834087656
-0.008493006689
-0.01406281328
-0.01866424627
-0.02247755634
-0.02557196812
-0.02806464583
-0.03000946338
-0.03144914178
-0.03243091125
-0.03303292662
-0.03333812349
-0.03330903191
-0.03303592271
-0.03253001313
-0.03183184737
-0.03095328783
-0.02992932622
-0.02878446836
-0.0275379194
-0.02621151205
-0.02481884774
-0.0233739272
-0.0218979702
-0.0204022821
-0.01890343789
-0.01740919237
-0.01593225895
-0.0144835586
-0.01307521639
-0.01171655532
-0.01041814433
-0.009186625938
-0.008026182842
-0.006947832179
-0.005957775547
-0.005063159757
-0.004254925704
-0.00353460462
-0.002897462508
-0.002340286015
-0.001856421168
-0.001446366725
-0.001109392965
-0.0008414889735
-0.0006212814938
-0.0004466225696
-0.0003155016807
-0.0002164345104
-0.00014723419
-9.022230236e-05
-3.897523206e-05
-0.0001263864
-0.0002732928381
-0.0005694649276
-0.0009120706521
)


101
(
3.663374368e-06
0.006595143722
0.05239819799
0.1581484326
0.3196117765
0.5215900506
0.7465415821
0.9768688184
1.198690936
1.401449411
1.577017451
1.719230154
1.825318804
1.894449112
1.927717969
1.92751494
1.897103699
1.840614629
1.761788694
1.665162546
1.55473007
1.43425272
1.307610334
1.178129885
1.04915098
0.9237451239
0.8042130149
0.6923242583
0.5893494172
0.4960531397
0.4126775901
0.3390871371
0.2749027297
0.2189313196
0.1706605757
0.1290067195
0.09316188914
0.06256694926
0.03642677469
0.01386894234
-0.005608373327
-0.02215628996
-0.03625041004
-0.04805138009
-0.05772886736
-0.06571358954
-0.07216652906
-0.07738426086
-0.08147205179
-0.08465778588
-0.08698281902
-0.08859320282
-0.08953990776
-0.08987581106
-0.08965190738
-0.08895228769
-0.08789453924
-0.08639426122
-0.08458222384
-0.0824535899
-0.08006907695
-0.07743978738
-0.07461195276
-0.07161956374
-0.0684947806
-0.06526166956
-0.06193372745
-0.05852538196
-0.05506883339
-0.05158575695
-0.04811032912
-0.04465333872
-0.04122919626
-0.03785189735
-0.03454621875
-0.03133343326
-0.02824079755
-0.02527797844
-0.02244906654
-0.01977385736
-0.01726918319
-0.0149620298
-0.01284592796
-0.01091757223
-0.009181731061
-0.007629411848
-0.006247192433
-0.005035031075
-0.004002120253
-0.003145093026
-0.00243299628
-0.001833216441
-0.001361900062
-0.0009934147732
-0.0007134548358
-0.0004804083826
-0.0002579851037
-0.0006555116456
-0.001196736602
-0.00174923316
-0.001781215774
)


101
(
3.626605683e-06
0.006383977909
0.05082686016
0.1537886202
0.3115810914
0.5096967377
0.7312619802
0.9592382316
1.180164105
1.383530042
1.561386434
1.707240571
1.817897177
1.892139751
1.930585653
1.935170388
1.908804718
1.85527412
1.778235085
1.682013527
1.570609104
1.447937761
1.317899968
1.183816403
1.049025169
0.9168559441
0.7898744666
0.6700468297
0.5588140049
0.4571950823
0.365669639
0.284324737
0.2130117002
0.1502715781
0.09603138505
0.04917275863
0.008778569741
-0.02577113739
-0.05539080726
-0.0811458761
-0.1035077108
-0.1224839928
-0.1386734383
-0.1521247694
-0.1628988584
-0.1715339004
-0.1782173586
-0.1833938199
-0.1871749819
-0.1898773639
-0.191513654
-0.1922240531
-0.1920555007
-0.1910860647
-0.1893554744
-0.186966892
-0.1841115158
-0.1806192731
-0.1766720908
-0.1722369687
-0.1674068289
-0.1621882135
-0.1566516732
-0.1508428422
-0.1448158976
-0.1386063754
-0.1322275606
-0.1256927376
-0.1190355106
-0.1122842617
-0.1055102887
-0.09874230895
-0.09200925561
-0.08531718324
-0.0786966682
-0.07219120545
-0.06586341031
-0.05974283057
-0.05382963436
-0.04815004668
-0.042738652
-0.03765544571
-0.03292536563
-0.02852938489
-0.02450210525
-0.02081952857
-0.01749215564
-0.01448255257
-0.01184719598
-0.009580214673
-0.007646481532
-0.005968424369
-0.004609960204
-0.00350889065
-0.002628652474
-0.001885894845
-0.001123003982
-0.002252711722
-0.003241903351
-0.001856711587
0.004645119999
)


101
(
3.589983303e-06
0.006176816886
0.04928352757
0.1495009842
0.3036788789
0.4980022208
0.7162673521
0.9419913973
1.162113504
1.366187374
1.546434043
1.696021451
1.811287355
1.890578467
1.933990222
1.942953509
1.919980233
1.868469544
1.791970122
1.694601631
1.580385547
1.45338548
1.317548678
1.176388132
1.033221078
0.8916351274
0.7545137986
0.6240548344
0.5018566671
0.3891936555
0.2867972273
0.1950410733
0.1140744947
0.04200286449
-0.02072729428
-0.0752042942
-0.1223644867
-0.1628296886
-0.1976400512
-0.2281416552
-0.2548504673
-0.2776504127
-0.2973317878
-0.3138260507
-0.3269891471
-0.3374114127
-0.3452359934
-0.3510759371
-0.355099927
-0.3577581482
-0.3590267544
-0.3590506319
-0.3578705814
-0.3555546314
-0.3521471785
-0.3477856412
-0.3427342744
-0.336748712
-0.330060644
-0.3225877301
-0.314473011
-0.3056959259
-0.2963576638
-0.2865304365
-0.2763019657
-0.2657374989
-0.2548577089
-0.243674885
-0.2322127694
-0.220484868
-0.2086099726
-0.1966529821
-0.1846832651
-0.1727106076
-0.1607601004
-0.1488850749
-0.1371943731
-0.1257818601
-0.1146566016
-0.1038415697
-0.09337576612
-0.08338453653
-0.07395220985
-0.06506241364
-0.05676547244
-0.0490521582
-0.04198262275
-0.03546464347
-0.02961143287
-0.02445911201
-0.01994337566
-0.01597801468
-0.01263999228
-0.009860098959
-0.007566125159
-0.005583294469
-0.00357939629
-0.005185925382
-0.004094888415
0.01009745966
0.04879902196
)


101
(
3.55350724e-06
0.005973631073
0.04776789819
0.1452842193
0.2959008378
0.4864949687
0.7015327739
0.9250821309
1.144459503
1.34929299
1.531966312
1.685296869
1.80511352
1.889270731
1.937291173
1.950041095
1.929573526
1.878855113
1.801291253
1.700786207
1.58140994
1.447377998
1.302679447
1.151174086
0.9962528208
0.8417442432
0.6908799351
0.546146206
0.4093151164
0.281938056
0.1649953707
0.05918865987
-0.03491693957
-0.1197602894
-0.1943433112
-0.2597106754
-0.3167253849
-0.3659547519
-0.4086019838
-0.4462766988
-0.4795300615
-0.5081465955
-0.5332329269
-0.5546647934
-0.5720529837
-0.585997508
-0.5964955429
-0.6043054931
-0.6096320792
-0.6131016342
-0.6146924165
-0.6145881548
-0.6128120766
-0.6093990762
-0.6044057479
-0.5979364159
-0.5904028765
-0.5814568172
-0.571438156
-0.5601736181
-0.5478661435
-0.5344550799
-0.5200445757
-0.504750997
-0.4887007929
-0.4720099131
-0.4547241566
-0.4368868205
-0.4185031798
-0.3995492457
-0.3801678071
-0.3604705497
-0.3405918567
-0.3205834022
-0.3004748263
-0.2803087206
-0.2602245095
-0.2404222049
-0.2209630779
-0.2018909438
-0.1832289371
-0.1651531579
-0.1478780286
-0.1314137494
-0.11581708
-0.1011118507
-0.08744872924
-0.07476295762
-0.06312292899
-0.05270817172
-0.04340575433
-0.03513624682
-0.02800463328
-0.02195313489
-0.01687863864
-0.01236513234
-0.007904236935
-0.005485009836
0.009869714829
0.06929274563
0.1855292498
)


101
(
3.517177502e-06
0.005774391089
0.04627967803
0.1411370764
0.2882428913
0.4751640751
0.6870346853
0.9084668994
1.127127742
1.332728477
1.517801231
1.674805797
1.799015877
1.88773826
1.93986442
1.955624133
1.936531121
1.885066486
1.804450855
1.698343593
1.57088155
1.426453159
1.269079923
1.103032843
0.9319950821
0.7600079427
0.5906503355
0.426796175
0.2704558828
0.1234956385
-0.01285394942
-0.1375371483
-0.2494576516
-0.3516508102
-0.4425133975
-0.5230924869
-0.594126965
-0.656063669
-0.7102814618
-0.7586272408
-0.8016082115
-0.8388722616
-0.8720077468
-0.9009034251
-0.9249743048
-0.9448629681
-0.960310359
-0.9721450803
-0.9804987369
-0.9862118258
-0.9893135259
-0.9900905751
-0.9885412997
-0.9846663568
-0.9784774948
-0.9699814143
-0.9598645594
-0.947571176
-0.933654881
-0.9177785118
-0.9002375944
-0.8809168547
-0.8599096363
-0.8373636747
-0.8134134544
-0.7882397229
-0.7619837212
-0.7347159509
-0.706485768
-0.6772001324
-0.6469829867
-0.6159718189
-0.5843954752
-0.5523944241
-0.5200493744
-0.4873899933
-0.4545381531
-0.4218098145
-0.3894162336
-0.3574469544
-0.3259345621
-0.2950867006
-0.2652681369
-0.2366160169
-0.2092039577
-0.1830872587
-0.1585051765
-0.1355881209
-0.1143560026
-0.09501883999
-0.07766131862
-0.06205798412
-0.04840884209
-0.03665414026
-0.02678115619
-0.01793170176
-0.009454989011
0.014600148
0.08007113638
0.2592908462
0.5778262553
)


101
(
3.480994156e-06
0.005579068562
0.04481859039
0.1370583879
0.2807012068
0.4639991891
0.6727504964
0.8921043314
1.110049803
1.316383799
1.503766475
1.664300481
1.792650546
1.885519034
1.941101401
1.958906309
1.939811387
1.885737071
1.799674254
1.684987869
1.545854497
1.386880461
1.212103737
1.026220393
0.8334302584
0.63807489
0.4441362097
0.2549412724
0.07281053308
-0.1000265565
-0.2620638232
-0.4118380961
-0.5476107911
-0.6731262626
-0.7860266438
-0.887415899
-0.9779029811
-1.057766405
-1.128562454
-1.192305937
-1.249415391
-1.299275034
-1.344095477
-1.383851689
-1.417860017
-1.446903215
-1.470368198
-1.489097467
-1.503023892
-1.513149805
-1.519576885
-1.522756588
-1.522702082
-1.519382354
-1.512696973
-1.502595595
-1.489920603
-1.473947606
-1.455443523
-1.433939474
-1.409814071
-1.382899625
-1.35323761
-1.321002558
-1.286353241
-1.249410232
-1.210486909
-1.169746439
-1.127310938
-1.08309633
-1.037133119
-0.9895219674
-0.9406314953
-0.8906843031
-0.8399041962
-0.7883397675
-0.7361170376
-0.6836609962
-0.631253633
-0.579257019
-0.5277870336
-0.4770217565
-0.4274662758
-0.3795996106
-0.3334378336
-0.2891819061
-0.2472176719
-0.2078539779
-0.1713653886
-0.1377399459
-0.1073516785
-0.08001989363
-0.0559889703
-0.03517530413
-0.0175437846
-0.001868952831
0.01261549577
0.1048099402
0.3007378249
0.735019198
1.430443679
)


101
(
3.444956982e-06
0.005387636006
0.04338437108
0.133047049
0.2732721866
0.45299053
0.6586582178
0.8759541569
1.093164584
1.300161395
1.489697841
1.65354419
1.785685912
1.88215715
1.940394956
1.959091116
1.938384956
1.879529342
1.785204282
1.658411077
1.503271508
1.324677487
1.126687184
0.9144726401
0.6929228576
0.4667893683
0.2405793012
0.01816970034
-0.1977155847
-0.4044322094
-0.6001544378
-0.782918784
-0.9502047441
-1.106636718
-1.248934375
-1.378278016
-1.495139123
-1.599578012
-1.693351875
-1.778628563
-1.855675786
-1.923451685
-1.98485191
-2.039971093
-2.088134697
-2.130438576
-2.165878746
-2.195289991
-2.218229951
-2.235760382
-2.248076745
-2.255798537
-2.258931785
-2.257517422
-2.251332502
-2.240222539
-2.225016952
-2.2048691
-2.180739681
-2.152078959
-2.119294046
-2.082247717
-2.040883944
-1.995322213
-1.94569755
-1.8921628
-1.835076239
-1.774670692
-1.711376037
-1.644978618
-1.575608483
-1.50317735
-1.428257137
-1.351103804
-1.272159184
-1.19164829
-1.109660201
-1.026676409
-0.9433459117
-0.8600615235
-0.7773712295
-0.6954051638
-0.614954254
-0.5368476043
-0.4611321847
-0.3882649027
-0.3190199494
-0.2537280343
-0.1931287825
-0.1371249882
-0.08642214495
-0.04078764033
-0.0007298965632
0.03410155314
0.06354138265
0.08972346379
0.1131287481
0.3675311529
0.8379360264
1.73368678
3.084868188
)


101
(
3.409065911e-06
0.005200066509
0.04197676549
0.129102015
0.2659524228
0.4421289014
0.6447371699
0.8599780782
1.076414295
1.283971664
1.47544149
1.642312502
1.777806375
1.877214187
1.937154641
1.955394861
1.93122895
1.865110284
1.759276731
1.616300364
1.440043572
1.235762842
1.007556376
0.7611668789
0.5023362077
0.2363316714
-0.03168418313
-0.297165656
-0.5568386473
-0.8074966369
-1.046907766
-1.27255161
-1.48099924
-1.677878579
-1.858789852
-2.024995907
-2.176821681
-2.314069688
-2.438743323
-2.553260797
-2.657636133
-2.750195993
-2.834544075
-2.91088609
-2.978599925
-3.039288781
-3.091604463
-3.136432184
-3.172786568
-3.201668042
-3.223196981
-3.23816662
-3.246585055
-3.248638708
-3.243974835
-3.232266535
-3.214349763
-3.188975847
-3.15752822
-3.119158596
-3.074343511
-3.022986262
-2.965060939
-2.900408262
-2.829127555
-2.751515796
-2.667665031
-2.578191328
-2.483397901
-2.383432446
-2.278569567
-2.168416047
-2.053742016
-1.934826807
-1.812392063
-1.687034927
-1.558688527
-1.428444175
-1.296898762
-1.164665872
-1.03315412
-0.9024494774
-0.7735055802
-0.6478611198
-0.5262052637
-0.4086770766
-0.2964528973
-0.1911014569
-0.09272292473
-0.001800010637
0.0798141999
0.1538281757
0.2179027395
0.2739657682
0.3214017403
0.3637525542
0.4000480364
0.9715090236
1.929168766
3.56055626
5.942816167
)


101
(
3.373320933e-06
0.005016334207
0.04059553156
0.1252223086
0.258738694
0.4314055211
0.6309679212
0.8441396532
1.059744439
1.267732139
1.460861195
1.630389073
1.768709918
1.870274539
1.930819729
1.94706629
1.917328643
1.841121289
1.720062086
1.556151084
1.352881223
1.115874376
0.8492991421
0.5594582867
0.2531534592
-0.0636633349
-0.3850795706
-0.7057458327
-1.021628885
-1.328710766
-1.624158004
-1.904844505
-2.166405503
-2.41551431
-2.646433324
-2.860470468
-3.057795652
-3.237922496
-3.403154648
-3.556318307
-3.69707066
-3.823023459
-3.938425015
-4.043419474
-4.137390298
-4.222715073
-4.29783123
-4.363689471
-4.41875193
-4.463814484
-4.498558502
-4.523956406
-4.540072992
-4.54713114
-4.544714861
-4.532354403
-4.510797581
-4.478132781
-4.436212023
-4.383805513
-4.321568085
-4.249130432
-4.166687139
-4.073659966
-3.970244548
-3.856740826
-3.733029709
-3.599720419
-3.45716667
-3.306077526
-3.146900855
-2.978970616
-2.803460864
-2.620338548
-2.430803509
-2.236238746
-2.036421243
-1.833238836
-1.626821725
-1.41920831
-1.211958922
-1.005594089
-0.8022099731
-0.6029666736
-0.40977424
-0.2241522021
-0.04642742768
0.120388493
0.275686799
0.4196757965
0.5474118726
0.6637167515
0.7640003571
0.8513172236
0.9258340108
0.9920862786
1.046828157
2.157733414
3.880319285
6.579423114
10.22202845
)


101
(
3.33772206e-06
0.004836414058
0.03924043902
0.1214070082
0.2516280056
0.4208122263
0.6173323105
0.8284042023
1.043103263
1.251366739
1.445834791
1.617567851
1.758106489
1.860944388
1.920856579
1.933387272
1.895693545
1.806195054
1.66570079
1.475380413
1.238416173
0.9606543337
0.6463880548
0.3023287376
-0.06343886289
-0.4440200405
-0.8326949339
-1.223138565
-1.610271355
-1.988972764
-2.355596543
-2.706233531
-3.035472341
-3.35117708
-3.645977152
-3.921147746
-4.176699615
-4.411868534
-4.62930489
-4.832351601
-5.02043159
-5.190212864
-5.34653031
-5.489367376
-5.617944256
-5.735467631
-5.840249646
-5.933525401
-6.013344443
-6.080052311
-6.132537297
-6.171832398
-6.198074197
-6.211282671
-6.211165805
-6.197153809
-6.169602912
-6.125788199
-6.068011122
-5.994563149
-5.90602611
-5.801890865
-5.682337267
-5.546538915
-5.395167215
-5.227319533
-5.043639226
-4.844542448
-4.630249293
-4.401922877
-4.160022816
-3.904485581
-3.63643562
-3.356002356
-3.064689592
-2.764667362
-2.457041182
-2.142497594
-1.823343074
-1.501674653
-1.179331288
-0.8588092831
-0.5440472062
-0.2345722636
0.06547324608
0.3532813358
0.6273436185
0.8851709602
1.12313498
1.344054633
1.539143589
1.715111874
1.867555707
1.998530223
2.111325804
2.21200809
2.293344002
4.225011056
7.041070576
11.21873782
16.7004524
)


101
(
3.302269146e-06
0.004660280379
0.03791138473
0.1176552253
0.2446175163
0.4103414103
0.6038133819
0.8127387871
1.026438106
1.234800912
1.43025235
1.603657887
1.745719833
1.848845135
1.906746889
1.913658245
1.865362661
1.759010985
1.594408007
1.371483821
1.093352731
0.7657991506
0.3932597526
-0.01733378327
-0.4564949953
-0.9160222373
-1.388231862
-1.865658154
-2.341867337
-2.8103247
-3.266392952
-3.705082236
-4.119596267
-4.519206571
-4.894604195
-5.246883812
-5.575882026
-5.880625539
-6.164230029
-6.430602167
-6.678894977
-6.904746209
-7.113766478
-7.305494066
-7.478693043
-7.637366578
-7.779760393
-7.907662281
-8.018679492
-8.112786032
-8.18781509
-8.244455374
-8.282777288
-8.30251938
-8.303326434
-8.284758738
-8.246636978
-8.18526221
-8.102870881
-7.997333613
-7.869041904
-7.717247086
-7.54173148
-7.341878768
-7.118558313
-6.869706024
-6.596980944
-6.299988368
-5.979266054
-5.635435786
-5.270364096
-4.884605117
-4.478901421
-4.054260491
-3.612804476
-3.156624757
-2.687862562
-2.210154401
-1.725301579
-1.236070264
-0.7450479324
-0.2587423534
0.2191028042
0.6871292473
1.140793465
1.574985163
1.984899073
2.371002975
2.724130911
3.0509476
3.339883216
3.595193185
3.816642289
4.005356058
4.166442437
4.311571729
4.424848598
7.520375551
11.82400091
18.02853345
26.00047432
)


101
(
3.266962205e-06
0.004487908873
0.0366080335
0.113966147
0.2377046306
0.3999860934
0.5903954923
0.7971126698
1.009693476
1.217951875
1.414014813
1.588489175
1.731296854
1.833611884
1.887962145
1.887135816
1.825321146
1.698202345
1.504394277
1.242219136
0.9146753259
0.5272761969
0.08444859702
-0.4065783512
-0.9350341996
-1.491017792
-2.065612718
-2.650046076
-3.236201917
-3.815802742
-4.38300613
-4.931377617
-5.452219478
-5.956397031
-6.432368193
-6.880872432
-7.301461774
-7.693007516
-8.059218201
-8.404607954
-8.728109383
-9.024303225
-9.299638337
-9.553065961
-9.782608392
-9.992894331
-10.18200555
-10.35242368
-10.50124493
-10.62840243
-10.73051559
-10.80753847
-10.85905026
-10.88434058
-10.88274931
-10.85367268
-10.79695517
-10.70770769
-10.58735282
-10.43303825
-10.2457671
-10.02295521
-9.764775249
-9.470698604
-9.141418827
-8.774342367
-8.371181244
-7.931457213
-7.455725197
-6.944290138
-6.401298744
-5.826033485
-5.220463159
-4.587360611
-3.929282394
-3.248447289
-2.549933103
-1.838663253
-1.11684275
-0.3895420665
0.3388296835
1.059420183
1.766496898
2.456067945
3.119949713
3.757812064
4.353448503
4.911511362
5.4178776
5.883356304
6.29352532
6.649978519
6.954625882
7.211185873
7.428454195
7.62524445
7.770659189
12.46387565
18.77284319
27.80496571
39.08790587
)


101
(
3.231801248e-06
0.004319276139
0.03533018548
0.1103390099
0.2308869641
0.3897398605
0.5770642216
0.7814973837
0.9928172902
1.200739457
1.397031145
1.571904413
1.714601345
1.81490464
1.864007303
1.853117918
1.77460216
1.622451667
1.393899176
1.085392796
0.6994876056
0.2412758973
-0.2852863442
-0.8722400078
-1.507871952
-2.180259092
-2.878810549
-3.59323564
-4.313495835
-5.02916673
-5.732853414
-6.416349308
-7.068534924
-7.701706266
-8.301785059
-8.86909444
-9.402711039
-9.901315991
-10.36939305
-10.81215318
-11.22818961
-11.61097477
-11.96800124
-12.29757169
-12.59674252
-12.8705455
-13.11654739
-13.33789785
-13.53123179
-13.69671655
-13.82973917
-13.9290352
-13.99328373
-14.02120854
-14.01134833
-13.96241489
-13.87451036
-13.74140348
-13.56387538
-13.33771739
-13.06386705
-12.73799352
-12.36063942
-11.93113637
-11.44925911
-10.91334872
-10.32387047
-9.680864255
-8.985451032
-8.237972172
-7.44307247
-6.600410588
-5.714356563
-4.788628016
-3.826162079
-2.831257139
-1.811491528
-0.7743803063
0.2747851521
1.329991591
2.385026109
3.42814077
4.448143551
5.436235309
6.384997239
7.2928633
8.136599766
8.919299192
9.623006647
10.26367179
10.82380347
11.29949613
11.70286576
12.03153906
12.30807962
12.5554815
12.72645857
19.62266134
28.69535841
41.75893998
57.90914956
)


101
(
3.196786132e-06
0.004154358491
0.03407764736
0.1067730911
0.2241623062
0.379596795
0.5638063322
0.7658651697
0.975758011
1.183084445
1.379192681
1.553769875
1.695398991
1.792381686
1.834392315
1.810921172
1.712278647
1.530489031
1.261196453
0.8987502208
0.4448533529
-0.09606644155
-0.7209194734
-1.420866651
-2.18345475
-2.994622145
-3.841509538
-4.711919478
-5.593815707
-6.474239934
-7.343680992
-8.191783001
-9.004645867
-9.795532186
-10.54731658
-11.25998058
-11.93182916
-12.56120179
-13.15356455
-13.71483927
-14.24319154
-14.73091026
-15.1867603
-15.60840102
-15.99184608
-16.34228716
-16.65625343
-16.93738469
-17.1820479
-17.39051433
-17.55689616
-17.67871452
-17.75275391
-17.77748845
-17.75000277
-17.66794628
-17.53106902
-17.33198429
-17.07066306
-16.74131878
-16.34347774
-15.87242232
-15.32761462
-14.70863063
-14.01277978
-13.2414263
-12.39297161
-11.46821567
-10.46909672
-9.394865221
-8.25175625
-7.042567318
-5.772391833
-4.445477763
-3.066767672
-1.642884247
-0.1844750902
1.296143277
2.788724505
4.287042214
5.78549556
7.26249767
8.702735469
10.08996618
11.41505961
12.67962126
13.8507944
14.92477806
15.88005997
16.73824763
17.48226938
18.10062207
18.61503136
19.01700623
19.34998188
19.6448226
19.83473863
29.83655225
42.82579058
61.71049699
84.95785792
)


101
(
3.16191692e-06
0.00399313349
0.03285049054
0.1032677532
0.2175286897
0.3695515774
0.550609929
0.7501909086
0.958467766
1.16491189
1.360391451
1.533966316
1.673471721
1.765706226
1.798642902
1.759895488
1.637478162
1.421119498
1.104650991
0.6801012646
0.1479527612
-0.4884296487