/*--------------------------------*- C++ -*----------------------------------*\
| =========                 |                                                 |
| \\      /  F ield         | OpenFOAM: The Open Source CFD Toolbox           |
|  \\    /   O peration     | Version:  2.3.1                                 |
|   \\  /    A nd           | Web:      www.OpenFOAM.org                      |
|    \\/     M anipulation  |                                                 |
\*---------------------------------------------------------------------------*/
FoamFile
{
    version     2.0;
    format      ascii;
    class       dictionary;
    location    "constant";
    object      rH2O;
}
// * * * * * * * * * * * * * * * * * * * * * * * * * * * * * * * * * * * * * //

rH2O_table
101
(

101
(
0.005585519394
1.785431946
10.30788529
26.819205
49.94034962
77.71007318
108.0919037
139.0132153
168.8296778
196.2164166
219.891641
239.0096875
253.0401609
261.400971
264.2172194
261.7385279
254.3668627
242.7729914
227.9262586
210.6116564
191.8019014
172.2620482
152.9459177
134.4260133
117.1410984
101.3985019
87.34092895
74.97871608
64.2886405
55.10273857
47.26732747
40.57913882
34.79230438
30.07149164
26.01253979
22.56245279
20.16350591
18.54369184
16.16352861
14.14287611
12.41086262
10.88128379
9.563707981
8.414717083
7.39988023
6.517176096
5.738555788
5.059679878
4.460316583
3.935319404
3.471465119
3.062916887
2.702773459
2.385337085
2.105008905
1.856952518
1.641383729
1.449069163
1.281359538
1.132895411
1.002726809
0.8882794646
0.7872336689
0.6987387953
0.6213086576
0.5528818905
0.4927005058
0.4397828853
0.3932540819
0.3520772111
0.3157122398
0.2833861094
0.2546879528
0.2291914508
0.2092220741
0.1893193344
0.1685029181
0.1496102677
0.132355343
0.1165325826
0.1020791165
0.08892862773
0.07705150957
0.06697724601
0.05655106306
0.04673341932
0.03796771401
0.0302295735
0.02355754485
0.01825985835
0.01305640007
0.008816452183
0.005630908318
0.003127404507
0.001440552924
0.0003533628194
-2.743020228e-14
2.435556727e-32
1.613696573e-24
-3.364104774e-24
0
)


101
(
0.005558494435
1.740422477
10.02325292
26.04938481
48.44200008
75.25357817
104.4900825
134.1389031
162.6261772
188.6905917
211.1569427
229.2366155
242.4689775
250.3585552
253.027716
250.7372527
243.8808989
233.0766108
219.2130995
203.0030118
185.3580378
166.9810472
148.6843293
131.0687411
114.5508986
99.42403737
85.84547561
73.8495585
63.41570403
54.4243318
46.73136324
40.1610108
34.50011197
29.76173221
25.73948347
22.31027905
19.66823005
17.76582833
15.79042139
13.88019151
12.18562638
10.69519353
9.39930381
8.273827006
7.28820798
6.426826855
5.670518488
5.007146602
4.423451354
3.910088561
3.457594715
3.058354053
2.705864678
2.393999645
2.118171738
1.874268224
1.660016237
1.470733296
1.303913082
1.156634954
1.026639182
0.9119666577
0.8105850507
0.7210317557
0.6421066371
0.5725771777
0.5111123973
0.4567581375
0.4086535981
0.3660864076
0.3283683434
0.2948329413
0.2649282488
0.2381613863
0.2151745954
0.1948017997
0.1753934115
0.1569718365
0.1397848149
0.1239207587
0.1093823003
0.09607453536
0.08393132241
0.07315191207
0.06322946383
0.05371072702
0.04477305208
0.03668422485
0.02951229835
0.02337034641
0.018055365
0.01327470396
0.009271203689
0.006127423319
0.003652005318
0.001812461142
0.0005631916286
0.0006621339515
0.000763882914
0.0008767442124
0.0009914204878
)


101
(
0.005531521437
1.696134011
9.744356623
25.29742944
46.98453458
72.87633249
101.0237534
129.4758896
156.7287546
181.583679
202.9631425
220.1334798
232.693242
240.2214727
242.8386818
240.8075326
234.5096744
224.5149284
211.6353458
196.5186518
180.0111552
162.760302
145.4706259
128.7321993
112.9517012
98.4137316
85.2853251
73.62235505
63.41585592
54.57957375
46.98965175
40.49323305
34.90370419
30.16280599
26.12862541
22.68389113
19.90436303
17.77397769
15.88366913
14.0892964
12.44091684
10.96519567
9.668893531
8.538146792
7.549318793
6.684269514
5.924651191
5.255846785
4.665750306
4.144482144
3.683468401
3.27526157
2.91360581
2.592525302
2.306922427
2.052799768
1.827240028
1.627083002
1.449519635
1.291768533
1.151650374
1.027064589
0.916122693
0.817444123
0.7297682618
0.6518957914
0.5825428425
0.5207741583
0.4657854872
0.4167446809
0.3730991227
0.33415096
0.2994746891
0.26837413
0.2408033042
0.2165167529
0.1946816858
0.1746241078
0.1560080577
0.1387669994
0.1229756073
0.108576611
0.09545572776
0.08359147682
0.0729156889
0.06311960284
0.0539018795
0.04530658252
0.03754245286
0.0306757829
0.02465053267
0.0193829589
0.01466393635
0.01070004784
0.007501663255
0.004753972115
0.002485353812
0.002942359805
0.003419733772
0.003980259586
0.004559039313
)


101
(
0.005504600386
1.652559868
9.4711012
24.56292046
45.56664618
70.57508795
97.68617656
125.0117749
151.1167866
174.8637484
195.2646938
211.6382416
223.633184
230.8922844
233.5345421
231.81805
226.1091953
216.933241
205.0304193
190.9897379
175.591243
159.4318289
143.1314027
127.2495205
112.1835465
98.21411429
85.51549638
74.16192068
64.16055561
55.45111791
47.93258027
41.47492966
35.91445378
31.16482474
27.09842425
23.59647296
20.71822075
18.40681152
16.46091109
14.70721298
13.09274814
11.62345199
10.31329842
9.158162986
8.143423658
7.253958036
6.471353444
5.780419709
5.16765245
4.623436523
4.138894171
3.707329033
3.32272359
2.97927223
2.671811529
2.396376939
2.149153118
1.927533918
1.729174932
1.551211635
1.391759142
1.24868436
1.120082407
1.004525141
0.9006815127
0.8073241838
0.7233809267
0.6477879345
0.5800129169
0.519058022
0.4642630996
0.4149846598
0.3708804451
0.331249243
0.2956854131
0.2639795829
0.2357405017
0.2104261958
0.1874930788
0.1665572425
0.1474967437
0.1302193352
0.1146324314
0.1005794002
0.08796281011
0.07665252346
0.06637602482
0.05685572359
0.04811580771
0.04028106972
0.03333400011
0.02724063943
0.0218434551
0.01704169935
0.01303241433
0.009358671257
0.00594733531
0.007070165167
0.008264079935
0.009729665482
0.01130505307
)


101
(
0.005477731271
1.609693484
9.203393362
23.84545104
44.18707308
68.34673025
94.47094323
120.7348673
145.7709781
168.5011766
188.0196683
203.6942598
215.2166065
222.2834263
225.0123751
223.6527679
218.5529792
210.1970101
199.2587046
186.2729951
171.9551137
156.8553994
141.5257393
126.4854419
112.119747
98.70645418
86.42601046
75.3687025
65.55912768
56.95919583
49.48964978
43.04411417
37.47957385
32.70635452
28.59813313
25.05047663
22.05397101
19.58554177
17.53020317
15.74154876
14.12589419
12.65027877
11.31803268
10.12779331
9.071988663
8.141329816
7.319342242
6.591320615
5.942470934
5.362916483
4.842997459
4.376264346
3.957142697
3.580361601
3.240515423
2.933181944
2.655248747
2.403088161
2.174968009
1.967708811
1.780002777
1.60991151
1.455422884
1.315189442
1.187695895
1.071352451
0.965378622
0.868898474
0.7813428609
0.7018395483
0.6293106175
0.563356527
0.5036255987
0.4496146768
0.4007094478
0.3565426433
0.3167427478
0.281139559
0.2491735571
0.2203454297
0.1943373209
0.1708581348
0.149835576
0.1310547038
0.1142849094
0.09938211422
0.08614496892
0.07430781442
0.06362093525
0.05401232581
0.04548148091
0.03798940035
0.03143987538
0.02561752254
0.02062497141
0.01592269772
0.01124843897
0.01350013447
0.01599188044
0.01940130557
0.02318229617
)


101
(
0.005450914074
1.56752836
8.941141721
23.14462627
42.84460227
66.18829424
91.37201215
116.6342859
140.6735743
162.4690386
181.1903767
196.2513574
207.3801763
214.3191334
217.1842949
216.2135553
211.7354912
204.1954103
194.2061371
182.2529122
168.9885945
154.9202013
140.5437744
126.334777
112.6622811
99.80079654
87.93560388
77.17086701
67.54857812
59.0507228
51.61958602
45.16759313
39.5747843
34.76044748
30.59661068
26.98718558
23.88814003
21.27647939
19.08830279
17.21632662
15.55949436
14.05712291
12.69367902
11.46177603
10.35574045
9.37173945
8.497268183
7.720130971
7.024788559
6.400148035
5.835451342
5.323997719
4.860625247
4.440903348
4.059706243
3.711854243
3.394344402
3.103195395
2.837226099
2.59252517
2.367876151
2.162332631
1.973394386
1.800122417
1.641038693
1.494039755
1.358115445
1.232535565
1.116798295
1.010879232
0.9129203741
0.8224769552
0.7391580394
0.662820443
0.5928980941
0.5289636704
0.4706097477
0.4175899193
0.3694280872
0.3259628598
0.2867566858
0.2514948439
0.2196739543
0.1913136092
0.1659991404
0.1435599622
0.1236359041
0.1061699112
0.09082791908
0.07735523411
0.06540345058
0.05505743066
0.0461394558
0.03834420049
0.03173961556
0.02547946031
0.01897582952
0.02335598765
0.0287649241
0.03958042405
0.05259864262
)


101
(
0.005424148796
1.526058131
8.684256989
22.46006358
41.53807021
64.0969634
88.3837002
112.6998982
135.808209
156.7427533
174.7427063
189.2645682
200.0676153
206.9326408
209.9735909
209.415392
205.5659764
198.8340047
189.7763544
178.8327843
166.5967967
153.5347174
140.0960822
126.7122216
113.7320985
101.4255163
89.98103457
79.51412905
70.08325717
61.68900361
54.29387815
47.82866295
42.19333153
37.32370899
33.09353961
29.411857
26.21656909
23.47500681
21.14862573
19.16488752
17.43334974
15.88018713
14.47350674
13.19439229
12.03324598
10.98884672
10.05262424
9.216772086
8.46636459
7.789133954
7.173149394
6.610307889
6.0955151
5.625143504
5.195209863
4.799736156
4.435431055
4.097987714
3.78637891
3.496700863
3.227853574
2.97894832
2.747596732
2.532700768
2.333461044
2.147634384
1.973476457
1.81016881
1.657209564
1.51498045
1.38238445
1.258422929
1.1423457
1.033993528
0.9331118736
0.8395009602
0.7529970999
0.6728922988
0.5987500596
0.5307464869
0.4686809705
0.4125437376
0.3612475528
0.3149274413
0.273357263
0.2360738733
0.2026357187
0.173036103
0.1472897867
0.1250737225
0.1053665423
0.08826636193
0.07393705764
0.06160153475
0.05138702029
0.04153962935
0.0312396027
0.0430962238
0.05920988685
0.09685442575
0.1421502523
)


101
(
0.005397435407
1.485276494
8.432651428
21.79139117
40.2663626
62.07008021
85.50071732
108.9223746
131.1598558
151.2999326
168.6458857
182.6936745
193.2290878
200.0652289
203.3134944
203.1848458
199.9663497
194.0321046
185.8876597
175.9312513
164.7003989
152.6228374
140.1085494
127.5468138
115.2631917
103.5208161
92.51000866
82.35488329
73.12846007
64.84843713
57.49631246
51.02062298
45.33888356
40.40642974
36.10314818
32.34374866
29.05633879
26.19706306
23.73743856
21.62935943
19.79978181
18.17367642
16.71030551
15.37831444
14.16009027
13.05331805
12.05104309
11.1500121
10.33799433
9.602816622
8.931189551
8.313013588
7.742908687
7.217353395
6.733143645
6.284845874
5.869157236
5.480269477
5.117529895
4.776567414
4.456616779
4.157168534
3.875979469
3.612089904
3.36468114
3.131967342
2.911413967
2.702185792
2.503138264
2.314926126
2.137465448
1.969409912
1.809989349
1.658551378
1.515109982
1.379564128
1.252560135
1.133220158
1.020834537
0.9153261174
0.8168491204
0.7262216986
0.6426919739
0.5653930109
0.495084786
0.4310074366
0.3725020424
0.3193588108
0.2725840112
0.2317244823
0.1957645042
0.1634567243
0.1364822298
0.1135067025
0.09423201177
0.0760376259
0.05628338878
0.09280021551
0.1446104643
0.2730898045
0.4270653004
)


101
(
0.005370773913
1.445177276
8.186239518
21.13824936
39.02841261
60.10513229
82.71813496
105.2931369
126.7147302
146.1202037
162.8721294
176.5027801
186.8204767
193.6653652
197.1458193
197.4584018
194.8694658
189.72066
182.4705069
173.4794491
163.2326858
152.1210043
140.5197152
128.7799639
117.2014371
106.0381129
95.48062233
85.65923693
76.65897523
68.51275058
61.21977533
54.74576046
49.02402904
44.02976175
39.65210797
35.81370055
32.43857562
29.47346623
26.8917315
24.65921291
22.72010493
21.00613944
19.47406416
18.08342525
16.8076266
15.64029072
14.57312037
13.60601845
12.73031542
11.93506173
11.20577973
10.53171827
9.906031316
9.323673722
8.783256008
8.280216127
7.810630163
7.367861589
6.951649513
6.556626505
6.181981895
5.827401347
5.49036846
5.171181395
4.869061164
4.58296899
4.309886481
4.047661548
3.794705308
3.550742092
3.317803966
3.094522297
2.881340713
2.676036446
2.477666631
2.286777278
2.104790716
1.931418593
1.765701343
1.606719374
1.455324107
1.312525897
1.179506406
1.053453587
0.9364549792
0.8270518555
0.7264742742
0.6317420373
0.546544155
0.4702621211
0.4017605692
0.3386979896
0.2854373799
0.2394466377
0.1995590221
0.1625727271
0.1188417348
0.2284605572
0.3837379053
0.7604357892
1.222447794
)


101
(
0.005344164272
1.405754331
7.944937111
20.50028939
37.82319543
58.19972472
80.03129593
101.8041779
122.4601009
141.1848965
157.3961548
170.6594952
180.8022843
187.6872428
191.4192613
192.1804697
190.2169511
185.8400392
179.465209
171.4186624
162.1370857
151.975801
141.2784293
130.3632337
119.5026632
108.9387477
98.86026313
89.40137135
80.65657634
72.67181811
65.46242122
59.01068942
53.26486755
48.21917737
43.77269324
39.85946702
36.40463366
33.34801975
30.66066829
28.31406218
26.26511382
24.45575007
22.84760298
21.39510978
20.06379819
18.84166346
17.71618049
16.68859008
15.75225496
14.89906514
14.11510241
13.38943315
12.71272608
12.07826359
11.4846315
10.92798451
10.4065512
9.910749326
9.442498343
8.994962468
8.566021553
8.156151867
7.762051292
7.384805318
7.024058861
6.67950047
6.349104632
6.028996826
5.716987514
5.41181043
5.115793675
4.828439523
4.550196402
4.27992268
4.015614677
3.756991386
3.505079154
3.261699564
3.026799698
2.797047342
2.572934935
2.358004411
2.153720466
1.958176431
1.770587386
1.591304275
1.42504337
1.264164155
1.114884617
0.9780822029
0.8513734218
0.7334202648
0.629674414
0.5385224241
0.4559622536
0.3780243553
0.2856601785
0.5815175416
0.9903619441
1.908079776
3.073714765
)


101
(
0.00531760651
1.367001726
7.708662592
19.87717636
36.64973767
56.35159495
77.43581098
98.44799156
118.3842865
136.4771033
152.1951175
165.1346244
175.1390539
182.089939
186.0882654
187.3019825
185.9575085
182.3380743
176.8197511
169.697833
161.3645111
152.1414176
142.3424731
132.2568226
122.130791
112.1915959
102.6233475
93.56185305
85.1088037
77.32109401
70.22807836
63.82732905
58.0816594
53.00455337
48.50390737
44.52725905
41.00565427
37.87538969
35.10308601
32.66101698
30.51356385
28.6119961
26.92813273
25.41566909
24.0349516
22.76858779
21.5971407
20.52060039
19.53309612
18.63054395
17.80042564
17.03249144
16.31534737
15.63983531
15.00158404
14.39985157
13.83451221
13.29358987
12.78041436
12.28754946
11.81100358
11.35080591
10.90463809
10.47239141
10.05393033
9.649712331
9.261403587
8.883161187
8.512498075
8.144974906
7.782622762
7.425515023
7.076085332
6.733391384
6.394963286
6.058120824
5.724124266
5.39674821
5.07627302
4.759189433
4.443714387
4.135433039
3.836363408
3.547464847
3.263544739
2.983748784
2.720662706
2.46374462
2.217163176
1.987663441
1.766739777
1.558498688
1.369447205
1.199409904
1.041295227
0.8844180372
0.6951472859
1.410717791
2.361728117
4.262009263
6.50435304
)


101
(
0.005291100634
1.328913515
7.477335476
19.26858365
35.50710096
54.55858391
74.92752957
95.21754804
114.4764672
131.9813566
147.248224
159.9017819
169.798915
176.8368719
181.1123918
182.7796736
182.046109
179.1691268
174.4889184
168.2729079
160.8726683
152.5783267
143.675834
134.4270515
125.0552885
115.7703029
106.7482489
98.12462885
90.00636783
82.45913002
75.52410347
69.21229953
63.5001864
58.42143645
53.89137972
49.87147856
46.30209764
43.12009714
40.2884805
37.77752808
35.5543061
33.57612866
31.82669484
30.26376956
28.84559614
27.55087353
26.3520973
25.24572133
24.22509607
23.28979985
22.42908003
21.63443166
20.89386054
20.19510579
19.53052114
18.9023202
18.30820434
17.73741719
17.19301726
16.6697616
16.16097724
15.66466685
15.1788672
14.70272363
14.23720076
13.78171566
13.33950305
12.90886701
12.4854656
12.0621068
11.63901083
11.21493602
10.79386039
10.37630091
9.960415601
9.541429808
9.119801614
8.700275535
8.281080205
7.862813047
7.441543734
7.020745764
6.605579413
6.199751964
5.793690149
5.381981537
4.986082233
4.600319296
4.221238404
3.855447249
3.497234115
3.155522539
2.834578178
2.538920457
2.261246841
1.976721246
1.632318051
3.124072394
5.059751245
8.612304535
12.82230872
)


101
(
0.005264646687
1.291483876
7.250877325
18.67419513
34.39438408
52.81863323
72.50251975
92.10625542
110.7266534
127.6834732
142.5364963
154.9370839
164.7532136
171.8953174
176.4556721
178.5752745
178.4432659
176.2933708
172.4334515
167.1058356
160.6247161
153.2514516
145.2456079
136.8427729
128.2460618
119.647298
111.2122994
103.073444
95.34054268
88.08560898
81.35955042
75.18512415
69.55103976
64.51083624
59.98674132
55.95379672
52.36353558
49.15719638
46.2972198
43.75218239
41.4868052
39.46025256
37.66699906
36.07213996
34.63528066
33.33416575
32.13431069
31.02683758
30.00136563
29.06014671
28.19389861
27.39708606
26.65854762
25.96373293
25.30202494
24.67392014
24.07820373
23.50212156
22.95144225
22.42155177
21.90575936
21.39857608
20.89778366
20.40089155
19.90861195
19.42299072
18.94439031
18.47539153
18.01433369
17.55014366
17.08232306
16.60623579
16.12346398
15.63767487
15.14915216
14.65387307
14.14834585
13.63604607
13.11702975
12.59045385
12.05280765
11.50735452
10.95945083
10.41458868
9.866710516
9.298735098
8.732275789
8.179457021
7.630964763
7.085457311
6.539983919
6.017033868
5.513650743
5.034706862
4.582189929
4.109940657
3.54251392
6.367385354
9.929567503
15.90792982
22.81768369
)


101
(
0.005238244561
1.254707095
7.029211372
18.09370373
33.31072059
51.12978006
70.15704258
89.1078965
107.1256634
123.5705627
138.0425629
150.2188392
159.9760737
167.2357273
172.0857374
174.6545684
175.1142007
173.6763903
170.6196837
166.1639756
160.5885539
154.1293004
147.0213943
139.4757085
131.6768394
123.7987293
115.995516
108.3938812
101.1039862
94.20139927
87.74450534
81.7662411
76.2660963
71.31628531
66.84496496
62.84022877
59.26568736
56.07028356
53.21987497
50.68306482
48.41957139
46.38587283
44.58420329
42.98747741
41.55986428
40.28201128
39.11503076
38.04466713
37.05431048
36.14681275
35.31180875
34.5481811
33.8485235
33.19589679
32.57666628
31.98766757
31.43168724
30.88949769
30.37145113
29.87181132
29.38759269
28.90769906
28.42951837
27.95000699
27.46962061
26.98789995
26.50500661
26.02721454
25.55342157
25.07718202
24.59329643
24.09501805
23.57715303
23.04439229
22.4992274
21.9406502
21.36646651
20.77749995
20.16632593
19.53683063
18.88237048
18.20975782
17.51975133
16.8203257
16.11421564
15.37383096
14.60661097
13.84839654
13.09124393
12.32885722
11.54445926
10.7876668
10.04248284
9.325065682
8.633535186
7.910149983
7.054655641
11.91303306
17.8897764
27.15838506
37.80374991
)


101
(
0.005211894227
1.218577513
6.81226225
17.52681086
32.25527537
49.4901525
67.8875644
86.21663169
103.6649419
119.6307872
133.7505735
145.7273643
155.4441878
162.831624
167.973703
170.9871028
172.028019
171.2878021
169.0180481
165.4191473
160.736783
155.1850236
148.9770519
142.3012285
135.324931
128.2043276
121.080817
114.0731053
107.2893964
100.8065941
94.68829096
88.9752713
83.6758629
78.88000508
74.52071853
70.5981997
67.08810816
63.94927625
61.15497486
58.67653
56.46879035
54.4821718
52.72269631
51.16851731
49.79020731
48.57555929
47.48440189
46.49873276
45.59513637
44.77351439
44.02097189
43.34071927
42.73041278
42.17157207
41.64929608
41.15638864
40.69627585
40.24548597
39.81356187
39.39775158
38.99930315
38.60273741
38.20131249
37.79501219
37.38300245
36.95823254
36.52454917
36.08363335
35.64455069
35.19931473
34.74232138
34.26643342
33.7596034
33.22262412
32.65581824
32.06054672
31.44484087
30.80423889
30.12754443
29.41587809
28.65503678
27.85960235
27.03147922
26.172948
25.2906373
24.3654811
23.3835424
22.38241162
21.37742617
20.36359229
19.28776871
18.24971862
17.18874753
16.17180246
15.17662645
14.13868464
12.90666204
20.58078701
29.83437084
43.33953617
59.03417877
)


101
(
0.005185595689
1.183089625
6.599956454
16.97322741
31.22724507
47.89796223
65.69074787
83.42697739
100.3365214
115.8532603
129.6462549
141.4446929
151.1364951
158.6593637
164.0939892
167.5460317
169.1571534
169.1000805
167.6013975
164.8440595
161.043316
156.3940414
151.0900095
145.2982487
139.1706944
132.8465676
126.4533583
120.0998542
113.8903285
107.9012807
102.1997135
96.83142758
91.81050223
87.24416689
83.06894763
79.29623039
75.91283062
72.88842061
70.20702902
67.84593311
65.75764454
63.88431151
62.23245984
60.78209225
59.50922882
58.4110942
57.45001681
56.60830709
55.85497479
55.1854591
54.58400265
54.05469877
53.59946286
53.20258534
52.84831612
52.52561737
52.23708299
51.95492657
51.68533282
51.42703675
51.18478135
50.94705611
50.69974396
50.44560501
50.17936478
49.88867927
49.57756456
49.24745729
48.91204781
48.56163544
48.19429172
47.80397379
47.37189937
46.89733652
46.37035933
45.78539659
45.16392368
44.50746168
43.80858252
43.04923624
42.21146141
41.31162831
40.35144428
39.34098602
38.28055927
37.1540955
35.94203924
34.67093293
33.36932171
32.0616385
30.63920973
29.26065196
27.8193056
26.42342832
25.05731524
23.62320187
21.91759674
33.29172479
46.77197692
65.54961045
86.52033144
)


101
(
0.005159348976
1.148238042
6.392222148
16.43267258
30.22585789
46.35150701
63.56344055
80.73377914
97.13296253
112.2279465
125.7166694
137.3544616
147.0339032
154.6977731
160.4238346
164.3076039
166.4771079
167.0883446
166.3450139
164.4135764
161.4843576
157.7341003
153.3400279
148.4479777
143.1964687
137.7094128
132.0992448
126.4634664
120.9009146
115.485812
110.286384
105.3512742
100.697638
96.4483614
92.54256855
89.00176823
85.82237937
82.98424933
80.48446845
78.31020919
76.41406227
74.73148628
73.26796862
72.000157
70.9063755
69.99453696
69.233218
68.60901772
68.08323603
67.64821432
67.28432581
66.99352232
66.77863904
66.63128117
66.5341858
66.47292116
66.45385215
66.441288
66.43512027
66.43232522
66.44439639
66.46333863
66.47383247
66.47643137
66.45592029
66.40867669
66.32395894
66.20318608
66.06456848
65.89884298
65.71149258
65.49090293
65.22074581
64.89592568
64.49673818
64.00278006
63.4291634
62.81177854
62.13515832
61.38087919
60.5191107
59.54687013
58.46674725
57.31533464
56.07477343
54.73804017
53.27398656
51.70743418
50.05162987
48.39041317
46.56662343
44.75907491
42.86793135
40.99333969
39.16460046
37.25034927
34.99241316
51.00477523
69.74396069
95.13641255
123.5109583
)


101
(
0.005133153997
1.114017281
6.188993932
15.90487097
29.25036596
44.84915865
61.50265451
78.1321797
94.0472031
108.7454515
121.9500285
133.4418434
143.1190987
150.927711
156.9427049
161.2504736
163.9660495
165.2306706
165.2274575
164.106019
162.0392984
159.1858246
155.7087857
151.7332108
147.385477
142.7766539
138.0040861
133.1528075
128.3147613
123.5598512
118.9547356
114.5491302
110.3618082
106.5288075
102.9908421
99.77867078
96.89643883
94.33230675
92.09655935
90.18958902
88.56883052
87.16584934
85.98452165
84.99533395
84.17440531
83.53843042
83.06401959
82.74625823
82.54293149
82.44339223
82.42237614
82.47868613
82.61343899
82.82475246
83.09766852
83.41371043
83.78448127
84.16571265
84.55432507
84.93749554
85.33109943
85.73213352
86.13225458
86.52436174
86.88635741
87.21895729
87.49436964
87.71719957
87.9030718
88.05182534
88.16391121
88.22519316
88.22819172
88.16279664
88.00128803
87.71189564
87.29339016
86.78000019
86.18556014
85.5007633
84.6829443
83.68470886
82.5210377
81.23887968
79.8214716
78.26007173
76.50770831
74.6117277
72.53601659
70.43967205
68.14803048
65.79388155
63.34602955
60.87790659
58.45000449
55.94499
53.0171063
74.79500518
100.0379957
133.8502405
171.5116344
)


101
(
0.005107010777
1.080422105
5.990196871
15.38955743
28.30005445
43.38937249
59.50557559
75.61763322
91.07250564
105.3967582
118.3355848
129.6935519
139.3765764
147.331836
153.6316172
158.3544392
161.603249
163.506385
164.228966
163.9042586
162.6917897
160.7335368
158.1799242
155.1382635
151.7224395
148.0332261
144.153866
140.1560978
136.1237253
132.1202588
128.2079921
124.4357932
120.8231283
117.5165579
114.4571523
111.6840498
109.2075996
107.021794
105.1489063
103.6044874
102.3543819
101.3303411
100.5377951
99.93997494
99.50634614
99.25808171
99.17795592
99.27384503
99.50787633
99.8653105
100.3143285
100.8495287
101.4680264
102.1723628
102.9530443
103.792709
104.7029877
105.6317586
106.5788966
107.5177299
108.4528718
109.4003798
110.3524789
111.299414
112.2165535
113.0993852
113.9123285
114.6529674
115.3347628
115.9625274
116.52605
117.0253577
117.4503235
117.7858599
118.0065351
118.0706723
117.9376278
117.6408442
117.2204371
116.6828714
115.9808156
115.033397
113.8373456
112.4490001
110.8455826
109.0630448
106.9841989
104.7025885
102.1293
99.49081938
96.62197605
93.58798147
90.42325918
87.19882719
84.00632685
80.76936079
77.02803046
106.0221366
139.3699165
184.095351
232.9161451
)


101
(
0.005080919344
1.047447377
5.795763509
14.88647405
27.3742358
41.97067628
57.56954387
73.18587795
88.20259325
102.173461
114.863457
126.0974961
135.7923035
143.8945797
150.4736486
155.6015559
159.3702783
161.8969825
163.3314446
163.7924163
163.4270695
162.3635761
160.7389965
158.6488485
156.1931959
153.4645283
150.5341632
147.4603237
144.3171418
141.1601504
138.0451033
135.0174453
132.0957332
129.4359632
126.9779389
124.7676968
122.8205685
121.1343842
119.7409634
118.6705146
117.9004536
117.367244
117.0826231
117.0045574
117.0929071
117.3676453
117.8141872
118.4543109
119.2599636
120.2169477
121.2866596
122.4595817
123.7257423
125.0857412
126.5383737
128.0748009
129.7059857
131.3734078
133.0771749
134.7775469
136.4651016
138.1656959
139.8724005
141.5794015
143.2691415
144.9175154
146.4916114
147.9745807
149.3704755
150.6846799
151.9110737
153.0501483
154.0821029
154.998213
155.7858421
156.3904576
156.734903
156.8281879
156.7091644
156.4219029
155.9373331
155.1489894
153.9991968
152.5304955
150.7645944
148.7445232
146.3115417
143.5754917
140.4125823
137.1002984
133.5051726
129.605202
125.5506012
121.3529286
117.1958577
113.0249853
108.2879217
146.498761
190.1556739
249.2665918
313.5922339
)


101
(
0.005054879607
1.015087897
5.605627055
14.39536812
26.47224453
40.59166028
55.69203775
70.83286611
85.43153261
99.06766819
111.5239852
122.6428614
132.3532803
140.6014881
147.4532325
152.975502
157.2505388
160.3857012
162.5181337
163.7544529
164.2300221
164.0613761
163.3727623
162.251488
160.7843756
159.0565266
157.1303447
155.0515544
152.882661
150.6697768
148.4609912
146.2956495
144.1885361
142.3045467
140.5813738
139.0697199
137.789321
136.7401544
135.9607105
135.4942793
135.3308601
135.4153226
135.7711195
136.3553886
137.1186634
138.0761705
139.2095945
140.5513644
142.0842961
143.804524
145.6711178
147.6689615
149.7822917
151.9971698
154.319779
156.7532645
159.3169796
161.945741
164.642065
167.3527301
170.0579056
172.7681111
175.4848242
178.2050277
180.9366271
183.6209275
186.2330649
188.7386657
191.1281391
193.4135586
195.5849083
197.6226626
199.5095539
201.247683
202.8336392
204.2141853
205.282533
206.0010762
206.3787652
206.5002855
206.3914255
205.8940511
204.9075765
203.4279106
201.5142484
199.2642225
196.4614445
193.1949973
189.3321431
185.1813548
180.6783393
175.7161321
170.5414463
165.1127333
159.7421991
154.4109134
148.4710242
198.6956881
255.8245024
334.3047497
420.2795246
)


101
(
0.005028891631
0.9833387545
5.419735197
13.91599746
25.59344588
39.25098859
53.87068673
68.55482479
82.75381508
96.0720684
108.3081527
119.3198283
129.0477249
137.439247
144.5561799
150.4615702
155.2291622
158.9574949
161.7738078
163.7751321
165.0861545
165.8128987
166.0684969
165.9334943
165.4832933
164.7960775
163.9280633
162.9144057
161.8048149
160.6352796
159.4456131
158.2669081
157.1061256
156.1342979
155.2874517
154.619865
154.1557582
153.8959868
153.8827056
154.1702307
154.7596324
155.6057665
156.7490668
158.1515407
159.7588768
161.5810175
163.5892411
165.8184657
168.2617019
170.9328918
173.7964137
176.8354602
180.0273625
183.3381209
186.7732121
190.345344
194.0889448
197.9361332
201.9000652
205.9198123
209.9583713
213.9993498
218.0506438
222.10138
226.1951284
230.2513177
234.2447494
238.126561
241.8694164
245.4830336
248.9505738
252.2420088
255.3331823
258.2205623
260.9099522
263.3653841
265.4500176
267.0998173
268.2843603
269.0480578
269.5140027
269.4878054
268.8323493
267.4668836
265.4598257
263.0061529
259.8324725
255.9774177
251.3011343
246.1365213
240.5177766
234.2626979
227.735948
220.7665592
213.9449496
207.2315528
199.9517412
266.0794436
341.2627372
446.2761038
562.0206772
)


101
(
0.005002955445
0.95219786
5.238011578
13.44812395
24.73722395
37.94737983
52.10321353
66.34818569
80.16433034
93.17987103
105.2075306
116.1189656
125.8648925
134.3958446
141.7696786
148.0464429
153.2927801
157.5990906
161.085053
163.8406916
165.9817248
167.6042644
168.812438
169.681503
170.2774397
170.6711675
170.9139453
171.0329645
171.0660751
171.0389178
170.9828574
170.9195421
170.8446842
170.9290673
171.1073035
171.437706
171.9494296
172.6446167
173.5660506
174.7762887
176.2852573
178.0568581
180.1515809
182.5422611
185.1768863
188.0627884
191.1576799
194.4916416
198.0623354
201.9013894
205.9869007
210.3098104
214.8404473
219.5287323
224.367966
229.3738355
234.5907386
239.9618066
245.5123297
251.1884696
256.9310845
262.6987051
268.4845634
274.2689067
280.1111579
285.9513215
291.7453737
297.442587
302.9967716
308.3867655
313.60173
318.5962453
323.3471127
327.8320625
332.0433752
335.9630791
339.4460694
342.4361776
344.804101
346.5591198
347.8602051
348.5802587
348.4880875
347.4420522
345.4224523
342.8237744
339.3247016
334.8599927
329.2856363
322.9608102
316.048266
308.2732098
300.1478351
291.3819953
282.9472914
274.7012938
266.0967412
353.6812036
453.714277
595.2732332
752.1087871
)


101
(
0.004977070956
0.9216573822
5.060394268
12.99151814
23.90298995
36.67961868
50.38747287
64.20960762
77.65834128
90.38480785
102.2143175
113.0312093
122.794859
131.4603633
139.0821236
145.7180012
151.4291569
156.2988989
160.4404679
163.9390048
166.9036115
169.4217481
171.590258
173.4811918
175.1530993
176.6687608
178.0739661
179.3903176
180.6469505
181.8597126
183.0507004
184.2313758
185.3850445
186.6776029
188.0391592
189.5308889
191.1867622
193.0122026
195.0510515
197.3703972
199.9858452
202.8677399
206.097288
209.6624706
213.5203055
217.683059
222.0977171
226.7855153
231.7370006
236.996022
242.5599111
248.4367128
254.597582
260.9832164
267.5670743
274.3584092
281.401378
288.6580018
296.1714499
303.9038802
311.7747743
319.7299006
327.735897
335.7520344
343.830899
351.9597889
360.0748928
368.1233713
376.0447233
383.7819983