/*--------------------------------*- C++ -*----------------------------------*\
| =========                 |                                                 |
| \\      /  F ield         | OpenFOAM: The Open Source CFD Toolbox           |
|  \\    /   O peration     | Version:  2.3.1                                 |
|   \\  /    A nd           | Web:      www.OpenFOAM.org                      |
|    \\/     M anipulation  |                                                 |
\*---------------------------------------------------------------------------*/
FoamFile
{
    version     2.0;
    format      ascii;
    class       dictionary;
    location    "constant";
    object      rH2O2;
}
// * * * * * * * * * * * * * * * * * * * * * * * * * * * * * * * * * * * * * //

rH2O2_table
101
(

101
(
0.007721240713
0.2311327297
1.065063989
2.66634257
4.923860165
7.653652164
10.66078076
13.74948631
16.76858049
19.60072461
22.13828307
24.32043806
26.12230447
27.52059608
28.56289296
29.30698881
29.81362973
30.14117971
30.36239508
30.44795038
30.41988042
30.24660543
29.86489066
29.27533296
28.49071777
27.53607792
26.45337285
25.29253216
24.0976537
22.90954687
21.75800948
20.66292159
19.63076595
18.68781099
17.82717955
17.05521226
16.41583284
15.8596533
15.19765117
14.58610586
14.01836733
13.48486499
12.98591882
12.51638514
12.07138689
11.64999243
11.24830679
10.86462457
10.49603767
10.14112816
9.79752885
9.463782476
9.138411855
8.819920073
8.507450836
8.199934247
7.896123741
7.595622281
7.297350295
7.000990644
6.705771675
6.412465016
6.120049773
5.828697327
5.538973938
5.25124216
4.965468707
4.682023569
4.401768738
4.125688265
3.854368288
3.589212869
3.331581136
3.084991397
2.875607956
2.647641266
2.393789824
2.150336473
1.918322561
1.698390096
1.492459116
1.301652085
1.128601181
0.9842653674
0.8266504386
0.6769431005
0.5441867595
0.4282739768
0.3302048613
0.2563739356
0.1800458861
0.1192958664
0.07574410663
0.04160667786
0.01944163562
0.00471392961
2.895146344e-18
5.620081712e-41
8.166590865e-31
-3.416518125e-29
0
)


101
(
0.007702035279
0.226069814
1.035736839
2.585817005
4.76384147
7.386125897
10.26120141
13.19842991
16.05306307
18.7133056
21.08071197
23.0982188
24.74518912
26.00180959
26.91194562
27.5301573
27.91402268
28.11964027
28.21979702
28.19395416
28.07025046
27.8249396
27.40445563
26.80636338
26.03808789
25.11864223
24.08213086
22.97123634
21.82519098
20.68203964
19.56986401
18.50906506
17.51047444
16.58028032
15.73317586
14.96661912
14.30323875
13.7280852
13.13786523
12.55637493
12.00848257
11.49730963
11.01769065
10.56889758
10.14788999
9.74986754
9.373670847
9.015570511
8.674556606
8.347924009
8.03482771
7.733088797
7.441463053
7.158617364
6.883706541
6.615862465
6.353388184
6.097139382
5.844861677
5.59691056
5.35216896
5.110896154
4.872667513
4.637087797
4.404326162
4.17473955
3.948284131
3.724961104
3.50490889
3.288930746
3.077254092
2.870355308
2.668825609
2.474255202
2.295681002
2.124663653
1.947923079
1.767991434
1.590745312
1.420500874
1.259811911
1.109323152
0.970022593
0.8464850781
0.7314895554
0.6184804588
0.5111684928
0.4145393
0.3298762455
0.2591110743
0.1989067166
0.1443776642
0.09945820583
0.06534637984
0.03883243804
0.01946617077
0.006151117611
0.006514522047
0.006856460975
0.007297395911
0.00770699426
)


101
(
0.007682856085
0.2210844001
1.007033786
2.507313316
4.608551236
7.127875499
9.877605305
12.67248169
15.37417432
17.87643414
20.08928185
21.9594726
23.46995941
24.60415806
25.40261047
25.91663724
26.20075538
26.30879027
26.31231374
26.19899041
26.00089904
25.70167652
25.256543
24.66143076
23.91941898
23.04415422
22.06288624
21.01156537
19.92468477
18.83709348
17.77528293
16.75949585
15.80269927
14.90355819
14.08107555
13.33340871
12.672643
12.09494077
11.54484431
11.00633417
10.49135642
10.00873088
9.555594333
9.132447534
8.737836322
8.366783716
8.018059342
7.687864086
7.375228147
7.07752234
6.794007349
6.522690131
6.26234773
6.011821102
5.770119521
5.53633535
5.308867713
5.088495954
4.873286758
4.663322339
4.457660338
4.256176706
4.058508804
3.864336371
3.673580214
3.486211171
3.302150034
3.121356658
2.943801017
2.769770618
2.599496295
2.433055818
2.270775606
2.11305
1.963254552
1.821994031
1.684476638
1.546760953
1.408230697
1.271537971
1.140327673
1.016303454
0.899886399
0.7925857442
0.6948202888
0.6033732652
0.5147162485
0.4306828305
0.354918525
0.2885186938
0.2309865495
0.1812432703
0.1363891331
0.09938057483
0.07030711564
0.04532192493
0.02442071677
0.0267086661
0.02889888831
0.03171638865
0.0343865846
)


101
(
0.007663703123
0.2161757251
0.9789437277
2.430782365
4.457836509
6.878522155
9.50920942
12.17020171
14.72951897
17.08639328
19.15863979
20.89679687
22.28685185
23.31515405
24.01926886
24.44730104
24.65076463
24.68115176
24.60797741
24.42610528
24.17027352
23.8306856
23.37052884
22.78524557
22.07460497
21.24760036
20.32547445
19.33801515
18.31511595
17.2882304
16.28216495
15.31666668
14.40566522
13.54580063
12.75497928
12.03245804
11.38710297
10.81742423
10.29378128
9.793539565
9.314971509
8.864031683
8.439541333
8.042973593
7.674186934
7.329190066
7.006541658
6.702691083
6.416340781
6.14509505
5.888061698
5.643498231
5.410192177
5.187055155
4.973131851
4.767533966
4.568703506
4.377137381
4.191295261
4.011044364
3.835577134
3.664618762
3.497767921
3.334671141
3.17513984
3.018994118
2.866115641
2.716323611
2.569610981
2.426023141
2.285624414
2.148443592
2.014619491
1.884179327
1.758183442
1.637990427
1.523101721
1.411256634
1.299851978
1.188181842
1.078394025
0.9730006867
0.8731608659
0.7792945787
0.6921206473
0.6116218882
0.535661618
0.4617233243
0.3921095691
0.3292837173
0.2734022483
0.2244603966
0.1808684612
0.1418842786
0.109973868
0.08068071062
0.05296524397
0.05891309243
0.06467005872
0.07165127115
0.0784233219
)


101
(
0.007644576384
0.2113430355
0.9514557874
2.356176444
4.311550337
6.637705496
9.155276097
11.6902477
14.11688567
16.33978534
18.2839365
19.90354755
21.18718195
22.12378727
22.74826704
23.10557249
23.24423177
23.21334647
23.07982776
22.84454871
22.544089
22.17435709
21.70572181
21.13398464
20.45663053
19.67873775
18.81631966
17.89360203
16.93605791
15.97167231
15.02339379
14.11025308
13.24648969
12.429053
11.6736961
10.98094787
10.35601217
9.800368638
9.297627189
8.828053212
8.3832571
7.963874672
7.56810011
7.197589319
6.85309325
6.531889172
6.232710509
5.952350925
5.689276569
5.441229012
5.207168707
4.985501866
4.775055799
4.574798127
4.383783677
4.201126794
4.025538529
3.857122299
3.694620604
3.537751756
3.385827683
3.238524253
3.095408597
2.956112284
2.820367682
2.687888097
2.55854499
2.432144105
2.308549474
2.187736621
2.069595711
1.954197033
1.841585317
1.731769852
1.624932445
1.521741002
1.422687711
1.327519495
1.234521488
1.14166568
1.048772229
0.9576544408
0.8702848028
0.787270102
0.708870752
0.6354849327
0.5669112044
0.5010886282
0.4370939381
0.3773516343
0.3230392506
0.2742674924
0.2307263631
0.1908064892
0.1565566133
0.1241910312
0.0914852779
0.1021305039
0.1125458949
0.1246434005
0.1364841351
)


101
(
0.007625475858
0.2065855846
0.9245593019
2.283449215
4.16955148
6.405082613
8.815110045
11.23136928
13.5342353
15.63351062
17.46078922
18.97378889
20.16325198
21.02039937
21.57773262
21.8771432
21.96420031
21.88554302
21.70513078
21.42867738
21.09399783
20.70189987
20.22919143
19.67263843
19.02836984
18.29832887
17.49403045
16.63473115
15.74172327
14.83953753
13.94913203
13.0885264
12.27195575
11.49749605
10.77889553
10.11732899
9.516279703
8.977995793
8.493679659
8.048673075
7.632771751
7.242469469
6.874085411
6.528440558
6.206541436
5.906760947
5.628310089
5.368496468
5.125697303
4.897702572
4.683347583
4.481128031
4.289917747
4.108736008
3.936670135
3.772828896
3.616089304
3.466376691
3.322618657
3.18441721
3.051115827
2.922435714
2.797892782
2.677145191
2.559896792
2.445808853
2.334686166
2.226323792
2.120524504
2.017289303
1.916349384
1.817713711
1.721384662
1.627418764
1.53578256
1.446644538
1.36035577
1.277272865
1.196938322
1.117881816
1.038630341
0.9594519729
0.882093347
0.8078424813
0.7369699703
0.6697028959
0.6062644178
0.54594689
0.4871244449
0.430438589
0.3776974605
0.3295164265
0.2857693878
0.2453436531
0.2094260372
0.1748292153
0.1384129397
0.1540372423
0.1697680243
0.1895520556
0.2094385869
)


101
(
0.007606401548
0.2019026374
0.8982438407
2.212555727
4.031704268
6.18032728
8.488055787
10.79239881
12.97968111
14.96472663
16.68521058
18.10216913
19.20817526
19.99642133
20.4972192
20.74951866
20.79598153
20.68071239
20.46450755
20.15685203
19.79629539
19.38781558
18.91397639
18.37290857
17.76017671
17.07537349
16.32622938
15.52760836
14.69690898
13.8552886
13.02159336
12.21265913
11.44240627
10.71022558
10.02835708
9.398288409
8.822626418
8.303622184
7.836720813
7.411962615
7.020005618
6.655160368
6.311883895
5.989506178
5.688611065
5.408234467
5.148112707
4.906197299
4.68096948
4.470288026
4.272891144
4.087292198
3.912400382
3.747281611
3.591083625
3.442904384
3.301715685
3.16735694
3.038868143
2.915838148
2.797642276
2.683961676
2.574324804
2.46835837
2.365799966
2.266311332
2.16963295
2.075544201
1.983813071
1.894390837
1.80706126
1.721721081
1.638298898
1.556835164
1.47728988
1.399656135
1.324046488
1.250713212
1.179790102
1.110735555
1.042161784
0.9731505866
0.9044042666
0.8374526403
0.7729920857
0.711164286
0.6521573085
0.5959049973
0.5413985737
0.4878788875
0.4368078219
0.3893732433
0.3457467106
0.3051622434
0.2681556635
0.2317009637
0.1926318478
0.2150771186
0.2380279682
0.2667065368
0.2959358428
)


101
(
0.007587353433
0.1972934623
0.8724991486
2.14345223
3.897878413
5.963130326
8.173499483
10.3722537
12.45148101
14.33082928
15.95357883
17.28386633
18.31579985
19.04425347
19.49754023
19.7117896
19.72682763
19.58418523
19.34137552
19.01071194
18.63103876
18.21084293
17.73781067
17.21169657
16.62813986
15.98512983
15.28731586
14.54573899
13.77422313
12.99068533
12.21178257
11.45301326
10.72774714
10.03656849
9.390670685
8.791763821
8.241970604
7.743288326
7.293471572
6.88617744
6.514022387
6.170822819
5.849870427
5.548892608
5.267551576
5.005026385
4.761402886
4.53527759
4.325420493
4.129856669
3.947260866
3.776131165
3.615401472
3.464160839
3.32158945
3.186824822
3.058912887
2.937572763
2.821960571
2.711640442
2.60603343
2.504818323
2.407527179
2.313778799
2.22327911
2.135722446
2.050809059
1.968349725
1.888054408
1.809837078
1.733512513
1.658904807
1.585909446
1.514514137
1.444703925
1.376407611
1.309651488
1.244496428
1.181135671
1.119540872
1.05894971
0.9982026788
0.9369716775
0.8762524722
0.8171771241
0.7600486728
0.7049417286
0.6519941619
0.6008087439
0.5503315646
0.5010873327
0.454511411
0.4110816991
0.3705446958
0.3327808571
0.2952600298
0.2546433293
0.2853546174
0.3173445904
0.3573713935
0.3989603107
)


101
(
0.007568331518
0.1927573412
0.8473152127
2.076096321
3.767948869
5.753198408
7.870865974
9.969931196
11.9480275
13.72943448
15.26260251
16.51454148
17.48063103
18.15716202
18.57060996
18.75441871
18.74566284
18.58329325
18.3214931
17.97459689
17.5813506
17.15314031
16.68218077
16.1700144
15.61284407
15.00772784
14.35691831
13.66820025
12.95216959
12.22368055
11.49717236
10.7866779
10.10482244
9.453132448
8.842078867
8.273612037
7.74960891
7.271765576
6.839034117
6.447593624
6.092202557
5.767289095
5.465824265
5.184267269
4.921159718
4.675370724
4.447047598
4.23530374
4.039294643
3.857298519
3.68797588
3.529852121
3.381849569
3.243017674
3.112617638
2.989824348
2.873682529
2.763850885
2.659572043
2.560380177
2.465729233
2.375297342
2.288586135
2.205281949
2.125054425
2.047624666
1.972668635
1.89994997
1.829191976
1.760219402
1.692951774
1.627159864
1.562795346
1.499711989
1.437841192
1.377156508
1.317650294
1.25928821
1.202170412
1.146388728
1.091733767
1.037306662
0.9823549549
0.9269719353
0.8723588358
0.8190401021
0.7672278033
0.7169458125
0.6682093597
0.6202182617
0.5726214228
0.526805945
0.4836321393
0.4430935501
0.4047988308
0.3664507512
0.3243660622
0.3655320935
0.4090842013
0.4631887382
0.5205589443
)


101
(
0.007549335776
0.1882935561
0.822682175
2.010446778
3.641795246
5.550251387
7.579610641
9.584492148
11.46782974
13.15834843
14.60927452
15.79026282
16.69772769
17.32913783
17.70926826
17.86902016
17.84281337
17.66704296
17.3925695
17.03507414
16.6328541
16.19963176
15.73157908
15.23212693
14.69839922
14.12709668
13.51871454
12.87834661
12.21373674
11.53689417
10.86006071
10.19570913
9.555557074
8.941778984
8.364308078
7.825379486
7.326805856
6.870033722
6.454588312
6.078274542
5.737712326
5.42847937
5.143983344
4.879959501
4.633914396
4.404113072
4.19044796
3.992334601
3.809265744
3.639852464
3.482852828
3.336836041
3.200669605
3.073381958
2.954243185
2.842432984
2.737114664
2.637770258
2.543795594
2.454685199
2.369871425
2.289082799
2.211781366
2.137686307
2.066459637
1.997816322
1.931464875
1.867105275
1.804496712
1.743454741
1.683876105
1.625548662
1.568345475
1.512180247
1.456948959
1.402598414
1.349059306
1.296329139
1.24446513
1.193442393
1.143280172
1.093596601
1.043578077
0.9927558974
0.941804969
0.8915294651
0.8423375496
0.7941305086
0.7471206119
0.7008740121
0.6545898887
0.6093301454
0.5662060076
0.5254181578
0.4865641609
0.447386808
0.4043459636
0.4581065781
0.5156856775
0.5858082762
0.6611650337
)


101
(
0.007530366226
0.1839014091
0.7985904466
1.94646385
3.519302634
5.354023589
7.299219024
9.21505488
11.00951169
12.61556865
13.99086037
15.10747041
15.96264048
16.55480427
16.90715303
17.04819214
17.00979103
16.82584409
16.5439359
16.18054033
15.77320487
15.33747606
14.87293653
14.38490008
13.87169512
13.33013246
12.75953111
12.16284843
11.54537693
10.91653545
10.28643638
9.66593684
9.065712931
8.488294562
7.943157372
7.432835085
6.959215199
6.523600449
6.12576581
5.764484904
5.437791762
5.14252785
4.873021278
4.624859263
4.394812089
4.180451703
3.98114676
3.796335388
3.625727837
3.468303782
3.322995935
3.188464368
3.063535366
2.947195228
2.838618602
2.737118628
2.641925374
2.552394466
2.467972957
2.388162684
2.312377383
2.24034051
2.171598402
2.10580161
2.042610081
1.981747328
1.923034714
1.866076237
1.810672741
1.756572928
1.703674216
1.651794972
1.600823178
1.550630951
1.501104496
1.452130654
1.403662131
1.355719596
1.308301285
1.26135385
1.214883922
1.168836767
1.122625621
1.075581576
1.027760879
0.9799207517
0.932734384
0.8861321988
0.8402983548
0.7952204697
0.749830621
0.7048533083
0.6615259259
0.620218075
0.5807055499
0.5405062779
0.4963712581
0.5649829685
0.639047435
0.7261307398
0.8209049524
)


101
(
0.007511422848
0.179580199
0.7750305703
1.884108735
3.400360096
5.164261052
7.029203663
8.860791613
10.57179433
12.09925392
13.40486042
14.46293383
15.2713571
15.82934508
16.15860609
16.28539522
16.23913739
16.05131045
15.76630786
15.40094421
14.99175712
14.55565889
14.09512879
13.61725939
13.12180263
12.60604565
12.06864443
11.51095554
10.93623486
10.35159572
9.765135937
9.186086233
8.62398182
8.081434192
7.567469472
7.084888738
6.635742282
6.221307019
5.841475007
5.495542702
5.182496865
4.900294769
4.644382597
4.410675051
4.195600253
3.996129869
3.810959367
3.639293507
3.480906262
3.33508307
3.200969541
3.077366169
2.96312933
2.857190013
2.758653248
2.666956668
2.581246159
2.500942797
2.425423697
2.354289247
2.286922245
2.222996077
2.16211659
2.10392838
2.048129982
1.994395407
1.942547757
1.892307041
1.843410399
1.795596545
1.748736226
1.702657635
1.657262643
1.612409296
1.567974945
1.523808745
1.479863997
1.436170622
1.39265336
1.349333275
1.306155838
1.26312246
1.219972952
1.17606861
1.131001138
1.085262804
1.039678031
0.9943810396
0.9494112272
0.9049900297
0.8601863629
0.8152753176
0.7715021421
0.7294754529
0.689165527
0.6479415462
0.6027220533
0.6873167788
0.7792730461
0.8836094011
0.9983556469
)


101
(
0.007492505634
0.1753292358
0.7519933063
1.823343785
3.284860876
4.980721291
6.769102293
8.520924784
10.15349161
11.60770886
12.84898602
13.85371899
14.62025868
15.14844339
15.45858894
15.57484142
15.52429411
15.33610173
15.05158941
14.68754888
14.27927499
13.84465138
13.38857219
12.91974599
12.43947599
11.94582952
11.43723901
10.9139437
10.37757739
9.833260008
9.287235519
8.747143469
8.221318024
7.712216668
7.22837327
6.772779598
6.347676924
5.954408302
5.592951775
5.262866922
4.963699504
4.69425103
4.451051455
4.230631959
4.02946604
3.844170731
3.672799348
3.514130539
3.367787334
3.233256611
3.109895022
2.996696371
2.892598599
2.796531778
2.707572143
2.625106483
2.54835624
2.476721529
2.409605873
2.346599144
2.287138204
2.230840152
2.177340837
2.126279968
2.07736984
2.030349499
1.984941379
1.940931976
1.898094604
1.856126971
1.814908109
1.774254278
1.734045303
1.694167011
1.654497564
1.614870209
1.575167671
1.535417284
1.495579351
1.455644892
1.415552685
1.375293939
1.334795107
1.293579968
1.251057521
1.207333048
1.163161409
1.118958333
1.074717856
1.030698172
0.9862241925
0.9412839267
0.8969881684
0.8541013513
0.8128946053
0.7706459597
0.7243634738
0.8254160048
0.9358880393
1.056883153
1.191907209
)


101
(
0.007473614575
0.1711478377
0.7294695981
1.764132382
3.172702149
4.803172704
6.518475334
8.194720992
9.753506636
11.13938077
12.3211374
13.27715475
14.00607183
14.50820969
14.80258824
14.91138169
14.85947884
14.67379784
14.39272202
14.03274373
13.62770976
13.19615115
12.74494334
12.28422229
11.81686392
11.34193983
10.85803359
10.36470198
9.86235801
9.354457468
8.845590032
8.341883232
7.850449505
7.373399947
6.918706429
6.48943632
6.08799051
5.715825675
5.373019348
5.059270038
4.774397111
4.517748861
4.28676677
4.07870848
3.890386009
3.718360407
3.560216561
3.414242304
3.279746327
3.156246095
3.043222946
2.939909421
2.845413501
2.758686327
2.678791838
2.605048548
2.536801269
2.473383508
2.414263871
2.358963022
2.30700775
2.257960655
2.211480466
2.167228487
2.124933932
2.084320807
2.045102442
2.007078891
1.970015882
1.933679279
1.897895706
1.862485708
1.827304011
1.792247231
1.75721001
1.722016896
1.686498001
1.650646264
1.614408198
1.577817265
1.540797271
1.503302469
1.465323652
1.426581957
1.386472657
1.344787087
1.302061449
1.258899604
1.215356351
1.171694961
1.127406031
1.082394003
1.037605041
0.9938335935
0.9516836727
0.9084610841
0.8612830755
0.9784535418
1.107227805
1.244109802
1.39824753
)


101
(
0.007454749652
0.1670353265
0.707450547
1.706438868
3.063784681
4.631394022
6.276906492
7.881490352
9.370815497
10.69283763
11.81939123
12.7308096
13.42583844
13.90515066
14.1865732
14.29043932
14.2395734
14.0587435
13.78350856
13.42987278
13.0300373
12.60292346
12.15700456
11.70364627
11.24723964
10.78799983
10.3249653
9.857397498
9.384871398
8.909511793
8.434478009
7.964503437
7.505498269
7.059077916
6.632570623
6.228984589
5.850804305
5.499600765
5.175568538
4.878490176
4.608299097
4.36465206
4.145662442
3.949267667
3.772789403
3.613008397
3.467291202
3.3334978
3.210532214
3.097763015
2.994725148
2.900852516
2.815443988
2.737540621
2.666238384
2.600807133
2.540624509
2.485053264
2.433554038
2.38564603
2.34088889
2.298832845
2.259127788
2.221477776
2.185620325
2.151263108
2.11813813
2.086000855
2.054652208
2.023861983
1.993456078
1.963247653
1.933091779
1.902868872
1.872491707
1.841792013
1.810545169
1.778692004
1.746158913
1.713003462
1.679173195
1.644575127
1.609203848
1.57291573
1.535201619
1.495650599
1.454516433
1.412507894
1.369707488
1.326444494
1.282348977
1.237252466
1.192048967
1.147455866
1.104344347
1.060245162
1.012406146
1.144989736
1.291645072
1.444518045
1.616317576
)


101
(
0.00743591087
0.162991038
0.6859274585
1.650228641
2.95801288
4.465173674
6.044001808
7.580584138
9.004462854
10.26675746
11.34199972
12.21246242
12.87688009
13.33613315
13.60695425
13.70795835
13.6600373
13.48591774
13.21844897
12.87299192
12.48002151
12.05858987
11.61842092
11.17188162
10.72478484
10.27856188
9.832935767
9.387209034
8.940474155
8.493851337
8.049305973
7.610324622
7.181672914
6.764361808
6.365002173
5.986402848
5.631029918
5.300529089
4.995210831
4.714928755
4.459663738
4.229202595
4.022108552
3.836884443
3.67140955
3.522850279
3.388598289
3.266278438
3.154383738
3.052004299
2.958641374
2.873839356
2.797057558
2.727505988
2.664352272
2.606840302
2.554349268
2.506284545
2.462119341
2.421358643
2.383566712
2.348319001
2.31525689
2.284092592
2.254574379
2.226424566
2.199379116
2.173174262
2.147586813
2.122401974
2.097451845
2.072531806
2.047513919
2.022252704
1.996679044
1.970656119
1.943898671
1.916298312
1.88770114
1.85821267
1.827805809
1.796353484
1.76384396
1.730156515
1.694931611
1.657708233
1.618391621
1.577749067
1.535871964
1.493113091
1.449317449
1.404194508
1.358635456
1.313330699
1.269259315
1.224421858
1.176165797
1.323643291
1.488180738
1.658969091
1.856257525
)


101
(
0.007417098249
0.1590143175
0.6648918208
1.595468056
2.855294715
4.304309818
5.819388337
7.291391802
8.65355563
9.859917598
10.88736734
11.72008594
12.35676615
12.79834115
13.06052564
13.16033645
13.11684372
12.95085923
12.69266057
12.35682095
11.97213575
11.55750641
11.12359797
10.6835269
10.2444099
9.808913635
9.377605658
8.950110884
8.525356529
8.103769261
7.686367012
7.275553598
6.875032465
6.485150322
6.111743722
5.757296338
5.424145976
5.113947075
4.827098684
4.563521204
4.323211563
4.106012393
3.910762485
3.736364667
3.581207339
3.442934952
3.319165536
3.207475383
3.106046109
3.013657211
2.929660777
2.85361084
2.785081078
2.723467752
2.668042998
2.618081469
2.572954523
2.532093747
2.495011314
2.461204435
2.430232106
2.401671535
2.375174378
2.350435397
2.327240051
2.305302046
2.284391544
2.264231708
2.244556881
2.225155445
2.20584588
2.186426836
2.166767273
2.146706866
2.126187744
2.105115316
2.083213825
2.060232165
2.035984891
2.010537915
1.983887029
1.955960456
1.926736446
1.895978986
1.863513668
1.828895147
1.791749136
1.752769189
1.712148896
1.67013428
1.626771851
1.58182255
1.535972647
1.490101065
1.445136053
1.399647664
1.351043407
1.514194111
1.69805964
1.890321986
2.113018142
)


101
(
0.007398311726
0.1551044984
0.6443355874
1.54212411
2.75554096
4.148609064
5.602711908
7.013337332
8.317249286
9.471175459
10.45403154
11.25183366
11.8632883
12.2892292
12.54440388
12.6443513
12.60641329
12.44962426
12.20184504
11.87671123
11.50149983
11.09467589
10.66756182
10.23378261
9.80160801
9.374919414
8.955226909
8.542693552
8.136353543
7.736228476
7.342639316
6.957084943
6.582305495
6.217968623
5.869108208
5.537780649
5.226091801
4.935624812
4.666816771
4.419641214
4.194115517
3.990108203
3.806600892
3.642767188
3.497408012
3.368638014
3.254416409
3.152441658
3.060764986
2.977876949
2.902899226
2.83530846
2.774729271
2.720702324
2.672639326
2.629891342
2.591825991
2.557899955
2.527664793
2.50063725
2.476369302
2.45442519
2.434444226
2.416122212
2.399278131
2.383598803
2.36893642
2.354979767
2.341444106
2.328060637
2.314680592
2.301098379
2.287141769
2.272657333
2.257595021
2.241863247
2.225206835
2.207417425
2.188109346
2.167263016
2.144879221
2.121054396
2.095650689
2.068394543
2.039166758
2.007633255
1.973216827
1.93636139
1.897483608
1.856648933
1.813939901
1.769521716
1.723607621
1.677325257
1.631699633
1.585717327
1.536966071
1.718151294
1.92446664
2.143368974
2.397684676
)


101
(
0.007379551322
0.1512609383
0.6242501612
1.490164935
2.658666079
3.997887434
5.393638036
6.745880358
7.994743463
9.099447353
10.040652
10.80603501
11.39445435
11.80649498
12.05596883
12.15706481
12.12550046
11.97866503
11.74217133
11.42862504
11.06384613
10.66569356
10.24587866
9.818359534
9.392358457
8.972910611
8.562512981
8.162020088
7.770796122
7.388715042
7.015642198
6.652360672
6.300765665
5.959868253
5.633902524
5.324423531
5.033217571
4.761722017
4.510352432
4.279102575
4.068007681
3.876956256
3.705007656
3.551500655
3.415535347
3.295630067
3.190132546
3.096983604
3.014259809
2.940276051
2.873906818
2.814465727
2.761564687
2.714830985
2.673806635
2.637948685
2.606651281
2.57941061
2.555785974
2.535337983
2.517677783
2.50227884
2.488796593
2.476924055
2.466487911
2.457176607
2.448887491
2.441325838
2.434188389
2.42714925
2.420123603
2.412791963
2.404993691
2.396599382
2.387522867
2.377663465
2.366885269
2.354970769
2.341350013
2.325910967
2.30861856
2.289645558
2.268850642
2.245886657
2.220746935
2.192949737
2.162035422
2.128069357
2.091643242
2.052688346
2.011180457
1.967779802
1.922318125
1.876020268
1.830083868
1.783895193
1.735299682
1.938654416
2.17218178
2.423944565
2.717698011
)


101
(
0.007360817056
0.1474830018
0.6046275126
1.439559494
2.564587626
3.851969182
5.191849799
6.488512958
7.685290834
8.743723525
9.645993049
10.38116382
10.94845523
11.34806284
11.59287397
11.6958581
11.67121986
11.53482902
11.31022482
11.00896223
10.65537924
10.26664068
9.85458275
9.433399589
9.01303748
8.599587031
8.196531003
7.805508186
7.426386056
7.059111855
6.703316094
6.359262392
6.028143459
5.708359726
5.403384017
5.11422918
4.842295057
4.588805049
4.354092714
4.138129788
3.940957286
3.762483664
3.601804233
3.458352254
3.331433646
3.21988176
3.122410241
3.037261468
2.962662919
2.896886705
2.83862142
2.786969514
2.74145601
2.701750902
2.667484681
2.6382062
2.613381769
2.592555148
2.575299278
2.561223749
2.550014993
2.541078212
2.534090994
2.528723395
2.524753075
2.521953147
2.520190993
2.519234939
2.518808601
2.518545704
2.518325383
2.517782578
2.51679568
2.515186593
2.512785735
2.509523529
2.505344024
2.500107504
2.49318215
2.484246539
2.473117757
2.459993471
2.444883996
2.427402983
2.407368262
2.384443123
2.358074897
2.328091194
2.295137605
2.259098409
2.219720115
2.178243035
2.133915483
2.088332153
2.042704959
1.997018972
1.949235315
2.180053582
2.446519152
2.737737827
3.076174565
)


101
(
0.007342108867
0.1437700427
0.585459687
1.390277364
2.473225709
3.710685745
4.997046077
6.240753254
7.388186526
8.403058277
9.268872844
9.975837513
10.52362648
10.91202933
11.15298707
11.25837357
11.2409932
11.11530353
10.90295099
10.61446255
10.27266647
9.893961804
9.490106585
9.075408638
8.660348799
8.251940923
7.854615482
7.470833482
7.101089388
6.745589036
6.403921778
6.076024345
5.762551225
5.461364259
5.175235118
4.90463147
4.650518485
4.41385417
4.194837152
3.993369795
3.809472461
3.64306364
3.493248407
3.359512116
3.241294175
3.137648124
3.047606286
2.969717923
2.90244495
2.844122075
2.793347266
2.749031884
2.710538582
2.677569988
2.649788114
2.62681185
2.608170089
2.593488583
2.582347449
2.574412894
2.56941543
2.566834786
2.566309822
2.567510275
2.570057182
2.573916997
2.578875437
2.584780529
2.591407024
2.59830284
2.605358176
2.612278918
2.618877995
2.624883367
2.630068369
2.634334396
2.63767214
2.640115011
2.64106307
2.639949151
2.636264547
2.630364963
2.622323332
2.611781878
2.598362042
2.581723179
2.561321901
2.536815794
2.508764692
2.477135581
2.441255096
2.402888492
2.360923051
2.317178798
2.272989886
2.228936891
2.183171505
2.447174118
2.752442078
3.089096181
3.478255071
)


101
(
0.007323426801
0.1401214442
0.5667397814
1.342289262
2.384503856
3.573876884
4.808942793
6.002150294
7.102774173
8.076574133
8.908192626
9.588793948
10.11845534
10.49665686
10.7343798
10.84249837
10.83252321
10.71758827
10.51763177
10.24220312
9.912626419
9.544456316
9.149226251
8.741212857
8.331276131
7.927205152
7.534308304
7.155865302
6.793072976
6.446537853
6.115973827
5.801168442
5.502418346
5.21715891
4.947533015
4.69348664
4.45552048
4.234289922
4.029818894
3.84188947
3.670476171
3.515493771
3.376025908
3.251578682
3.141669928
3.045494452
2.962344065
2.891058109
2.830364002
2.77872406
2.734740588
2.697194327
2.665270235
2.638665705
2.617037574
2.600057146
2.587299648
2.578494148
2.573198246
2.57110903
2.572045199
2.575624883
2.581433461
2.589212858
2.59837861
2.609025082
2.620908252
2.633927942
2.647926352
2.662418879
2.677320955
2.69234254
2.707273391
2.721815159
2.735658052
2.7485925
2.760670903
2.771984457
2.781965587
2.790185118
2.795596409
2.798602945
2.79930157
2.797440873
2.792463385
2.783894614
2.771295667
2.754144907
2.732848742
2.707558862
2.677080524
2.643563904
2.605624428
2.565457754
2.524319495
2.483612493
2.441574431
2.744269538
3.093597017
3.479980177
3.923532937
)


101
(
0.007304770796
0.1365367173
0.5484593213
1.295566399
2.2983478
3.441388651
4.62726752
5.772277237
6.828441796
7.763454272
8.562928266
9.218842881
9.731559679
10.10037182
10.33531159
10.44633167
10.44375704
10.33946771
10.15186186
9.889582935
9.572491981
9.215228694
8.828994172
8.42790101
8.023038426
7.622808667
7.233307798
6.858607193
6.500636913
6.16050391
5.838182266
5.533465468
5.246463355
4.974347113
4.71872236
4.479049099
4.255356782
4.047962849
3.856697809
3.681182063
3.521311714
3.376983442
3.247228885
3.131549201
3.029491152
2.940329747
2.863556799
2.798261604
2.743428533
2.697702267
2.659763648
2.62832216
2.602438161
2.581726343
2.565827435
2.554440414
2.547224836
2.543953743
2.544202286
2.54762364
2.554171093
2.563579605
2.57550109
2.58973104
2.605624546
2.623144927
2.642154123
2.66251946
2.684146135
2.706676477
2.729965134
2.753755772
2.77776804
2.801721568
2.825306239
2.848180459
2.870336678
2.891774194
2.912212999
2.931290372
2.947708927
2.961428675
2.972796426
2.981577043
2.987306693
2.988963675
2.986333019
2.978821226
2.966547551
2.94994035
2.92725271
2.90094481
2.869372839
2.835021941
2.799129084
2.764154873
2.728170892
3.073836963
3.470726012
3.908559823
4.407224581
)


101
(
0.007286140873
0.1330150979
0.5306108769
1.250080946
2.214686307
3.313074537
4.451762783
5.550733228
6.564619709
7.46294201
8.232131752
8.864862564
9.361669708
9.721745495
9.954211017
10.06816242
10.0728529
9.978987786
9.803533846
9.554304021
9.249781859
8.903662467
8.526720842
8.13279488
7.733053821
7.336342702
6.949438868
6.577164455
6.222176954
5.886141565
5.56940675
5.271909855
4.993715605
4.731881916
4.487610958
4.259950488
4.04848383
3.853158282
3.67357395
3.509171216
3.359741674
3.225151733
3.104352804
2.99681348
2.902075366
2.819430063
2.748502183
2.688570803
2.638889432
2.598309007
2.565625932
2.539549844
2.519068246
2.503672739
2.492975374
2.486677395
2.484555873
2.486388653
2.491783566
2.500338737
2.512159914
2.527019366
2.544704081
2.565109368
2.587662656
2.612050067
2.638266097
2.666158358
2.695657494
2.726531612
2.75867139
2.7917467
2.825435808
2.859602764
2.893983606
2.928045853
2.961561952
2.994555095
3.026883647
3.058302471