/*--------------------------------*- C++ -*----------------------------------*\
| =========                 |                                                 |
| \\      /  F ield         | OpenFOAM: The Open Source CFD Toolbox           |
|  \\    /   O peration     | Version:  2.3.1                                 |
|   \\  /    A nd           | Web:      www.OpenFOAM.org                      |
|    \\/     M anipulation  |                                                 |
\*---------------------------------------------------------------------------*/
FoamFile
{
    version     2.0;
    format      ascii;
    class       dictionary;
    location    "constant";
    object      rHCO;
}
// * * * * * * * * * * * * * * * * * * * * * * * * * * * * * * * * * * * * * //

rHCO_table
101
(

101
(
-8.050264058e-07
-0.0004262248796
-0.002561679303
-0.006495464053
-0.0113866823
-0.01602604812
-0.01982828508
-0.02062664589
-0.01901478935
-0.01252070579
-0.0007524178787
0.01899735199
0.04311829017
0.08433158477
0.1377598359
0.1966731604
0.2623968226
0.3669128158
0.392545186
0.5117892765
0.5647258251
0.5449431022
0.580607885
0.603300096
0.5962518232
0.5706517764
0.5321172212
0.4824454011
0.4371995681
0.3909580106
0.347250399
0.3029866425
0.2526222947
0.230878549
0.2033196992
0.1779818893
0.2164057781
0.3075416624
0.2719252431
0.2411618313
0.2134369341
0.1884510776
0.1660178712
0.1457567156
0.1282875833
0.1124539365
0.09881622084
0.08631375037
0.07539481211
0.06530739298
0.05657883323
0.0487879383
0.04169603077
0.03540028354
0.03031171221
0.02600603324
0.02165160246
0.01842214474
0.01528512226
0.01275100315
0.01044273995
0.008529479639
0.00686128803
0.005358904064
0.004292657786
0.003377171226
0.002649021929
0.002072259471
0.001565070116
0.00118467795
0.0008773428653
0.000630821007
0.000403678744
0.0002548082658
0.0003506375807
0.000359330865
0.0002377311972
0.0001465635214
8.704555321e-05
5.110765712e-05
3.238457826e-05
1.451566624e-05
6.872820617e-06
5.156108504e-06
2.193462726e-06
9.635597314e-08
-6.39040424e-07
-7.052127261e-07
-5.749731268e-07
-8.840608499e-07
-5.341860079e-07
-2.360159512e-07
-9.357667471e-08
-7.456919811e-08
-3.873636503e-08
-3.906438154e-08
4.640549896e-14
-1.099747716e-32
-3.559583227e-24
3.284535272e-24
0
)


101
(
-8.016186803e-07
-0.0004177615036
-0.002598632414
-0.006830374822
-0.01254571835
-0.01886912526
-0.02555467099
-0.0310080847
-0.03612596505
-0.03941205381
-0.04105406457
-0.0396233073
-0.03905223589
-0.0299179064
-0.01581594025
-0.002784932029
0.009807167083
0.04843344376
0.03005690479
0.06795100957
0.07624795745
0.03119581379
0.01604232178
0.00944160018
-0.007252007287
-0.0309496972
-0.0571025483
-0.08463812645
-0.1064139511
-0.1234478244
-0.1358014101
-0.1450662582
-0.1552313081
-0.1549744351
-0.1517072124
-0.1510769226
-0.1322993526
-0.08512880162
-0.0684738823
-0.06712912495
-0.06660329532
-0.06471532445
-0.06217865218
-0.05919078945
-0.05550776699
-0.05168125972
-0.04759016043
-0.04360360646
-0.03963411049
-0.03589994002
-0.03229273619
-0.02886044305
-0.02569386653
-0.02285168754
-0.02013316724
-0.01749663298
-0.01521030354
-0.01308554389
-0.01120482533
-0.009520909435
-0.008046192985
-0.006748528173
-0.005614735638
-0.004657777121
-0.003824558255
-0.003103225984
-0.002492033419
-0.001977399751
-0.0015563549
-0.001210282583
-0.0009298694965
-0.0007052758232
-0.0005310953401
-0.0003989278885
-0.0002876263502
-0.0002022814447
-0.0001439924009
-0.0001016638062
-7.003833685e-05
-4.689858822e-05
-3.040027648e-05
-1.927756962e-05
-1.197338552e-05
-7.142358765e-06
-4.218145976e-06
-2.468775367e-06
-1.405743276e-06
-7.503746264e-07
-3.838110132e-07
-1.886864207e-07
-8.932469663e-08
-4.153810077e-08
-1.886837889e-08
-7.533441843e-09
-3.173705603e-09
-1.326267991e-09
-2.186532695e-10
-3.769359256e-10
-6.62687275e-10
-1.585448433e-09
-1.089677689e-07
)


101
(
-7.981960368e-07
-0.0004091424311
-0.002627729827
-0.007120821989
-0.01355719873
-0.02133540441
-0.03046719524
-0.03979801734
-0.050392477
-0.06145758014
-0.07352520848
-0.08600448765
-0.1028418026
-0.1170308259
-0.131020831
-0.1499378274
-0.1734309793
-0.1794897613
-0.2259373836
-0.238896606
-0.2606719184
-0.3174575431
-0.3575231793
-0.3802619779
-0.399218452
-0.4160602906
-0.428489811
-0.4361882275
-0.4365913911
-0.4301131248
-0.4180248435
-0.4018738524
-0.3844004289
-0.3632310826
-0.3390718506
-0.3169563922
-0.2921298462
-0.2567685312
-0.227280396
-0.2067291644
-0.1894667877
-0.1728422961
-0.1567787184
-0.1415589491
-0.1271895079
-0.1138403976
-0.1014214257
-0.09002432973
-0.07956754931
-0.07007696884
-0.06147161183
-0.05370131081
-0.04672847921
-0.04052237644
-0.03498948218
-0.03003822595
-0.02567690804
-0.02184778114
-0.01850735677
-0.01560009293
-0.01308660028
-0.01092013791
-0.009057193371
-0.007470695596
-0.006126445463
-0.00499203332
-0.004038207748
-0.00324101282
-0.00258183674
-0.002038665031
-0.0015959366
-0.001236656361
-0.0009503070676
-0.0007226473709
-0.0005425263225
-0.000402768849
-0.0002961838411
-0.0002150991799
-0.0001542499077
-0.0001086549138
-7.514442515e-05
-5.088643974e-05
-3.382436286e-05
-2.193766447e-05
-1.388098186e-05
-8.558430496e-06
-5.254302946e-06
-3.206405319e-06
-1.873856689e-06
-1.061947533e-06
-5.869384484e-07
-3.09005899e-07
-1.709082011e-07
-8.839039842e-08
-4.563694433e-08
-2.234799199e-08
-5.845904376e-09
-1.16503542e-08
-2.184139656e-08
-5.128308377e-08
-2.413955848e-07
)


101
(
-7.947584891e-07
-0.0004003907745
-0.002649468482
-0.007369843013
-0.01443275849
-0.02345934823
-0.03465140207
-0.04718674689
-0.06219668597
-0.07938350849
-0.09945704542
-0.1223519499
-0.151837086
-0.1826872166
-0.2163889395
-0.2571038937
-0.3045487828
-0.340391321
-0.4042282887
-0.4481848539
-0.4897743186
-0.5514182248
-0.6023244595
-0.6333025896
-0.6520439122
-0.6620222172
-0.6630597209
-0.6557099698
-0.6398610926
-0.6164444051
-0.5872741989
-0.5541415202
-0.5191077385
-0.4829215315
-0.445313517
-0.4090410904
-0.3753260445
-0.3400813701
-0.3066888131
-0.2777692657
-0.2518231946
-0.2273735837
-0.2043182668
-0.1828376192
-0.1630183655
-0.1449515255
-0.1285174707
-0.1136434219
-0.1001954348
-0.08810191152
-0.07724114673
-0.06752407793
-0.05886665843
-0.05118140765
-0.0443709179
-0.03835049838
-0.03302070352
-0.02834259573
-0.02425602424
-0.02068572309
-0.01758507924
-0.01489698142
-0.01256781755
-0.01055992671
-0.008836010096
-0.007358414689
-0.006097566066
-0.005021030661
-0.004114095688
-0.003350168263
-0.002709108051
-0.002172784661
-0.001730809247
-0.001367289251
-0.001069190343
-0.0008274471387
-0.0006334309465
-0.0004794941715
-0.0003589005589
-0.0002658645392
-0.0001947630422
-0.0001401878721
-9.932421189e-05
-6.903841359e-05
-4.703585557e-05
-3.132189003e-05
-2.035287938e-05
-1.322210896e-05
-8.470408163e-06
-5.228612178e-06
-3.140855552e-06
-1.852478568e-06
-1.090982496e-06
-6.353450467e-07
-3.615910045e-07
-1.917439828e-07
-6.21105119e-08
-1.421131717e-07
-2.801746662e-07
-6.525072134e-07
-1.987840485e-05
)


101
(
-7.913060508e-07
-0.0003915285054
-0.002664322229
-0.007580303507
-0.01518321954
-0.02527251819
-0.03818434696
-0.05334265842
-0.07187089155
-0.09380925733
-0.1199306056
-0.1504788238
-0.1889306618
-0.2313868629
-0.2785630268
-0.3336986531
-0.3964915968
-0.4516670901
-0.5257307542
-0.5878496487
-0.6420915021
-0.7052575079
-0.7597741962
-0.7945367316
-0.8126490849
-0.8176856288
-0.8108823022
-0.7935581655
-0.7669429383
-0.7326148385
-0.6926836595
-0.6492334207
-0.6039891496
-0.5586019133
-0.5131169379
-0.4689410075
-0.4282173253
-0.3899913454
-0.3543327526
-0.3218928545
-0.2920019547
-0.2638405958
-0.2373806854
-0.212746893
-0.1900768996
-0.1694911725
-0.1508696147
-0.134078791
-0.1189325953
-0.1053322826
-0.09310230268
-0.08212855371
-0.07231429454
-0.06357052273
-0.0557809016
-0.04883991269
-0.04267323804
-0.03719530702
-0.03235756216
-0.02806189239
-0.02428095082
-0.020963254
-0.0180434172
-0.015488494
-0.01325621423
-0.01129487889
-0.009585048974
-0.008097313196
-0.006811054869
-0.005705854036
-0.004746795582
-0.003924235836
-0.003223690093
-0.002632072466
-0.002131732814
-0.001711688956
-0.001359076144
-0.001069807079
-0.000833294917
-0.0006423479413
-0.0004912343621
-0.00037038341
-0.0002756391607
-0.0002021609384
-0.0001457586405
-0.000103034872
-7.129330735e-05
-4.856058857e-05
-3.299065748e-05
-2.193149935e-05
-1.410663191e-05
-8.90095481e-06
-5.515676888e-06
-3.418615161e-06
-2.113717635e-06
-1.20056211e-06
-4.752843568e-07
-1.158776184e-06
-2.262645911e-06
-5.205736567e-06
-5.908731584e-06
)


101
(
-7.87838735e-07
-0.0003825764221
-0.002672742768
-0.007754906622
-0.0158186458
-0.02680381338
-0.04113544524
-0.05841452783
-0.07970333092
-0.1052617505
-0.1358486055
-0.1718685761
-0.2164488811
-0.2666808199
-0.3226945587
-0.3869024635
-0.4589510503
-0.5261355572
-0.6056514922
-0.6777125584
-0.7396483142
-0.8028369893
-0.8576556379
-0.8939777871
-0.9119683577
-0.9144936117
-0.9034773375
-0.8807767383
-0.8483294077
-0.8081823571
-0.7626219718
-0.7138393422
-0.6635229126
-0.6134988664
-0.5641332815
-0.5162580932
-0.4715682078
-0.4305356906
-0.3930100207
-0.3587845892
-0.3271559796
-0.2974054813
-0.2694153505
-0.2432397699
-0.2189851128
-0.1968127806
-0.1766829576
-0.1585125544
-0.1420883517
-0.1272624564
-0.11383216
-0.1016636555
-0.09066745315
-0.08078346403
-0.0719102579
-0.06390684385
-0.05670502961
-0.05022862328
-0.04445009862
-0.03922390486
-0.03451986945
-0.03035008766
-0.02660623898
-0.02327962399
-0.02033345558
-0.0176952816
-0.01534410472
-0.01325342518
-0.01139232175
-0.009780130076
-0.008342512402
-0.007078023983
-0.005967179977
-0.005006005083
-0.004171864029
-0.003452415428
-0.002834923327
-0.002309210676
-0.001859551623
-0.001484493286
-0.001174813581
-0.0009239087442
-0.0007160576497
-0.0005491457323
-0.0004148410315
-0.0003089650011
-0.0002250493185
-0.0001617332072
-0.0001145976503
-8.056251268e-05
-5.52466695e-05
-3.695553536e-05
-2.447047574e-05
-1.589787172e-05
-1.035834039e-05
-6.218838436e-06
-2.848519213e-06
-6.975535063e-06
-1.352714944e-05
-3.353655624e-05
-0.0001404618901
)


101
(
-7.843565573e-07
-0.0003735542569
-0.002675160814
-0.007896202891
-0.01634839937
-0.02807970288
-0.04356726143
-0.06253425949
-0.08594512593
-0.1141919897
-0.1479704348
-0.1877470143
-0.2362806824
-0.2914047897
-0.3528310359
-0.4222647851
-0.4992968057
-0.5733981162
-0.6552262492
-0.7320658287
-0.7983444388
-0.8609972297
-0.9149454739
-0.9519878593
-0.9707105867
-0.9730504993
-0.9610562945
-0.9368386421
-0.9026501548
-0.8607900501
-0.8136073873
-0.7633035296
-0.7115667601
-0.6601970375
-0.6098053306
-0.5609845743
-0.5148479791
-0.4722534811
-0.4334209125
-0.3981060312
-0.3656226611
-0.3351846351
-0.3065307064
-0.2795972307
-0.2543852277
-0.231045995
-0.209628237
-0.190193867
-0.1725524534
-0.1564928322
-0.1418351244
-0.128369179
-0.116029592
-0.1047911735
-0.0946273024
-0.08533324282
-0.07683554846
-0.0690985855
-0.06208753691
-0.05566428147
-0.04980504123
-0.04452494266
-0.03970705361
-0.03532660843
-0.03139092197
-0.02782595269
-0.02458677291
-0.02165477873
-0.01898791507
-0.01660820292
-0.01447225704
-0.01256092052
-0.01084479825
-0.009317940127
-0.007959214667
-0.006756723572
-0.005707593654
-0.004784750062
-0.003973289911
-0.003272889782
-0.002672695729
-0.002173207
-0.001747290715
-0.001390686705
-0.001095639144
-0.0008517894342
-0.0006513384968
-0.0004898233584
-0.0003642050592
-0.0002688263315
-0.000194236786
-0.0001371586496
-9.591109332e-05
-6.588619526e-05
-4.513651667e-05
-2.84489418e-05
-1.441415922e-05
-3.829493366e-05
-7.421794784e-05
-0.0001700284783
-0.0001481974057
)


101
(
-7.808595287e-07
-0.0003644807207
-0.002671986808
-0.008006598011
-0.01678115042
-0.02912421499
-0.04553553334
-0.06581754668
-0.09081427631
-0.1209851957
-0.1569332771
-0.1991254038
-0.2499565853
-0.3078204107
-0.3721492366
-0.4440706047
-0.5231331634
-0.6006504892
-0.6827688933
-0.7612316163
-0.8296570823
-0.8916806596
-0.9446752924
-0.9823973801
-1.002759038
-1.006865973
-0.9965470356
-0.9739012762
-0.9412314435
-0.9008962718
-0.8552110452
-0.8063080937
-0.7558388422
-0.7055343639
-0.6562034554
-0.6083660951
-0.5626683985
-0.5199129271
-0.4806331138
-0.4447629869
-0.4117988199
-0.3809824889
-0.3520220301
-0.3246993924
-0.2988834691
-0.2746675949
-0.2520965934
-0.2313628817
-0.2124157833
-0.195026261
-0.1790322926
-0.1641191101
-0.150290679
-0.1375261411
-0.1258210555
-0.1149936385
-0.10498478
-0.09572002856
-0.08719758982
-0.07926071835
-0.07190678976
-0.06519668762
-0.05899415581
-0.05328390193
-0.04804730635
-0.04324562491
-0.03880442414
-0.03475532849
-0.03100902907
-0.02759394679
-0.0244893483
-0.02164347775
-0.01904860119
-0.01669151273
-0.01456278598
-0.01262964658
-0.01091148012
-0.009372797678
-0.008000875881
-0.006778663474
-0.005691342439
-0.004747748246
-0.00394105994
-0.003235800692
-0.002639050865
-0.002130711305
-0.00169542566
-0.001329833576
-0.001032916747
-0.0007943830888
-0.0006030312923
-0.0004470742321
-0.0003295511685
-0.0002391882327
-0.0001720863629
-0.0001166167393
-6.554147345e-05
-0.0001658810143
-0.00031382187
-0.0006847658976
-0.000545353683
)


101
(
-7.773476656e-07
-0.0003553734894
-0.002663611914
-0.008088362216
-0.0171249592
-0.0299592715
-0.04709006567
-0.06836591123
-0.0945000453
-0.1259703072
-0.1632722493
-0.2068371383
-0.2587168326
-0.3177302646
-0.3831447646
-0.4556327238
-0.5347228754
-0.613288518
-0.6944320474
-0.7726740975
-0.841867808
-0.9033715006
-0.9558069078
-0.9945647409
-1.017389524
-1.024775701
-1.018195811
-0.9995324926
-0.9709382268
-0.9346769443
-0.8929516038
-0.847785335
-0.8007278249
-0.7533639043
-0.7067261502
-0.661281156
-0.6173717901
-0.5756693272
-0.5369150048
-0.5011367819
-0.46811675
-0.4372612694
-0.4081875797
-0.3806171843
-0.3543669681
-0.3294830811
-0.3059487605
-0.283997001
-0.2637656578
-0.2449852519
-0.2274618819
-0.2109682415
-0.1955232043
-0.1809734019
-0.1675159736
-0.1549855374
-0.1431843726
-0.1321040869
-0.121794521
-0.112068467
-0.1029234756
-0.09446377151
-0.08647909168
-0.07907841933
-0.07220283596
-0.06584915243
-0.05992497235
-0.05441537888
-0.04925625021
-0.04440665522
-0.03996659741
-0.03582791986
-0.03207533347
-0.02861211742
-0.02539546441
-0.02243473968
-0.01974561844
-0.01729198438
-0.01507277969
-0.01305299596
-0.01124084235
-0.009595736469
-0.008173184029
-0.006891107264
-0.005786124131
-0.004803139781
-0.00395996428
-0.00321950566
-0.002594788032
-0.002071777434
-0.001635375423
-0.001270062668
-0.0009797401685
-0.0007466043482
-0.0005631179116
-0.0004069499042
-0.0002517089949
-0.0005896223317
-0.001081472584
-0.002229253999
-0.004687248352
)


101
(
-7.738209778e-07
-0.0003462492679
-0.002650408601
-0.008143625751
-0.01738731279
-0.03060500251
-0.04827593112
-0.07026958805
-0.0971674756
-0.1294293477
-0.167438427
-0.2115724149
-0.2635704974
-0.3225764153
-0.387783123
-0.4595184541
-0.5373142304
-0.6153624918
-0.694776109
-0.7717856561
-0.8409428499
-0.9021312989
-0.954533582
-0.9948318902
-1.020828721
-1.032620802
-1.031314501
-1.018450922
-0.9958786782
-0.9656432904
-0.9297721428
-0.890175387
-0.8483016127
-0.8054761029
-0.762846933
-0.7209667274
-0.680039044
-0.6405957348
-0.6034975237
-0.5686825588
-0.5361518691
-0.5055335656
-0.4765781163
-0.4489550829
-0.4224790467
-0.3971706626
-0.3729335323
-0.3500261504
-0.3285873143
-0.3083822519
-0.2893128242
-0.2712466892
-0.2541131589
-0.2377438653
-0.2223768232
-0.2078125726
-0.1940474674
-0.1808017396
-0.1684180522
-0.1566558809
-0.1453837501
-0.1348828278
-0.1248141382
-0.1153743436
-0.1064977258
-0.0981651711
-0.09035764596
-0.08296100138
-0.07598005882
-0.06938886707
-0.0632598961
-0.05749846046
-0.05210621244
-0.04710594916
-0.0424467778
-0.03812666253
-0.03408305949
-0.03033500888
-0.02693981196
-0.02377002333
-0.02084692446
-0.01820159461
-0.01581125986
-0.01367482915
-0.01173723696
-0.009993367355
-0.008480603193
-0.007107834558
-0.005910464191
-0.004864740964
-0.003969552528
-0.003204415523
-0.002566157104
-0.002039337263
-0.001604551417
-0.001217158003
-0.0008260418967
-0.001794939493
-0.003165865931
-0.006074820726
-0.01929519378
)


101
(
-7.70279484e-07
-0.0003371238896
-0.002632730558
-0.008174383015
-0.0175751119
-0.03107977302
-0.04913388986
-0.07160914024
-0.09895984585
-0.1316022927
-0.1698104411
-0.2139020271
-0.2653382869
-0.3235124465
-0.3876121292
-0.4577165668
-0.533380859
-0.6099094451
-0.687174888
-0.7624555186
-0.8311485308
-0.8922530494
-0.9451499441
-0.9875049965
-1.017274086
-1.03429976
-1.039364572
-1.033618184
-1.018514841
-0.9958012648
-0.9672551389
-0.9346352769
-0.8993233635
-0.8624538186
-0.8250999859
-0.7879353602
-0.7511837049
-0.7152401362
-0.6808850818
-0.6479889551
-0.6167401422
-0.5869358791
-0.5585682844
-0.5312867739
-0.5049646864
-0.4796426759
-0.4550768291
-0.431488646
-0.4089898601
-0.3875039575
-0.3670067509
-0.3474612668
-0.3287372224
-0.3106372807
-0.2931103129
-0.2764337135
-0.2606180711
-0.2451609124
-0.2305133546
-0.2165127067
-0.2028715741
-0.1899482521
-0.1775593177
-0.1657434244
-0.154444295
-0.1436295146
-0.1335901035
-0.1239270838
-0.1147971007
-0.1060275216
-0.09774012349
-0.08984560359
-0.08243724953
-0.07547221282
-0.06892014709
-0.06270523935
-0.05683833006
-0.05136331858
-0.04629004411
-0.04151295756
-0.03701828419
-0.03292561395
-0.02910675481
-0.02566689707
-0.02249804607
-0.01955415881
-0.01695742145
-0.01455469277
-0.01240908444
-0.01052672909
-0.008813320522
-0.0073446578
-0.006077866585
-0.004993448287
-0.004073838643
-0.003226999818
-0.002342010718
-0.004763474482
-0.008071594182
-0.01438504516
-0.01888467468
)


101
(
-7.667232263e-07
-0.0003280122198
-0.002610915038
-0.008182518254
-0.01769478963
-0.03140045055
-0.04970079674
-0.07245622614
-0.1000022436
-0.1326945721
-0.1707070536
-0.2142978664
-0.2646864805
-0.3214587955
-0.3838472363
-0.4517633287
-0.5248006417
-0.5992002417
-0.6741149859
-0.7474818223
-0.8155263455
-0.8767793976
-0.930649917
-0.9755019564
-1.00954217
-1.032411553
-1.044574464
-1.046830788
-1.040230894
-1.026174878
-1.006126246
-0.9816327782
-0.9540287039
-0.9243992656
-0.8936055761
-0.8623605925
-0.8309692713
-0.7997385737
-0.7693049117
-0.739453968
-0.7105340132
-0.6824632793
-0.6554565938
-0.6292595221
-0.6037936181
-0.5790887262
-0.5547077331
-0.5308427003
-0.5076875793
-0.4853002147
-0.4636626979
-0.4428171144
-0.422717141
-0.4030142222
-0.3834825169
-0.3650830547
-0.3471068005
-0.3294892114
-0.3123543354
-0.296073385
-0.2800176714
-0.2645246693
-0.2495133428
-0.2349594616
-0.2210234075
-0.2074822324
-0.1945839254
-0.1822991926
-0.1705559645
-0.1591757306
-0.148303075
-0.1378089266
-0.1278438055
-0.1183405826
-0.1092818895
-0.1005607022
-0.09231088503
-0.08458584104
-0.07713037931
-0.07012647439
-0.06350847295
-0.05730717602
-0.0514919034
-0.04613763222
-0.04109492289
-0.03634131941
-0.03208036895
-0.02813474163
-0.02450151656
-0.02123475221
-0.01818746807
-0.01555498175
-0.01319642172
-0.0111629369
-0.009372242003
-0.007686448875
-0.005909478359
-0.01115821017
-0.0180976622
-0.03032436934
-0.04040404567
)


101
(
-7.631522652e-07
-0.0003189282784
-0.002585281792
-0.008169806447
-0.01775234033
-0.03158254735
-0.05001007012
-0.07287465556
-0.10040362
-0.1328823047
-0.1703967902
-0.2131498234
-0.2621550696
-0.3171480785
-0.3774404537
-0.4428423213
-0.5129961423
-0.5849270517
-0.6574316463
-0.7288738195
-0.796222283
-0.8578313334
-0.9130525206
-0.960702072
-0.9992837744
-1.028326462
-1.048032297
-1.058888664
-1.061563811
-1.057074458
-1.046532448
-1.031236809
-1.012452874
-0.9912809588
-0.9683435907
-0.9443137659
-0.9195375705
-0.8942489022
-0.8689402916
-0.8434837957
-0.8182110034
-0.7931284281
-0.7685720822
-0.7444465371
-0.7207213995
-0.6974705058
-0.6741726168
-0.6509030409
-0.6278300009
-0.6052421724
-0.5830471497
-0.5613991911
-0.5403716535
-0.5195249788
-0.4986377823
-0.4786171542
-0.4588437154
-0.4391157262
-0.4197104814
-0.4011212947
-0.3827264871
-0.3646785729
-0.347037799
-0.3296045022
-0.3125613744
-0.2962422659
-0.2802758355
-0.2648770296
-0.2501478962
-0.2355851833
-0.2216247505
-0.2080694109
-0.1948639799
-0.182148849
-0.1698922904
-0.158068679
-0.1466692929
-0.1357757151
-0.1253655286
-0.1153059058
-0.1056307444
-0.09648339245
-0.08787243202
-0.0796693089
-0.07198671008
-0.06466693646
-0.05784127244
-0.05154630865
-0.04560074326
-0.04017370324
-0.03513982872
-0.03065514334
-0.02653890111
-0.02288180668
-0.01970060728
-0.01661655162
-0.01337398185
-0.02360388493
-0.03658012822
-0.05783401792
-0.0471480249
)


101
(
-7.595665365e-07
-0.0003098852841
-0.002556134981
-0.008137923638
-0.01775334753
-0.0316403143
-0.05009208197
-0.0729214339
-0.1002584939
-0.1323155811
-0.1691057861
-0.2107798512
-0.2581812095
-0.3111622564
-0.3691345733
-0.4318605292
-0.4990395679
-0.568349999
-0.638475119
-0.7080821786
-0.7747430899
-0.8368369682
-0.8936533052
-0.9442841693
-0.9875255962
-1.022856523
-1.050318656
-1.070150174
-1.082678402
-1.088492657
-1.088320161
-1.083238078
-1.074451443
-1.062971283
-1.049161563
-1.033644417
-1.016777714
-0.9987534153
-0.9799525407
-0.9604723763
-0.9404592254
-0.9199053673
-0.8992236494
-0.8785011163
-0.8577151837
-0.8370303924
-0.8159976688
-0.7945538
-0.7728242097
-0.7513250734
-0.7294714624
-0.707737868
-0.6867067071
-0.6655412463
-0.6439847804
-0.6227124459
-0.6019889795
-0.5807076105
-0.559696781
-0.5390847254
-0.518797057
-0.4983413005
-0.47805133
-0.4577905922
-0.4379287393
-0.4185002177
-0.3991747831
-0.3804778106
-0.361967048
-0.3439655244
-0.326381003
-0.3093073476
-0.2922102588
-0.2755029703
-0.2591884984
-0.2432160371
-0.2277521947
-0.2129971816
-0.1983845616
-0.184323109
-0.1705195067
-0.1573880405
-0.1447336499
-0.1325090967
-0.1210718663
-0.110105579
-0.09951753451
-0.08974336982
-0.08040121578
-0.07177404948
-0.0637299315
-0.05640785286
-0.04962158947
-0.04350968002
-0.03807073745
-0.03282021355
-0.02730824717
-0.04546307816
-0.06780900088
-0.1021965546
-0.09703367194
)


101
(
-7.559660514e-07
-0.0003008955723
-0.002523764375
-0.008088451562
-0.01770302046
-0.03158682834
-0.04997423059
-0.07264721729
-0.09964959662
-0.1311230596
-0.1670238303
-0.2074531739
-0.2531176205
-0.3039614188
-0.359506753
-0.4195095236
-0.483734565
-0.5504026723
-0.6182343116
-0.6861529199
-0.7521607446
-0.8148022953
-0.8733250409
-0.927011219
-0.9749220188
-1.016512647
-1.051751695
-1.080679929
-1.103367463
-1.120023516
-1.13098521
-1.137044893
-1.139315084
-1.138748548
-1.135366415
-1.1297424
-1.122235522
-1.113036955
-1.102461918
-1.090683193
-1.077770464
-1.063706007
-1.048825454
-1.033238902
-1.016949882
-1.000322606
-0.9830715566
-0.9649734444
-0.9462161445
-0.9272937793
-0.9072106848
-0.8867630161
-0.8671018676
-0.8468467494
-0.8259255303
-0.8048353281
-0.7840893367
-0.7625657602
-0.7405101915
-0.7186492996
-0.6971884361
-0.6750570074
-0.6522285873
-0.6294758552
-0.6071689969
-0.584469447
-0.5620882078
-0.5393940032
-0.5172736476
-0.4953446499
-0.4734488976
-0.452166878
-0.4305875056
-0.4091673011
-0.387883838
-0.3666203378
-0.3462154925
-0.326072333
-0.3060943704
-0.2868311309
-0.267330025
-0.2485783559
-0.2305741266
-0.2128587161
-0.1956848056
-0.1794832614
-0.1640095794
-0.1489584799
-0.1349116053
-0.1217536908
-0.109165335
-0.09780631531
-0.08688250672
-0.07709019602
-0.06833654845
-0.05986528752
-0.05087802417
-0.08034775322
-0.1157721422
-0.1696293948
-0.2780471507
)


101
(
-7.523508261e-07
-0.0002919707206
-0.002488445974
-0.008022882439
-0.01760622166
-0.03143413095
-0.04968123558
-0.07209700213
-0.09864924151
-0.1294150216
-0.1643091559
-0.2033880924
-0.2472482554
-0.2959077857
-0.3490034574
-0.4063143622
-0.467677672
-0.5317620427
-0.597409379
-0.663773286
-0.7291587532
-0.7923568136
-0.8526266363
-0.9093571508
-0.9618731427
-1.0096182
-1.05252253
-1.090471063
-1.123376874
-1.151191382
-1.173961173
-1.192107969
-1.206429322
-1.217935383
-1.226276808
-1.231971934
-1.23537865
-1.23671745
-1.236299472
-1.234214199
-1.230657431
-1.225272066
-1.218374537
-1.210162128
-1.200654039
-1.190154432
-1.178498195
-1.165766952
-1.151922794
-1.137384442
-1.12128893
-1.104229503
-1.087577904
-1.070095616
-1.051712231
-1.032617096
-1.013424041
-0.9933228301
-0.9717397844
-0.949896724
-0.9277201311
-0.9050076758
-0.880610445
-0.8564362306
-0.8321661313
-0.8065830461
-0.7809565074
-0.7547389404
-0.7290601235
-0.7027226879
-0.6759545929
-0.649865107
-0.6228358627
-0.5960947381
-0.5690702815
-0.5411221126
-0.5140737326
-0.4867532641
-0.4603802828
-0.4337935095
-0.4069043988
-0.3809734242
-0.3552396528
-0.3302413997
-0.3059452391
-0.2819089557
-0.2593462631
-0.2372359899
-0.2162317538
-0.1966533195
-0.177397922
-0.1601271139
-0.1435695173
-0.128455644
-0.1150069872
-0.101744768
-0.08764068138
-0.133578185
-0.1886173021
-0.2715277983
-0.2151670695
)


101
(
-7.487208797e-07
-0.0002831215991
-0.002450442336
-0.00794262603
-0.01746747451
-0.03119324873
-0.04923537691
-0.07131073018
-0.09732062034
-0.1272859227
-0.1610940703
-0.1987635302
-0.2408008378
-0.2872852803
-0.3379681611
-0.3926716962
-0.4513078164
-0.5129123744
-0.5764851938
-0.6413855271
-0.7061713823
-0.7698952398
-0.8319167878
-0.8916119093
-0.9486073144
-1.002367547
-1.052728941
-1.099469147
-1.142465792
-1.181549568
-1.216562018
-1.24756417
-1.274908582
-1.299612119
-1.32098094
-1.339537737
-1.355594929
-1.369366585
-1.381224023
-1.391174313
-1.399220541
-1.404950286
-1.408770455
-1.410592647
-1.410395593
-1.408580286
-1.405194158
-1.400567136
-1.393913843
-1.386161812
-1.376852139
-1.366039797
-1.354689672
-1.342590835
-1.328970362
-1.313614895
-1.298342905
-1.28202363
-1.262954793
-1.242706173
-1.221755923
-1.199877993
-1.175860512
-1.151831617
-1.125650591
-1.099140742
-1.071071694
-1.041371197
-1.011708114
-0.9805313473
-0.9490799539
-0.9173299971
-0.8843733553
-0.8513554847
-0.8175949605
-0.7820843725
-0.7456568392
-0.7104071169
-0.6748584238
-0.6389320501
-0.6032242113
-0.5678871691
-0.5313004382
-0.4966035058
-0.46250361
-0.428605091
-0.3959531374
-0.3644744848
-0.3336443118
-0.3048711247
-0.2766908401
-0.2507711391
-0.2265795211
-0.2038353566
-0.1838436569
-0.1640446194
-0.1430454309
-0.2126930663
-0.2971346247
-0.4277899326
-0.4441592052
)


101
(
-7.450762151e-07
-0.0002743584554
-0.002409963261
-0.007849013264
-0.01729099262
-0.03087427111
-0.04865671631
-0.07032380892
-0.09571937531
-0.1248170395
-0.157489253
-0.1937253711
-0.2339570446
-0.2783151299
-0.326662393
-0.3788777038
-0.4349439024
-0.4942003107
-0.555814754
-0.6192911932
-0.6834886903
-0.7476797899
-0.8114016432
-0.8739227446
-0.9351620259
-0.9947013157
-1.052254558
-1.107504446
-1.160401005
-1.210755864
-1.258217588
-1.302564913
-1.343795349
-1.382788642
-1.41849172
-1.451573181
-1.482226817
-1.510463478
-1.53665479
-1.560858494
-1.58301612
-1.602720445
-1.620060085
-1.6348474
-1.647048206
-1.657120416
-1.665208554
-1.671725081
-1.675534103
-1.67778844
-1.678364495
-1.677207551
-1.674596594
-1.670983665
-1.665446016
-1.656694433
-1.648024116
-1.637747775
-1.62423637
-1.608313759
-1.590935887
-1.571776777
-1.550787226
-1.528708703
-1.502757988
-1.476785307
-1.446777306
-1.414639639
-1.381204941
-1.34675938
-1.310639628
-1.27240966
-1.232878436
-1.192374493
-1.149928708
-1.105690821
-1.060771532
-1.014135648
-0.9670407737
-0.9197401849
-0.8732258052
-0.8248469318
-0.7757583837
-0.727780572
-0.6809569131
-0.6338398477
-0.5870853841
-0.5431015566
-0.4992364565
-0.4578300114
-0.4184926898
-0.3802520139
-0.3453591739
-0.3128211023
-0.2830905189
-0.2540879108
-0.2234881299
-0.329534576
-0.4612060492
-0.671393019
-0.8073827429
)


101
(
-7.414168512e-07
-0.000265690905
-0.002367286947
-0.007743298473
-0.01708069167
-0.03048642914
-0.04796330875
-0.06916756154
-0.09389468522
-0.1220791346
-0.1535873006
-0.1883919615
-0.2268608868
-0.2691682635
-0.3152812417
-0.3651427347
-0.4188008088
-0.4758477216
-0.5356258795
-0.5977394838
-0.6613517994
-0.7259236164
-0.7912020035
-0.8563612055
-0.9215368984
-0.9865406689
-1.050988168
-1.114431859
-1.176963394
-1.23843519
-1.298318054
-1.35623779
-1.412050206
-1.466347369
-1.517601534
-1.566737442
-1.613879178
-1.658702233
-1.701504104
-1.742461474
-1.781369236
-1.81779039
-1.851705744
-1.882779251
-1.910865242
-1.93641917
-1.959528819
-1.980774718
-1.999381103
-2.015784897
-2.030058536
-2.042292524
-2.052361994
-2.061057157
-2.06752954
-2.070284746
-2.072102533
-2.070950145
-2.066807534
-2.059615659
-2.047714863
-2.034944939
-2.019629414
-2.001720648
-1.978736159
-1.954643929
-1.925132034
-1.892111346
-1.856514185
-1.81962976
-1.777768066
-1.734320602
-1.688917381
-1.640343879
-1.588512087
-1.53483371
-1.47809487
-1.418378168
-1.358773665
-1.297928578
-1.236476743
-1.172586577
-1.108293412
-1.044702817
-0.9788760861
-0.9171550239
-0.8528152902
-0.7915565468
-0.7307623671
-0.6729456879
-0.6180956105
-0.5648883348
-0.5141267869
-0.4678873656
-0.4255512158
-0.3851622879
-0.3422417828
-0.5058110429
-0.7139163954
-1.05629538
-1.148689537
)


101
(
-7.377428073e-07
-0.0002571277848
-0.002322638766
-0.007626664802
-0.01684020777
-0.03003816311
-0.04717139094
-0.06786965426
-0.09188912789
-0.1191324162
-0.1494657023
-0.1828593975
-0.2196259616
-0.2599755943
-0.3039698436
-0.3516181929
-0.4030267852
-0.457999291
-0.5160556228
-0.5768908349
-0.6399258404
-0.7048046256
-0.7714080641
-0.8389770251
-0.9077188861
-0.9777604717
-1.048722282
-1.120001008
-1.191813506
-1.264100714
-1.336214343
-1.407686455
-1.478415119
-1.548847659
-1.616923168
-1.683638686
-1.749156109
-1.812726502
-1.874402096
-1.934456354
-1.992733097
-2.048816582
-2.102603607
-2.153613695
-2.201477182
-2.246503769
-2.288769119
-2.329131541
-2.367286089
-2.402612471
-2.435007221
-2.465256366
-2.492799015
-2.517929537
-2.540512238
-2.559884694
-2.57734797
-2.590734115
-2.600270655
-2.605738692
-2.604034264
-2.601688193
-2.595239775
-2.584509522
-2.568787197
-2.548988122
-2.52323766
-2.492178845
-2.455980165
-2.416372752
-2.37079711
-2.323424844
-2.271429858
-2.214409176
-2.153914545
-2.090187544
-2.021919037
-1.949093335
-1.874165952
-1.796978882
-1.718469027
-1.63786701
-1.555544531
-1.471370394
-1.385679123
-1.302680921
-1.218441937
-1.135591291
-1.053519213
-0.9757483879
-0.9005201167
-0.825745075
-0.7573616281
-0.6926822947
-0.6348636915