/*--------------------------------*- C++ -*----------------------------------*\
| =========                 |                                                 |
| \\      /  F ield         | OpenFOAM: The Open Source CFD Toolbox           |
|  \\    /   O peration     | Version:  2.3.1                                 |
|   \\  /    A nd           | Web:      www.OpenFOAM.org                      |
|    \\/     M anipulation  |                                                 |
\*---------------------------------------------------------------------------*/
FoamFile
{
    version     2.0;
    format      ascii;
    class       dictionary;
    location    "constant";
    object      CH3;
}
// * * * * * * * * * * * * * * * * * * * * * * * * * * * * * * * * * * * * * //

CH3_table
100
(

100
(
2.824507704e-06
4.45463894e-06
5.639918921e-06
6.486590187e-06
7.144462599e-06
7.608449933e-06
7.964448712e-06
8.216850498e-06
8.402286032e-06
8.502508652e-06
8.589424935e-06
8.573891304e-06
8.557103118e-06
8.522525064e-06
8.43213414e-06
8.344867553e-06
8.255909165e-06
8.117805887e-06
7.98398643e-06
7.854682897e-06
7.698691135e-06
7.536610477e-06
7.378501725e-06
7.216615059e-06
7.037678329e-06
6.862841989e-06
6.69228032e-06
6.516722161e-06
6.332916706e-06
6.153144785e-06
5.977248274e-06
5.800437707e-06
5.624540555e-06
5.452333423e-06
5.28385983e-06
5.113607001e-06
4.935849877e-06
4.762027883e-06
4.591987205e-06
4.425030219e-06
4.260193253e-06
4.099024038e-06
3.94142347e-06
3.787440308e-06
3.637075605e-06
3.48989673e-06
3.345766498e-06
3.204380765e-06
3.063021668e-06
2.924376876e-06
2.788278825e-06
2.655717546e-06
2.529574554e-06
2.405570097e-06
2.283970535e-06
2.167244244e-06
2.055338428e-06
1.94748612e-06
1.846815817e-06
1.749451327e-06
1.649292011e-06
1.555984989e-06
1.469335489e-06
1.381742261e-06
1.293167749e-06
1.211326388e-06
1.135668361e-06
1.056944574e-06
9.817073772e-07
9.133661926e-07
8.470875932e-07
7.792683091e-07
7.184233895e-07
6.622904824e-07
6.025881076e-07
5.498716306e-07
5.019677436e-07
4.505568148e-07
4.071812481e-07
3.648513266e-07
3.242163312e-07
2.907759754e-07
2.542877892e-07
2.256776099e-07
1.958431752e-07
1.721016092e-07
1.478709533e-07
1.283323016e-07
1.091550143e-07
9.156501863e-08
7.582713943e-08
6.197836807e-08
5.027089164e-08
3.953440917e-08
3.081494599e-08
2.36443035e-08
1.909264169e-08
1.477630439e-08
8.992274622e-09
3.278537861e-13
)


100
(
2.680902684e-06
4.228478313e-06
5.398184725e-06
6.252202211e-06
6.928340881e-06
7.43197978e-06
7.802540265e-06
8.090570259e-06
8.295793351e-06
8.433835115e-06
8.532571591e-06
8.561922462e-06
8.5587538e-06
8.534594771e-06
8.475528745e-06
8.398633851e-06
8.314419621e-06
8.20663887e-06
8.083983654e-06
7.957288738e-06
7.820477871e-06
7.672855694e-06
7.520138995e-06
7.365216716e-06
7.205263697e-06
7.038361846e-06
6.870954026e-06
6.703346402e-06
6.535930208e-06
6.361479776e-06
6.188455769e-06
6.017955033e-06
5.851238538e-06
5.682277559e-06
5.515570916e-06
5.351244509e-06
5.190144864e-06
5.027312546e-06
4.861622753e-06
4.699598319e-06
4.543768195e-06
4.392262703e-06
4.237433202e-06
4.084817404e-06
3.935778236e-06
3.793180618e-06
3.649313027e-06
3.508817312e-06
3.372366613e-06
3.245131586e-06
3.122536244e-06
3.002059847e-06
2.883528404e-06
2.767178382e-06
2.653106064e-06
2.535417189e-06
2.422192077e-06
2.330377131e-06
2.298071139e-06
2.400064296e-06
2.602629493e-06
2.470293683e-06
2.166943424e-06
2.133822859e-06
2.268175288e-06
2.141975039e-06
1.906679908e-06
1.963609205e-06
2.011818002e-06
1.835915139e-06
1.703977933e-06
1.779790041e-06
1.719592663e-06
1.567959701e-06
1.806261623e-06
1.94890761e-06
1.539567876e-06
1.639892222e-06
1.7419567e-06
1.354366252e-06
1.55374301e-06
1.42090128e-06
1.305699455e-06
1.537326028e-06
1.212406767e-06
1.339187758e-06
1.401301447e-06
1.206833335e-06
1.431967354e-06
1.250789833e-06
1.366545772e-06
1.334631897e-06
1.519414233e-06
1.525725067e-06
1.705240177e-06
1.657912294e-06
1.712420442e-06
1.625878974e-06
9.289523666e-07
4.286144469e-07
)


100
(
2.537373423e-06
4.001842244e-06
5.148478921e-06
6.002517409e-06
6.702532033e-06
7.2271937e-06
7.629104293e-06
7.932879641e-06
8.167357315e-06
8.327193599e-06
8.447738644e-06
8.507405051e-06
8.526876924e-06
8.519122276e-06
8.481321808e-06
8.42248373e-06
8.350520193e-06
8.262960038e-06
8.16103898e-06
8.047807533e-06
7.925403623e-06
7.795748074e-06
7.659540923e-06
7.515708466e-06
7.367998841e-06
7.219491517e-06
7.067556949e-06
6.911299757e-06
6.752246735e-06
6.594185631e-06
6.4363403e-06
6.275489943e-06
6.11773502e-06
5.964496625e-06
5.814825738e-06
5.659963248e-06
5.503855371e-06
5.349311379e-06
5.206170043e-06
5.065363531e-06
4.924243688e-06
4.790645337e-06
4.668113041e-06
4.559522663e-06
4.428960717e-06
4.290916267e-06
4.156801704e-06
4.038658517e-06
3.91431019e-06
3.781751645e-06
3.668888422e-06
3.599327354e-06
3.585362194e-06
3.536802986e-06
3.492484995e-06
3.456226177e-06
3.467189876e-06
3.413336926e-06
3.387178461e-06
3.436416006e-06
3.704330465e-06
4.00805152e-06
4.013077549e-06
3.784652956e-06
3.636416009e-06
3.668097334e-06
3.613774419e-06
3.493095761e-06
3.415214057e-06
3.359407111e-06
3.245284562e-06
3.127940597e-06
3.059384888e-06
2.969875944e-06
2.998815861e-06
3.409590009e-06
3.930719799e-06
3.783394321e-06
3.678207688e-06
3.692051505e-06
3.63419677e-06
4.019166896e-06
3.723123363e-06
4.356128632e-06
4.30305471e-06
4.163904476e-06
4.486728842e-06
4.456710632e-06
4.579795672e-06
4.981091869e-06
5.345963936e-06
5.624666169e-06
6.024888982e-06
6.966696606e-06
6.955205684e-06
7.239132378e-06
7.557523685e-06
5.922872167e-06
3.566711733e-06
1.961066631e-06
)


100
(
2.393931821e-06
3.780119915e-06
4.893902019e-06
5.759044447e-06
6.462118908e-06
7.000454507e-06
7.434220337e-06
7.75273945e-06
8.015630622e-06
8.20353275e-06
8.342489412e-06
8.433305294e-06
8.474962662e-06
8.489121534e-06
8.474402836e-06
8.436335239e-06
8.382896567e-06
8.314977103e-06
8.234543319e-06
8.146109532e-06
8.043481315e-06
7.932406975e-06
7.816941862e-06
7.699681086e-06
7.56912996e-06
7.435796566e-06
7.30729459e-06
7.186337011e-06
7.05255165e-06
6.910278139e-06
6.766974673e-06
6.642617286e-06
6.514185243e-06
6.388638653e-06
6.27113764e-06
6.170568247e-06
6.07090899e-06
5.950001417e-06
5.826877412e-06
5.72046697e-06
5.65625197e-06
5.60839782e-06
5.552683107e-06
5.528760288e-06
5.531133979e-06
5.592158973e-06
5.570053034e-06
5.556886645e-06
5.545518146e-06
5.629147929e-06
5.601474508e-06
5.596770705e-06
5.590274913e-06
5.648347786e-06
5.610732142e-06
5.555861447e-06
5.516652009e-06
5.572843901e-06
5.525703852e-06
5.434034288e-06
5.415508213e-06
5.52286368e-06
5.650139684e-06
5.634676211e-06
5.492153576e-06
5.338952561e-06
5.243656309e-06
5.166474335e-06
5.158703306e-06
5.317659202e-06
5.529024376e-06
5.814879995e-06
6.210172324e-06
6.67799443e-06
6.653037145e-06
6.986767195e-06
8.138743935e-06
7.843801422e-06
7.502088884e-06
8.731780966e-06
8.730209457e-06
8.625643503e-06
9.254439009e-06
9.211368501e-06
9.341162382e-06
9.891615554e-06
1.059064306e-05
1.142625824e-05
1.201983634e-05
1.315286874e-05
1.430960619e-05
1.521507081e-05
1.654955456e-05
1.723125683e-05
1.858737174e-05
1.992285886e-05
2.030031753e-05
1.431577964e-05
9.122257138e-06
5.528131123e-06
)


100
(
2.250589229e-06
3.574790558e-06
4.653146679e-06
5.507597556e-06
6.208138629e-06
6.773761958e-06
7.22087686e-06
7.571182468e-06
7.846256968e-06
8.066514364e-06
8.224505523e-06
8.344300156e-06
8.417472268e-06
8.453530121e-06
8.464201709e-06
8.451646132e-06
8.424017995e-06
8.382517001e-06
8.327899851e-06
8.265203125e-06
8.202132865e-06
8.124583804e-06
8.039829166e-06
7.954380857e-06
7.879634448e-06
7.785291789e-06
7.688952508e-06
7.610049017e-06
7.562823376e-06
7.501741786e-06
7.416812739e-06
7.330260172e-06
7.273865141e-06
7.270355498e-06
7.222846746e-06
7.200773256e-06
7.2099465e-06
7.311855313e-06
7.325079944e-06
7.354183243e-06
7.398041432e-06
7.471169835e-06
7.570702398e-06
7.571244845e-06
7.591336253e-06
7.662207171e-06
7.856310934e-06
7.834638203e-06
7.826331325e-06
7.867728607e-06
7.996256629e-06
7.982952742e-06
7.960829597e-06
7.976105265e-06
8.014379099e-06
7.964978548e-06
7.895634223e-06
7.947987914e-06
8.011218321e-06
8.007393836e-06
7.917294642e-06
7.878124623e-06
7.969197036e-06
8.19929323e-06
8.460230294e-06
8.761655268e-06
9.05937201e-06
9.321080881e-06
9.565388674e-06
9.863347985e-06
1.012907236e-05
1.038718984e-05
1.09225378e-05
1.218460405e-05
1.360934989e-05
1.346808945e-05
1.338966411e-05
1.44534175e-05
1.481742751e-05
1.501817759e-05
1.543294919e-05
1.602564035e-05
1.746579368e-05
1.895436274e-05
2.007532163e-05
2.111442095e-05
2.210244369e-05
2.38888373e-05
2.60975449e-05
2.955647104e-05
3.056747539e-05
3.238518781e-05
3.529724239e-05
3.78130472e-05
4.099531998e-05
4.413311222e-05
4.324087622e-05
2.886067519e-05
1.909782511e-05
1.209180477e-05
)


100
(
2.10732364e-06
3.370820441e-06
4.411164895e-06
5.249347232e-06
5.946351955e-06
6.534450544e-06
6.99273293e-06
7.373607622e-06
7.668685241e-06
7.915123812e-06
8.106213995e-06
8.24810054e-06
8.353769343e-06
8.422216952e-06
8.462983215e-06
8.481465116e-06
8.486385621e-06
8.488447328e-06
8.479807673e-06
8.459870336e-06
8.439952902e-06
8.435626604e-06
8.425566047e-06
8.405380658e-06
8.395283407e-06
8.412579922e-06
8.429407309e-06
8.42753316e-06
8.454010592e-06
8.52683465e-06
8.64243093e-06
8.682994929e-06
8.730780841e-06
8.80141309e-06
8.986648843e-06
9.01577053e-06
9.069279487e-06
9.137071598e-06
9.441390138e-06
9.509482573e-06
9.594621555e-06
9.681006752e-06
9.880805596e-06
9.995344236e-06
9.996154157e-06
1.000866252e-05
1.020269343e-05
1.041638116e-05
1.037011606e-05
1.036369138e-05
1.046115965e-05
1.058589555e-05
1.061415215e-05
1.064542696e-05
1.070735157e-05
1.078443592e-05
1.084454092e-05
1.107545346e-05
1.145524258e-05
1.195107894e-05
1.247710478e-05
1.291677509e-05
1.325124562e-05
1.361012589e-05
1.396496489e-05
1.432529937e-05
1.467957943e-05
1.500351672e-05
1.528087691e-05
1.557638517e-05
1.608244949e-05
1.690547512e-05
1.795692056e-05
1.911737399e-05
2.03876242e-05
2.193259243e-05
2.237035964e-05
2.304232312e-05
2.415483501e-05
2.613098498e-05
2.825240784e-05
3.025416244e-05
3.212348844e-05
3.398920726e-05
3.650867921e-05
3.967056536e-05
4.21499989e-05
4.510281557e-05
5.064486948e-05
5.388263589e-05
5.690351255e-05
6.24454346e-05
6.670359142e-05
7.244010026e-05
7.820613055e-05
8.344491975e-05
7.545026889e-05
5.239140952e-05
3.577608499e-05
2.276715212e-05
)


100
(
1.985002613e-06
3.170476677e-06
4.169008725e-06
4.986200439e-06
5.693695501e-06
6.283400858e-06
6.765322794e-06
7.162333758e-06
7.489553721e-06
7.754335788e-06
7.978823329e-06
8.1553619e-06
8.294411368e-06
8.401284774e-06
8.48388768e-06
8.549899675e-06
8.600637137e-06
8.655850419e-06
8.729086007e-06
8.799160492e-06
8.856677441e-06
8.929165172e-06
9.039982368e-06
9.173035905e-06
9.271047617e-06
9.401415326e-06
9.579015607e-06
9.727504352e-06
9.832278788e-06
9.968664729e-06
1.018104986e-05
1.046038597e-05
1.058257591e-05
1.071502156e-05
1.091753581e-05
1.120742845e-05
1.126621907e-05
1.134114291e-05
1.154489252e-05
1.188796826e-05
1.197357829e-05
1.205465923e-05
1.220253025e-05
1.242173074e-05
1.253889229e-05
1.25252105e-05
1.269045204e-05
1.290492416e-05
1.318428184e-05
1.322487886e-05
1.3403823e-05
1.361697447e-05
1.396179926e-05
1.44078809e-05
1.487061501e-05
1.540347923e-05
1.595707271e-05
1.652801736e-05
1.708398038e-05
1.762968586e-05
1.821857893e-05
1.878755704e-05
1.934543653e-05
1.999872136e-05
2.051338819e-05
2.102584985e-05
2.169590169e-05
2.274630216e-05
2.416783956e-05
2.546589351e-05
2.675543425e-05
2.803767116e-05
2.934850588e-05
3.066252553e-05
3.193402119e-05
3.352339301e-05
3.588508367e-05
3.86372526e-05
4.14553949e-05
4.421122898e-05
4.693160588e-05
4.980356947e-05
5.379799415e-05
5.834064384e-05
6.255113736e-05
6.677084467e-05
7.175356095e-05
7.686489922e-05
8.30819234e-05
8.89729282e-05
9.393360426e-05
9.959392952e-05
0.000106215186
0.0001134105088
0.0001211501615
0.0001280624046
0.0001133891578
8.587038653e-05
6.249383297e-05
3.866476599e-05
)


100
(
1.876455551e-06
2.975233425e-06
3.927912751e-06
4.729627011e-06
5.434583418e-06
6.022845171e-06
6.529228507e-06
6.94023035e-06
7.298515193e-06
7.595587078e-06
7.848495034e-06
8.065096196e-06
8.251286851e-06
8.408593195e-06
8.544070598e-06
8.675156857e-06
8.805269149e-06
8.933624137e-06
9.097260326e-06
9.29523818e-06
9.511143865e-06
9.695979267e-06
9.913571314e-06
1.018250206e-05
1.051297367e-05
1.073369219e-05
1.099348251e-05
1.130022286e-05
1.153040502e-05
1.171618238e-05
1.191699479e-05
1.23308375e-05
1.263826823e-05
1.279130069e-05
1.294898333e-05
1.32989549e-05
1.359815872e-05
1.366438611e-05
1.37739689e-05
1.409618238e-05
1.445242697e-05
1.456876244e-05
1.467624372e-05
1.490895963e-05
1.51798752e-05
1.538719337e-05
1.560884461e-05
1.598613445e-05
1.648660553e-05
1.714174722e-05
1.783024577e-05
1.84749239e-05
1.917137149e-05
1.989859765e-05
2.072748062e-05
2.160220884e-05
2.223848347e-05
2.28936327e-05
2.355423151e-05
2.424000091e-05
2.506584987e-05
2.58149468e-05
2.669290383e-05
2.782642048e-05
2.941614832e-05
3.131056302e-05
3.314400812e-05
3.482369865e-05
3.655809338e-05
3.850096866e-05
4.059678628e-05
4.256441642e-05
4.464429725e-05
4.729237151e-05
5.054568128e-05
5.39435286e-05
5.718907536e-05
6.06939271e-05
6.446928215e-05
6.826970105e-05
7.297543113e-05
7.79972783e-05
8.299738713e-05
8.801564061e-05
9.340062974e-05
9.932572926e-05
0.0001051150425
0.0001105945682
0.0001165350503
0.0001228230039
0.0001290842085
0.0001359732171
0.0001432728316
0.0001513632647
0.0001603961126
0.0001676206999
0.0001473281376
0.0001212632129
9.64643922e-05
6.019010331e-05
)


100
(
1.767970182e-06
2.789990881e-06
3.696480887e-06
4.478822599e-06
5.169983592e-06
5.766444997e-06
6.282121169e-06
6.720652708e-06
7.098781504e-06
7.432639453e-06
7.724833139e-06
7.985511694e-06
8.225235564e-06
8.46166266e-06
8.672562532e-06
8.881269469e-06
9.111095642e-06
9.351513856e-06
9.634959064e-06
9.948936787e-06
1.031532116e-05
1.072582152e-05
1.104760471e-05
1.14050915e-05
1.180325429e-05
1.226478996e-05
1.261606934e-05
1.295752235e-05
1.333927957e-05
1.360656384e-05
1.383489553e-05
1.41299364e-05
1.465757971e-05
1.49724896e-05
1.513738354e-05
1.539962133e-05
1.579516709e-05
1.611283018e-05
1.619056693e-05
1.648688188e-05
1.686833758e-05
1.73300709e-05
1.757810428e-05
1.795032952e-05
1.839962502e-05
1.900227908e-05
1.975715517e-05
2.054183004e-05
2.143840815e-05
2.242427982e-05
2.344977746e-05
2.455719457e-05
2.555280582e-05
2.642098712e-05
2.730892101e-05
2.829943913e-05
2.934186945e-05
3.054704064e-05
3.159949914e-05
3.268205948e-05
3.401939536e-05
3.57764852e-05
3.796983591e-05
4.026702312e-05
4.255865403e-05
4.49668293e-05
4.748016719e-05
5.012119796e-05
5.275556718e-05
5.540960831e-05
5.864521057e-05
6.251426341e-05
6.68810314e-05
7.080237289e-05
7.453585063e-05
7.874681912e-05
8.31591325e-05
8.742434543e-05
9.226703963e-05
9.729237307e-05
0.0001022849455
0.0001071514648
0.0001120997751
0.0001179036533
0.0001236164642
0.000129399352
0.0001351257189
0.0001419899873
0.0001480742743
0.0001544538444
0.0001617113702
0.0001695691866
0.0001787428001
0.0001886500154
0.0001982867164
0.0002053227516
0.0001793856809
0.0001532851819
0.000128924223
8.627625984e-05
)


100
(
1.659556434e-06
2.618074527e-06
3.47625312e-06
4.228370803e-06
4.902063849e-06
5.50824372e-06
6.026725494e-06
6.491499052e-06
6.896830635e-06
7.267106573e-06
7.607143767e-06
7.931676279e-06
8.232701925e-06
8.542761227e-06
8.886560115e-06
9.198416418e-06
9.537320744e-06
9.929735502e-06
1.038382699e-05
1.080103609e-05
1.126156771e-05
1.177194027e-05
1.236019611e-05
1.278921794e-05
1.32430738e-05
1.37218916e-05
1.424928701e-05
1.47356691e-05
1.512467251e-05
1.554911794e-05
1.583162164e-05
1.608275382e-05
1.655888218e-05
1.711878415e-05
1.745575975e-05
1.765256484e-05
1.80807769e-05
1.855484033e-05
1.897994974e-05
1.929705738e-05
1.985315835e-05
2.052945645e-05
2.140247973e-05
2.227076027e-05
2.312955459e-05
2.408846875e-05
2.514019711e-05
2.636968988e-05
2.770686584e-05
2.885463138e-05
3.007901906e-05
3.132128597e-05
3.259776505e-05
3.395316536e-05
3.537439646e-05
3.665319223e-05
3.822154915e-05
4.009548146e-05
4.239531054e-05
4.511557724e-05
4.783902648e-05
5.034218107e-05
5.298617153e-05
5.600599353e-05
5.930036734e-05
6.254372472e-05
6.569762295e-05
6.924111862e-05
7.320411854e-05
7.775647213e-05
8.24834439e-05
8.685181981e-05
9.132960496e-05
9.598531788e-05
0.0001005666636
0.0001048742863
0.0001096893594
0.000114629454
0.0001194558103
0.0001241921268
0.0001290888411
0.0001346710365
0.0001403452964
0.0001461865342
0.000152097089
0.0001586708323
0.0001659148347
0.0001731323756
0.0001803382064
0.0001884385755
0.0001969418567
0.0002068884285
0.0002167291551
0.0002283696835
0.0002393038422
0.0002436750869
0.000211439358
0.0001848170352
0.000159115257
0.0001147513452
)


100
(
1.55121373e-06
2.451411038e-06
3.261071725e-06
3.979174404e-06
4.643563133e-06
5.244385756e-06
5.774071262e-06
6.253967356e-06
6.695401125e-06
7.106736913e-06
7.497936293e-06
7.889527853e-06
8.28938154e-06
8.681602975e-06
9.118419855e-06
9.62885101e-06
1.008618993e-05
1.058894208e-05
1.116170936e-05
1.180504121e-05
1.234521824e-05
1.29195914e-05
1.353002202e-05
1.420490471e-05
1.476614158e-05
1.528257025e-05
1.581388949e-05
1.638564719e-05
1.698657816e-05
1.743592658e-05
1.78934272e-05
1.82020964e-05
1.859212953e-05
1.919604791e-05
1.985211e-05
2.028729249e-05
2.076693101e-05
2.141016297e-05
2.219101758e-05
2.306154686e-05
2.398700212e-05
2.504097454e-05
2.624003667e-05
2.756869272e-05
2.913732509e-05
3.050914024e-05
3.180433604e-05
3.315026203e-05
3.464885948e-05
3.626759021e-05
3.805896253e-05
3.959130093e-05
4.129245417e-05
4.319874951e-05
4.537307e-05
4.796422032e-05
5.115144742e-05
5.411692524e-05
5.733613539e-05
6.073121089e-05
6.442937137e-05
6.832794992e-05
7.185808082e-05
7.522066651e-05
7.90681545e-05
8.323240806e-05
8.769271722e-05
9.240160642e-05
9.671564737e-05
0.0001010988812
0.0001060677853
0.0001110432586
0.0001153147435
0.0001199147407
0.0001249378435
0.0001301090169
0.0001350607732
0.0001399983912
0.0001451416397
0.0001507667003
0.0001567955402
0.0001630508826
0.0001692259483
0.0001754450589
0.0001830363935
0.0001906022127
0.0001984607314
0.0002065401388
0.0002154246477
0.000224623229
0.0002350744369
0.0002461796116
0.0002586925234
0.0002719938948
0.0002846808843
0.0002808756222
0.0002434750321
0.0002166157453
0.0001893462384
0.0001442050662
)


100
(
1.456517998e-06
2.290876586e-06
3.051358525e-06
3.735014989e-06
4.387902988e-06
4.977129614e-06
5.520163527e-06
6.013008461e-06
6.487516284e-06
6.950041775e-06
7.404354624e-06
7.864222378e-06
8.362309673e-06
8.885120929e-06
9.418656017e-06
1.002416321e-05
1.072296315e-05
1.133041232e-05
1.198369571e-05
1.269427012e-05
1.349000077e-05
1.412084979e-05
1.477194785e-05
1.545250433e-05
1.618330177e-05
1.687510511e-05
1.744286739e-05
1.802729003e-05
1.864887525e-05
1.930648732e-05
1.994562325e-05
2.047826747e-05
2.078080664e-05
2.155468419e-05
2.238035342e-05
2.335029116e-05
2.423229357e-05
2.523768738e-05
2.634650576e-05
2.762660151e-05
2.916923444e-05
3.070644133e-05
3.221871797e-05
3.384470083e-05
3.555265393e-05
3.744576444e-05
3.947141813e-05
4.126400922e-05
4.297970435e-05
4.501699651e-05
4.726166348e-05
4.982710271e-05
5.283939534e-05
5.592693703e-05
5.919658498e-05
6.274852205e-05
6.651134639e-05
7.095410759e-05
7.546471503e-05
7.923443112e-05
8.316396691e-05
8.740848635e-05
9.178948624e-05
9.63418366e-05
0.0001008702181
0.0001051561637
0.0001094765248
0.0001142305971
0.0001190791663
0.0001230171238
0.0001275955141
0.0001325413121
0.000137943927
0.0001433739513
0.0001487910997
0.0001543905017
0.000160129823
0.0001659311338
0.0001723570958
0.0001790066494
0.0001856777488
0.000192543966
0.0002000960701
0.0002080827992
0.0002162608149
0.0002244623892
0.0002339524784
0.0002436239191
0.0002533844201
0.0002649339338
0.0002768683525
0.0002900484826
0.0003044555485
0.0003192708115
0.0003332425663
0.0003174917437
0.0002764111347
0.0002496561569
0.0002205235818
0.0001746626834
)


100
(
1.377466092e-06
2.137904238e-06
2.848523385e-06
3.506057801e-06
4.133137441e-06
4.714270683e-06
5.261080905e-06
5.775765343e-06
6.277458356e-06
6.787936152e-06
7.322935719e-06
7.85932519e-06
8.439382469e-06
9.092872523e-06
9.76853011e-06
1.045874984e-05
1.122418477e-05
1.208224696e-05
1.282462135e-05
1.358705533e-05
1.439491772e-05
1.526363425e-05
1.60095934e-05
1.672020637e-05
1.745973324e-05
1.824331273e-05
1.906156001e-05
1.972475768e-05
2.039310575e-05
2.11183314e-05
2.191083097e-05
2.281195246e-05
2.364463831e-05
2.445527924e-05
2.559712027e-05
2.689717014e-05
2.834503493e-05
3.002669046e-05
3.149683953e-05
3.311065409e-05
3.485217438e-05
3.683530942e-05
3.904975306e-05
4.104028075e-05
4.302417587e-05
4.517943145e-05
4.757313684e-05
5.019842023e-05
5.31728151e-05
5.6101148e-05
5.925217582e-05
6.27095638e-05
6.65058299e-05
7.078829179e-05
7.580831099e-05
7.993436864e-05
8.401134288e-05
8.839103415e-05
9.305106261e-05
9.78055484e-05
0.0001025714048
0.0001067802784
0.0001110947814
0.0001155005895
0.0001203702701
0.0001254483038
0.0001294788395
0.0001338170859
0.0001385460702
0.0001435939238
0.0001490977292
0.0001546772981
0.000160410506
0.0001663268859
0.0001722838956
0.0001784251255
0.0001856058691
0.0001932349516
0.0002005812523
0.0002078870753
0.0002155277119
0.000223874489
0.0002326720118
0.0002414870313
0.0002505344444
0.0002610197626
0.0002714658392
0.0002818420644
0.0002942493472
0.0003076423975
0.0003217511065
0.0003359495538
0.000351785733
0.0003683107852
0.0003810880776
0.0003539335979
0.0003134829735
0.0002845610846
0.0002539047843
0.0002060084126
)


100
(
1.298471478e-06
1.995791834e-06
2.66014727e-06
3.282664422e-06
3.880992908e-06
4.457229498e-06
4.999946438e-06
5.533392684e-06
6.069681367e-06
6.622902518e-06
7.219025629e-06
7.876000481e-06
8.530001943e-06
9.260547672e-06
1.008143201e-05
1.090142538e-05
1.172788292e-05
1.261662668e-05
1.359016445e-05
1.444714239e-05
1.52849504e-05
1.616341105e-05
1.709110831e-05
1.796072853e-05
1.873514457e-05
1.954812609e-05
2.041295945e-05
2.13369145e-05
2.225921977e-05
2.311217039e-05
2.407750451e-05
2.517842015e-05
2.646579506e-05
2.801438878e-05
2.947273991e-05
3.108284334e-05
3.287764331e-05
3.484601874e-05
3.714965379e-05
3.93845362e-05
4.140689761e-05
4.354207107e-05
4.597650465e-05
4.864820941e-05
5.15999725e-05
5.435026547e-05
5.730850412e-05
6.06795542e-05
6.443156823e-05
6.854528824e-05
7.329413388e-05
7.770661963e-05
8.196328379e-05
8.633636232e-05
9.121569841e-05
9.631646971e-05
0.0001014088691
0.0001054374058
0.0001099207992
0.0001144580694
0.0001189611994
0.0001239415966
0.0001288303469
0.000133115194
0.0001375851098
0.0001426305196
0.0001478733082
0.0001530423281
0.0001585141906
0.0001643084892
0.000170389404
0.0001766013722
0.0001827899401
0.0001892278233
0.0001961977207
0.0002040432766
0.0002122249371
0.0002203941848
0.0002285954387
0.0002367578109
0.0002461145031
0.0002557855896
0.0002654885835
0.0002755365708
0.0002864544215
0.0002977184391
0.0003090381557
0.000321928747
0.0003363990068
0.0003503978752
0.000366057428
0.0003819964705
0.0004003050526
0.000417575578
0.0004271945886
0.000392766092
0.000353173141
0.0003232385752
0.0002909420385
0.0002409951674
)


100
(
1.219526538e-06
1.863673283e-06
2.481211609e-06
3.065767536e-06
3.638516238e-06
4.200397907e-06
4.742719806e-06
5.286611664e-06
5.854148507e-06
6.462206737e-06
7.107844152e-06
7.833193565e-06
8.627715006e-06
9.42190915e-06
1.029830982e-05
1.126765223e-05
1.220702216e-05
1.313670207e-05
1.411980904e-05
1.517120691e-05
1.613538922e-05
1.703683078e-05
1.798254621e-05
1.897718383e-05
2.000753657e-05
2.088349223e-05
2.182686068e-05
2.28614265e-05
2.401230098e-05
2.53286141e-05
2.662450112e-05
2.802577507e-05
2.96312706e-05
3.146341429e-05
3.359745731e-05
3.593709086e-05
3.805861162e-05
4.032945101e-05
4.275431502e-05
4.552676211e-05
4.852902177e-05
5.131695161e-05
5.39921201e-05
5.712872591e-05
6.058594536e-05
6.443581179e-05
6.875616293e-05
7.30751061e-05
7.745967177e-05
8.210294039e-05
8.688751011e-05
9.22144969e-05
9.761274928e-05
0.0001018364722
0.0001060775917
0.000110825002
0.0001155822193
0.0001204200948
0.0001253774775
0.0001297342145
0.000134210405
0.0001388229645
0.000144253065
0.0001498104044
0.00015440226
0.0001597402459
0.0001655431007
0.0001718169775
0.0001783505111
0.0001848306048
0.0001914611762
0.0001983780003
0.0002055344018
0.0002130444839
0.00022107891
0.0002294756875
0.0002380792926
0.0002469675737
0.0002564273183
0.000266798302
0.000277367075
0.0002875881885
0.0002980291208
0.000309841959
0.0003222269352
0.0003347434124
0.000347532108
0.0003614704343
0.0003760257739
0.0003923919256
0.0004091444157
0.0004271308398
0.0004467874834
0.0004661009817
0.0004727722664
0.0004338833612
0.0003949287296
0.0003643407799
0.0003312195462
0.0002768689105
)


100
(
1.140623954e-06
1.73809918e-06
2.310714996e-06
2.856696625e-06
3.406904873e-06
3.94611458e-06
4.488197672e-06
5.040940828e-06
5.631104825e-06
6.284514318e-06
6.998747353e-06
7.774413807e-06
8.643037494e-06
9.573052517e-06
1.049535511e-05
1.149182166e-05
1.257574236e-05
1.361719199e-05
1.462600694e-05
1.568508154e-05
1.680168827e-05
1.788621646e-05
1.886252598e-05
1.989943162e-05
2.100335934e-05
2.218912359e-05
2.336187998e-05
2.456698873e-05
2.5937179e-05
2.750087919e-05
2.930606266e-05
3.140819594e-05
3.336800135e-05
3.552577015e-05
3.788737044e-05
4.056286085e-05
4.362309606e-05
4.647820996e-05
4.922735718e-05
5.219657257e-05
5.555925706e-05
5.922104674e-05
6.326301351e-05
6.70757249e-05
7.120072663e-05
7.563328735e-05
8.03655123e-05
8.543381514e-05
9.131079082e-05
9.612319301e-05
0.0001007976992
0.0001054941819
0.0001104645546
0.0001153459683
0.0001201069903
0.0001243659011
0.000128928136
0.0001336071473
0.0001384113707
0.0001440620891
0.0001490908926
0.0001537141653
0.0001590264804
0.000164805218
0.0001709489335
0.000177495471
0.0001840769637
0.0001907974561
0.0001977633653
0.0002048787857
0.0002119599168
0.0002193926951
0.0002279381992
0.0002368878159
0.0002458727352
0.0002550488507
0.0002646146307
0.0002744291003
0.0002851490531
0.000296215375
0.0003073921141
0.0003188050491
0.0003315275001
0.0003446857298
0.0003575621781
0.0003712676002
0.0003859872446
0.0004015330328
0.0004179037815
0.0004337382277
0.0004524992043
0.0004715921854
0.0004914115738
0.0005113056937
0.0005147244178
0.0004756316898
0.0004371490009
0.0004066587189
0.0003729354647
0.0003142323518
)


100
(
1.074648357e-06
1.619382579e-06
2.148681181e-06
2.660944796e-06
3.181766501e-06
3.699293467e-06
4.233448072e-06
4.795565945e-06
5.406281748e-06
6.090755908e-06
6.871453019e-06
7.708157659e-06
8.618690751e-06
9.623638454e-06
1.066759565e-05
1.16940906e-05
1.278363515e-05
1.395716532e-05
1.509625535e-05
1.617502821e-05
1.73086345e-05
1.850278897e-05
1.974858033e-05
2.084950655e-05
2.204612243e-05
2.336144916e-05
2.483442853e-05
2.652946214e-05
2.818509884e-05
3.006299216e-05
3.218873857e-05
3.457777765e-05
3.737630357e-05
4.015022687e-05
4.28253823e-05
4.568498726e-05
4.890927118e-05
5.251481031e-05
5.644182504e-05
5.999317621e-05
6.369731133e-05
6.78838237e-05
7.243251768e-05
7.735269098e-05
8.273172979e-05
8.783285511e-05
9.278647485e-05
9.781150326e-05
0.0001030318341
0.0001085572914
0.0001138825164
0.000118072581
0.0001224647222
0.0001270855509
0.0001318057649
0.0001365864787
0.0001419364027
0.0001467555475
0.0001517070476
0.000157093693
0.000162975661
0.0001690226913
0.0001743613287
0.0001806206114
0.0001873968103
0.0001945615438
0.0002019220976
0.0002092636429
0.0002168021136
0.0002246458968
0.0002330075537
0.000242211208
0.0002513491938
0.0002607719993
0.0002703475506
0.0002800978722
0.0002905716468
0.0003019091007
0.0003138663065
0.0003261555468
0.0003381421763
0.0003509112065
0.0003641864448
0.0003782682958
0.0003929638745
0.0004095399703
0.0004253418085
0.0004410594575
0.00045832898
0.0004761954157
0.0004953377508
0.0005179288267
0.0005374285623
0.0005578601298
0.0005543617044
0.0005158791735
0.000479193597
0.0004487376735
0.0004148795834
0.0003521560624
)


100
(
1.017452114e-06
1.508440717e-06
1.99653022e-06
2.476197896e-06
2.964341507e-06
3.463977628e-06
3.982474053e-06
4.547269945e-06
5.181482695e-06
5.890057757e-06
6.702548021e-06
7.627354628e-06
8.574330545e-06
9.603729697e-06
1.072371351e-05
1.18608144e-05
1.297157396e-05
1.414431126e-05
1.539127242e-05
1.663882413e-05
1.779714641e-05
1.903095622e-05
2.034910016e-05
2.176711419e-05
2.318644176e-05
2.468113131e-05
2.637710093e-05
2.831685777e-05
3.05534138e-05
3.304122521e-05
3.551174019e-05
3.821938889e-05
4.116512497e-05
4.455958708e-05
4.83081482e-05
5.158391606e-05
5.499978202e-05
5.889891623e-05
6.32019576e-05
6.78854326e-05
7.298701147e-05
7.768770539e-05
8.261354047e-05
8.775509089e-05
9.307595163e-05
9.890547104e-05
0.0001050089153
0.0001097161754
0.0001143256665
0.0001191695104
0.0001240877953
0.0001290127494
0.0001339250774
0.0001384807732
0.0001432064854
0.0001481487023
0.0001536750646
0.0001598876251
0.0001652426654
0.0001704811201
0.0001766312968
0.0001830966151
0.0001900224538
0.0001972767775
0.0002047819304
0.0002122532467
0.0002199715831
0.0002279281193
0.0002359275274
0.000244536009
0.0002540521545
0.0002639564622
0.0002740174142
0.0002842800754
0.0002949348827
0.0003064858144
0.0003180332934
0.0003298474972
0.0003420209208
0.0003548006682
0.0003685801144
0.0003833950378
0.0003977441289
0.0004120286226
0.000428380795
0.0004451213128
0.0004620851864
0.0004798122606
0.0004979891744
0.0005171864878
0.0005368057144
0.0005586060675
0.0005807111839
0.0006000451615
0.0005939769988
0.0005538018751
0.0005188576658
0.0004896707441
0.0004560969915
0.0003891953963
)


100
(
9.602910406e-07
1.407082141e-06
1.855864267e-06
2.300744982e-06
2.756987406e-06
3.234864921e-06
3.739494183e-06
4.29895234e-06
4.94240694e-06
5.688711702e-06
6.516598027e-06
7.459672307e-06
8.508996573e-06
9.553333702e-06
1.067805419e-05
1.189019755e-05
1.311384177e-05
1.430042456e-05
1.555405759e-05
1.688212645e-05
1.826890053e-05
1.955344216e-05
2.095284745e-05
2.249436347e-05
2.422143364e-05
2.6175665e-05