/*--------------------------------*- C++ -*----------------------------------*\
| =========                 |                                                 |
| \\      /  F ield         | OpenFOAM: The Open Source CFD Toolbox           |
|  \\    /   O peration     | Version:  2.3.1                                 |
|   \\  /    A nd           | Web:      www.OpenFOAM.org                      |
|    \\/     M anipulation  |                                                 |
\*---------------------------------------------------------------------------*/
FoamFile
{
    version     2.0;
    format      ascii;
    class       dictionary;
    location    "constant";
    object      CO2;
}
// * * * * * * * * * * * * * * * * * * * * * * * * * * * * * * * * * * * * * //

CO2_table
100
(

100
(
0.08354258694
0.07677965649
0.07222394214
0.06876411632
0.06581006529
0.06321843774
0.06090250276
0.05879150632
0.05682677954
0.05497162695
0.05321728545
0.05155688235
0.04998354499
0.04849040066
0.0470705767
0.0457172004
0.0444233991
0.04318230011
0.04198703074
0.04083071831
0.03970691413
0.03861273086
0.03754706167
0.03650881293
0.03549689099
0.03451020223
0.03354765301
0.03260814968
0.03169059862
0.03079390618
0.02991697874
0.02905876032
0.0282186917
0.02739656446
0.02659217754
0.02580532989
0.02503582046
0.02428344819
0.02354801203
0.02282930874
0.02212700089
0.02144054179
0.02076936655
0.02011291031
0.01947060818
0.0188418953
0.0182262068
0.01762297779
0.01703164341
0.01645163878
0.01588239902
0.01532336007
0.01477412117
0.01423464349
0.0137049368
0.01318501083
0.01267487535
0.0121745401
0.01168401485
0.01120330933
0.0107324333
0.01027139652
0.009820208739
0.009378878604
0.008947389166
0.008525697748
0.008113760545
0.007711533749
0.007318973556
0.00693603616
0.006562677755
0.006198854535
0.005844522695
0.005499638428
0.005164157928
0.004838037391
0.004521233248
0.004213743362
0.00391565392
0.003627062451
0.003348066482
0.003078763542
0.002819251157
0.002569626855
0.002329988165
0.002100432614
0.001881057729
0.001671961039
0.001473240071
0.001284992353
0.001107315413
0.0009403067774
0.0007840639753
0.0006386845341
0.0005042659813
0.0003809058448
0.0002687016524
0.0001677509316
7.815121032e-05
1.620565205e-11
)


100
(
0.08432823253
0.07764074372
0.07315476385
0.06974090371
0.0668076522
0.06422224127
0.06197908317
0.05984254917
0.05792818373
0.05606788338
0.05432382123
0.052697081
0.05112150895
0.04965589256
0.04826211756
0.04689979683
0.04561789204
0.04442695476
0.04321292463
0.04205875956
0.04097517511
0.03988887109
0.03881577994
0.03778890458
0.03681815551
0.03581825571
0.0348554121
0.03393068189
0.03305837326
0.03214222091
0.03126283773
0.030418038
0.02960792824
0.02877738707
0.02797347897
0.02719462506
0.02645431791
0.02571177621
0.02496259827
0.02424673973
0.02356400335
0.02289686943
0.02221465424
0.02156030347
0.0209299778
0.02032082697
0.01969812884
0.01909447312
0.01851181386
0.01795334696
0.01738934467
0.01682057071
0.01627636493
0.01575199026
0.01523013629
0.01470457578
0.01419876526
0.01370877226
0.01322346987
0.0127418728
0.01226167569
0.01182688972
0.01138897629
0.01092705011
0.01049069735
0.01009839311
0.009699321895
0.009259663563
0.008889630735
0.008522880783
0.008143640459
0.007763714046
0.007436927396
0.007099118393
0.006738938387
0.006424795876
0.006132606261
0.005799241905
0.005507331167
0.005240616747
0.004937411302
0.004684189893
0.004427416348
0.004164068211
0.003945575729
0.003702677086
0.003486915521
0.003282550653
0.003077104504
0.002895101108
0.002713451386
0.002547912004
0.002389479491
0.00224469679
0.002108726846
0.001984837954
0.001871171479
0.001768113624
0.001676129955
0.001590287862
)


100
(
0.08511387812
0.07850942321
0.07409577789
0.07073267028
0.06778327001
0.0652479791
0.06298032757
0.06091977057
0.05897934667
0.05719468844
0.05543661326
0.05383477019
0.05228258246
0.05080516639
0.04944631104
0.04811489642
0.0468204233
0.04561526099
0.04448267772
0.04330947239
0.04220183301
0.04115536568
0.04011789904
0.03907472327
0.03808315287
0.03713990935
0.03618975269
0.03525264438
0.03435449499
0.03349799491
0.03264298551
0.03177964895
0.03095426275
0.03016079982
0.02938089827
0.02859394663
0.02783480434
0.02710340203
0.02640381926
0.02569588724
0.02498869577
0.0243144893
0.0236663108
0.0230416167
0.0223915189
0.02177048863
0.02117078595
0.0205892725
0.02000380686
0.01942649529
0.01886900847
0.01832658393
0.01780616153
0.01725832494
0.01673205491
0.01621492206
0.01574581439
0.01523187477
0.01474638344
0.01426793213
0.01382869234
0.01334432778
0.01292016268
0.0124995965
0.01206445525
0.01162963127
0.01124414601
0.01086764527
0.01044742968
0.01008083513
0.009721520883
0.00937359789
0.009003859424
0.008670589484
0.008352214437
0.008027777219
0.007689919267
0.007403916182
0.00712147288
0.006818456232
0.006555971031
0.0062734326
0.006038855443
0.005769699126
0.005538838636
0.005317701738
0.005090398473
0.004886199001
0.004688647074
0.00449845276
0.004320697118
0.004152986712
0.003996710507
0.003849284869
0.003713999134
0.003588445816
0.003474876599
0.003371418104
0.003270206431
0.003180575707
)


100
(
0.08589952371
0.07938084364
0.07504626985
0.07166982231
0.06877721062
0.0662943188
0.06400783943
0.06201370286
0.06005888017
0.05828226482
0.05657136648
0.05494703053
0.0534617089
0.0519793348
0.05059869242
0.04932269291
0.04805186629
0.04682605792
0.04567744597
0.04459939496
0.04346762147
0.04239758023
0.04138124906
0.04039848015
0.03938636996
0.03842445273
0.037505144
0.03660949685
0.03569688741
0.03482134305
0.03397972702
0.03317601705
0.03234145991
0.03153214775
0.03075496202
0.03000461531
0.0292578973
0.02851465546
0.02779919937
0.02710887793
0.02644763282
0.02578362017
0.0251119568
0.02446890199
0.02384205842
0.02326180573
0.02263841751
0.02204544893
0.02145955355
0.02094050209
0.0203611526
0.01981118471
0.01926845169
0.01878181425
0.01825264318
0.01772584183
0.0172168893
0.01677981214
0.01629265328
0.01579669905
0.0153472938
0.01492446557
0.0144611605
0.01403832678
0.01362542988
0.01321834148
0.01280195795
0.01241619384
0.01204042768
0.01167275135
0.01129766312
0.01094002484
0.01059302553
0.01025920305
0.009938802597
0.009617095329
0.009280274771
0.009001541579
0.008728071702
0.008406164729
0.008146644056
0.00789267039
0.007621220216
0.007382844463
0.00714674741
0.006919082216
0.006699206836
0.006491028753
0.006293252197
0.006105963548
0.005927574161
0.005759798402
0.005602086399
0.005456325426
0.005318675543
0.005192156342
0.005074414598
0.004976809686
0.004867568609
0.004770863552
)


100
(
0.0866851693
0.08023211719
0.07594879139
0.07262461165
0.06978433045
0.0672861269
0.06505666541
0.06303611507
0.06116487728
0.05935977914
0.05772289632
0.05608784947
0.05457978658
0.05317789168
0.05178214654
0.05048416663
0.049278184
0.04806980399
0.04690144577
0.04579898162
0.04475954493
0.04368070103
0.04264321854
0.04165553464
0.04071883859
0.03974866584
0.03881358248
0.03791768808
0.03705920866
0.03618802979
0.03533308082
0.03451002911
0.03371876927
0.03295460227
0.03215288325
0.03138753963
0.03064189951
0.02995329156
0.02922093508
0.02852191779
0.02784507046
0.0271968052
0.0265739383
0.02591390569
0.02527818568
0.02467311069
0.02414923696
0.02352479463
0.0229346907
0.02238120428
0.02188367211
0.02132081685
0.02077100368
0.02025970501
0.01978002928
0.01926304823
0.01873889241
0.01828272879
0.01783067471
0.01736691019
0.01689478757
0.01645577187
0.01603311911
0.01560739087
0.01518009616
0.01476955767
0.01436902519
0.01399211489
0.01360541676
0.01323196609
0.01287084894
0.01252234965
0.01218826486
0.01184296342
0.01149570152
0.01120113826
0.01091179042
0.0105856649
0.01029629694
0.01002254729
0.00975491116
0.009491973924
0.009228614696
0.008983144923
0.00874919233
0.008518330389
0.008306235488
0.008097718744
0.007901675102
0.007708825618
0.007534062829
0.007368183432
0.007207953195
0.007061523989
0.006923057316
0.006795076204
0.006676764879
0.006570522407
0.006465653929
0.006361151397
)


100
(
0.08747081488
0.08109290599
0.07686422669
0.07358932058
0.07080002651
0.06829498677
0.06612588691
0.06408622146
0.06226130089
0.0604673749
0.05880249026
0.05725620889
0.05572735028
0.05432078894
0.05299172322
0.05167864055
0.05045197598
0.04930694431
0.04815900205
0.0470382611
0.04597467738
0.04496774987
0.04394541471
0.04293771368
0.04197913588
0.04106935642
0.04016424601
0.03925629344
0.03837736343
0.03752813984
0.03671200172
0.03587076475
0.0350626643
0.03427982569
0.03356490587
0.03277911059
0.03203019502
0.0312894936
0.03067591937
0.02995594417
0.02927371306
0.02860813709
0.02801132634
0.0273964016
0.02674625369
0.02611197701
0.02557229283
0.02505586314
0.02443154394
0.02385694172
0.02334181365
0.02283935603
0.02229494979
0.02176899414
0.02127405261
0.02079308843
0.02029724731
0.0198311257
0.01935490649
0.01889284522
0.01845359635
0.01801842671
0.01756917909
0.01713882265
0.01673134892
0.01634209502
0.01594521296
0.0155485942
0.01517532607
0.01481067388
0.01446349074
0.01410448901
0.01375866862
0.01342278654
0.01311737043
0.01277616428
0.01248484457
0.01218854152
0.01190939816
0.01162557127
0.01134252926
0.01107710581
0.01083987237
0.01058659608
0.01035371891
0.01012728419
0.009908214391
0.00970255172
0.009505297677
0.009321597426
0.009141412267
0.0089722067
0.008814579374
0.008666325676
0.008527523191
0.008399678307
0.008282387726
0.008171529304
0.008063906174
0.007951439243
)


100
(
0.08825646047
0.08196101164
0.07778912685
0.07456580297
0.07176515435
0.06932091716
0.06714995187
0.06515888436
0.06331041156
0.06160325077
0.05991405539
0.05837485331
0.0569029207
0.0554764454
0.05415945207
0.05289973705
0.05165877953
0.05049424093
0.04940101254
0.04831039217
0.04722859602
0.04619978869
0.04522213313
0.04425796911
0.04327770465
0.04234758287
0.04146720921
0.04058711756
0.03970118347
0.03884370184
0.03802814279
0.03726089926
0.03643686631
0.03564651609
0.03490262133
0.03421675828
0.03344556859
0.03270333274
0.03202620092
0.03142311162
0.03072197658
0.03004888911
0.02942267231
0.02884357966
0.02823885958
0.02758538381
0.02702778596
0.02648099558
0.02596629596
0.02536097865
0.02483924253
0.02432190744
0.02382344071
0.02331578142
0.02279698353
0.02229888173
0.02181419614
0.02135027518
0.02089134491
0.02042591945
0.01997324764
0.01954016388
0.0191219569
0.01872449956
0.01829591268
0.01789436579
0.01750968834
0.01712426566
0.01676479982
0.01638812907
0.01602161326
0.01567327424
0.01534885875
0.01501755799
0.01469118652
0.01438889099
0.01407770146
0.01378600134
0.01348852405
0.01321022485
0.01295073111
0.0126862724
0.01243239225
0.01218998414
0.01195473483
0.01173037587
0.01151769934
0.01130897809
0.01111001617
0.01092434841
0.0107479547
0.01057729789
0.01041854516
0.01026990374
0.01012983074
0.009999410886
0.00989178987
0.009775997722
0.009662931799
0.009541727088
)


100
(
0.08904210606
0.08283867917
0.07872490773
0.07552377919
0.07274843111
0.07036310508
0.06817800597
0.06625266932
0.06438709171
0.0626859682
0.06105493838
0.05948995065
0.05806146315
0.05666058541
0.05532455819
0.05408570387
0.05289195607
0.05171322061
0.05060261718
0.04955125651
0.04851510484
0.0474679383
0.04647201529
0.04552220777
0.04461520565
0.04366204247
0.04276091805
0.04191226102
0.04105192812
0.04019267959
0.0393475078
0.03861054107
0.03784349161
0.03703704147
0.0362586507
0.03557677262
0.03489618088
0.03413655752
0.03341579943
0.03279361781
0.03219313863
0.03151328624
0.0308590323
0.03026805972
0.02969484131
0.02909390543
0.02850387332
0.02795924798
0.02742372943
0.02689981475
0.02636272984
0.02582168539
0.02529902312
0.02478695633
0.02430668833
0.02384769921
0.0233446842
0.02286509212
0.02240867378
0.02196573036
0.021538458
0.02109038113
0.02067013576
0.02026199714
0.0198542905
0.01946566743
0.01908164681
0.01868590061
0.01830079227
0.01795517625
0.01762024448
0.01726694327
0.01693329436
0.01660273413
0.01628198179
0.01597814903
0.01565820309
0.01536962177
0.01509672171
0.01481954394
0.01454522118
0.01428472079
0.01403261481
0.01379081213
0.01356012795
0.01333833355
0.01312171808
0.01291809263
0.01271744944
0.01253364557
0.01235859052
0.01218676366
0.01202722525
0.0118765579
0.01173653146
0.01160537435
0.01149462186
0.01137898685
0.01126330275
0.01113201493
)


100
(
0.08982775165
0.08371602606
0.0796498663
0.0764703184
0.07374477187
0.07136965436
0.06922519539
0.06729003266
0.06548732696
0.06376526617
0.06219544927
0.060636793
0.05918231706
0.05785061607
0.05651867141
0.0552618657
0.05408971375
0.05296040237
0.0518368484
0.05076939765
0.04975321486
0.04877197165
0.04775763758
0.04679267006
0.04587040401
0.04499768457
0.04409365755
0.04321743106
0.04239757452
0.04155541231
0.04071477297
0.03990951568
0.03921686911
0.03845577869
0.0376627615
0.03693435937
0.03627222011
0.03560016953
0.03484507071
0.0342006262
0.03357982914
0.03298861427
0.03232882581
0.03172460552
0.03114125943
0.03057785922
0.03001595868
0.02944489942
0.02889060704
0.02835090307
0.02782666675
0.02732893486
0.02682465701
0.02630545591
0.02579949451
0.02532898852
0.02486793506
0.02442721292
0.0239597172
0.02350755318
0.02307568717
0.02263955848
0.0222249276
0.02181812773
0.02140551217
0.02100615578
0.02062800062
0.02026723334
0.01989992226
0.01953155573
0.01919027885
0.01883966911
0.01852279662
0.01818815092
0.01785120653
0.01755719703
0.01727278303
0.01697782815
0.01668691378
0.01641033831
0.01614388891
0.01588589061
0.01563956515
0.0153982173
0.01516473705
0.01493969403
0.01472744966
0.01451913231
0.01432731842
0.01413884872
0.01395724258
0.01378851649
0.01362910043
0.01348158841
0.0133398475
0.01320952523
0.01309592376
0.01298321319
0.01286135431
0.01272230278
)


100
(
0.09061339724
0.08457854161
0.08055930956
0.0774292255
0.07475496769
0.07237150148
0.07029061732
0.06834145184
0.06658953012
0.06487137718
0.06327863947
0.0618135997
0.06033744025
0.05898011712
0.05773212238
0.0564673731
0.05527933986
0.05416691678
0.05309792891
0.05201868673
0.05098936271
0.05000487313
0.04907886927
0.04809705302
0.04716138394
0.04626511678
0.045414002
0.04457073226
0.04371521797
0.04291946691
0.04208965443
0.04126080032
0.04053320405
0.03984612217
0.0390956219
0.03831796732
0.03764627437
0.03699167416
0.03632502219
0.03562847502
0.03501012701
0.03440196614
0.03382372299
0.03321403438
0.03260409227
0.03201928959
0.03145066044
0.03091214541
0.03039240344
0.0298439525
0.02931601442
0.02880316213
0.02830803154
0.02782830946
0.02735259243
0.02685067316
0.02638810926
0.02593633362
0.02548662699
0.02505659443
0.02462627345
0.02418219447
0.0237526503
0.02335647731
0.02297523438
0.02258715102
0.02219640053
0.02183260835
0.02146563716
0.02111140239
0.02077052728
0.02041381214
0.02008017317
0.01977178003
0.01947123385
0.0191565925
0.01885308083
0.01856289356
0.01828095021
0.01800783413
0.01774704459
0.01749247826
0.01723816665
0.01699427581
0.01676637997
0.01654497305
0.01633226554
0.01613477695
0.01593507269
0.01574803485
0.01556979975
0.01539746385
0.01523548628
0.01508630396
0.01493592165
0.01481333881
0.01470075197
0.0145826389
0.01445924796
0.01431259062
)


100
(
0.09139904283
0.08544825488
0.08147932203
0.07839860598
0.07573374678
0.07339009481
0.07132391647
0.06941290677
0.06764400127
0.06600096363
0.06439155804
0.06291494405
0.0615240431
0.06014504711
0.05887173295
0.05769785816
0.05649717737
0.05536925959
0.05430494899
0.05329616558
0.05225470643
0.05125942343
0.05030642988
0.04940855326
0.048485331
0.04757542193
0.0467037952
0.0458730435
0.04508146677
0.04425289709
0.04347699699
0.04265368618
0.04187729214
0.04117881054
0.04050162436
0.03975985858
0.03904789238
0.03838521489
0.03774424737
0.03710738042
0.03646628172
0.0358356004
0.03522375759
0.03463127684
0.03408116873
0.03350458366
0.03292812243
0.03236901596
0.03184353707
0.03133328378
0.0308412425
0.03031436007
0.02981127278
0.0293248154
0.02885182376
0.02838450009
0.0279382655
0.02746357136
0.02700880954
0.02656568517
0.02614656686
0.02574867041
0.02533136579
0.02490945089
0.02452585216
0.02415467839
0.02376941268
0.02340580692
0.02302695803
0.02265789294
0.02233489951
0.02202305733
0.02167992056
0.02136152448
0.02104357032
0.02074277417
0.02044467782
0.02015805309
0.01988345995
0.01961366556
0.01934272131
0.01908455514
0.0188364681
0.01860025856
0.01837091406
0.01815336101
0.01793570413
0.01772830787
0.01753485675
0.01734906395
0.01716810184
0.01699827515
0.01683757571
0.01668208086
0.01653887952
0.01641397658
0.0162939477
0.01618262263
0.0160546295
0.01590287847
)


100
(
0.09218468842
0.08632245444
0.08240817622
0.0793736667
0.0767141
0.07442390022
0.07234754578
0.07050371695
0.06872217719
0.0670905259
0.06552982388
0.06403513089
0.06266162975
0.06134111391
0.06004672187
0.05884657529
0.05774376751
0.05660287824
0.05552522984
0.0545022267
0.0535482042
0.05254208927
0.05157917065
0.0506570728
0.0497828682
0.04892035915
0.04803346607
0.04718580218
0.04637598724
0.04560012305
0.04483965144
0.04406948997
0.04324709669
0.04254851299
0.04185431975
0.04119017512
0.04049189545
0.03981807803
0.03915000888
0.03850516717
0.0378959512
0.03728297342
0.03666822836
0.03607415082
0.03549760796
0.03495246419
0.03443056913
0.03387908337
0.03332263036
0.03281092458
0.03230897616
0.03182051769
0.03135094681
0.03085262301
0.03036164495
0.02988631456
0.02941771506
0.02899284658
0.02857361092
0.02811587523
0.027682852
0.02727517103
0.02688135763
0.02649559356
0.02609848193
0.02569650752
0.02530822407
0.02495694923
0.02462791584
0.02424203143
0.02391370697
0.02358841119
0.02326190953
0.02294548703
0.02263695062
0.02234123645
0.0220525802
0.02175984119
0.02147145144
0.02119702212
0.02093588996
0.02068717815
0.02044627208
0.02020841353
0.01997224772
0.01975189087
0.01953744273
0.01934095709
0.01914062813
0.01895336152
0.0187760645
0.01860137422
0.01844020568
0.01828621453
0.01814812242
0.01803893205
0.01790481003
0.01778409262
0.01765234902
0.01749316631
)


100
(
0.09297033401
0.08720254792
0.08334551166
0.08031582807
0.07770730295
0.07544399654
0.07338970979
0.07154601168
0.06982151459
0.06817471604
0.06666488908
0.06518196317
0.06378876119
0.06250527584
0.06125428378
0.06003601006
0.05890075511
0.05785887342
0.05677644245
0.05574026411
0.05475552888
0.05383110635
0.05287974007
0.05194583801
0.05105276218
0.05020132462
0.04939019701
0.04853626998
0.04771051288
0.04692017436
0.04616028117
0.04543890075
0.04469412023
0.04393409247
0.04324876685
0.04256753543
0.04189247861
0.04125006952
0.0405700472
0.03992160699
0.03929363686
0.03870081275
0.03813707434
0.03754697018
0.03696284389
0.03640200855
0.03586580537
0.03534527635
0.03484673292
0.03432755858
0.03382165325
0.03331143679
0.03281355546
0.03233602064
0.031908933
0.03142301459
0.03094862958
0.03050179887
0.0300787144
0.02966696025
0.02927279249
0.02884249699
0.02841965186
0.02800818453
0.02763465525
0.02729182049
0.02688441559
0.02651675732
0.02617510051
0.02584240886
0.02550103953
0.02516498407
0.02483871628
0.02452441291
0.02421623997
0.02391344395
0.02362109812
0.02334461961
0.02306761865
0.02280357404
0.0225504549
0.02228879563
0.02203634495
0.02179697009
0.02158002663
0.02136696384
0.02114493349
0.02093766364
0.02074714103
0.02056351702
0.02038553983
0.0202140492
0.02005349217
0.01990562156
0.0197633301
0.01964792055
0.01953723676
0.01938601956
0.01925018871
0.01908345416
)


100
(
0.09375597959
0.08807926127
0.08426210759
0.08127099883
0.07871215625
0.07644563972
0.07444864201
0.07259513048
0.07092249859
0.06928244309
0.06775638784
0.06635192668
0.06494482851
0.06364271145
0.06244207459
0.0612574425
0.06010561866
0.05902650387
0.05803563686
0.05701006678
0.05600822224
0.05505787335
0.05416029541
0.0532656366
0.0523583969
0.05149250648
0.05066470569
0.04987193969
0.04908505987
0.04827751414
0.04750680701
0.04676470605
0.04605227099
0.04536998827
0.04464515122
0.04394475592
0.04326669547
0.04261071699
0.04199945558
0.04138029852
0.04074091774
0.04012451454
0.03954751433
0.03898994257
0.03845266192
0.03788952162
0.03734205393
0.03681854238
0.03630920791
0.0357987321
0.0353228109
0.03482235849
0.03432093431
0.03382871714
0.03337552555
0.03294030477
0.03252476787
0.03204717824
0.0316250424
0.03120758893
0.0307719183
0.03038051489
0.0299918687
0.02956843624
0.02917082017
0.02881674988
0.02847367011
0.02812287983
0.02775792913
0.02740623892
0.02706791006
0.02674061328
0.02641714367
0.02610730418
0.02580552597
0.02550951249
0.02522799877
0.02494169082
0.02466950994
0.02439469901
0.02412712071
0.02387967616
0.02364484072
0.02342408373
0.02318003778
0.02294732999
0.02274875888
0.02254986151
0.02235657287
0.02216544663
0.02198229367
0.02181122307
0.02165120394
0.02148319764
0.02136083833
0.02124887759
0.02113149866
0.02098764165
0.02084946638
0.02067374201
)


100
(
0.09454162518
0.08895066015
0.08518151882
0.08223467376
0.07970432497
0.07746249015
0.07549090283
0.07366317651
0.07197778483
0.07041193456
0.06887316817
0.06745235504
0.06612721117
0.06481122173
0.06358939099
0.06246334357
0.06134198083
0.06024747126
0.05921978292
0.05826696393
0.0572971205
0.05632584104
0.05540732725
0.05453476584
0.05369914004
0.05281702212
0.05197720911
0.0511720087
0.05039772615
0.04965772314
0.04889062787
0.04813879667
0.04740538962
0.04669754483
0.0460231375
0.04536927986
0.04467985974
0.0440177678
0.04337785531
0.04277770954
0.04220258186
0.04160291958
0.04099348946
0.0404310524
0.03988472892
0.03935542683
0.03884709638
0.03831353618
0.03778416962
0.03727294061
0.03677318525
0.0363082687
0.0358658668
0.03536487581
0.03488041624
0.03444537851
0.03401577919
0.03360365327
0.03318788225
0.03273561167
0.03230475127
0.03188188715
0.03151908696
0.03117014734
0.03074638927
0.03038464049
0.03002511211
0.02966757271
0.02932526482
0.02898331315
0.02865427376
0.02833805685
0.02802886445
0.0277048456
0.02739273849
0.02709093671
0.02680090964
0.02652614773
0.02625928134
0.0259983865
0.02575184929
0.02548863996
0.02524477735
0.02499682991
0.02478095723
0.02457901773
0.02435606946
0.02414724354
0.02395059462
0.02376977951
0.02358849519
0.02342054104
0.02323713562
0.02310049664
0.02298567266
0.02285087865
0.0227253817
0.02258997171
0.02244518508
0.02226402985
)


100
(
0.09532727077
0.08982575353
0.08610713614
0.08320701847
0.08068176299
0.07849245509
0.07651628331
0.07474844794
0.07305525703
0.07149756981
0.07001143075
0.06857834386
0.06725487471
0.06600697599
0.06477164099
0.06362038836
0.06255872888
0.0614998972
0.06045404254
0.05947020171
0.05854712968
0.05763498892
0.05669214815
0.05580293741
0.05495577773
0.05414421047
0.05332283306
0.05250587123
0.05172308543
0.05096965301
0.05024025243
0.04953670431
0.04879039247
0.0480750304
0.04738182316
0.04672325922
0.04610731487
0.04546150712
0.0448094229
0.04418557632
0.0435971955
0.04302816772
0.04248420944
0.04190889035
0.04135873315
0.04081500016
0.04028056418
0.03976139989
0.03929683558
0.03877871706
0.03827363468
0.03778547578
0.03732903866
0.03688398557
0.03644778393
0.03598536756
0.03554329428
0.0350990095
0.03466536461
0.0342861026
0.03387191274
0.03343603254
0.03305082505
0.03268571869
0.03233592413
0.03197240183
0.03160324249
0.03124231477
0.03089475317
0.03055863267
0.03022020528
0.029895351
0.02958083944
0.02928050428
0.02898278358
0.02869736968
0.02842535205
0.02813712267
0.0278515247
0.02757787456
0.02732349127
0.02709049043
0.02685588002
0.02662316373
0.02638110316
0.02616282856
0.02595828122
0.02575615607
0.02555823456
0.02536803105
0.02519789351
0.02502757652
0.02487167737
0.02470702315
0.02457956653
0.0244545267
0.02432190685
0.02419232329
0.02404474915
0.0238543177
)


100
(
0.09611291636
0.09070361702
0.08703834694
0.08416359401
0.08167071871
0.07952001124
0.07755779761
0.07579812936
0.07415191019
0.0725831175
0.07113485128
0.06972811781
0.0683922641
0.06715858054
0.06598159352
0.06481749591
0.06372799576
0.06272118344
0.06172385718
0.06071852875
0.05977089334
0.0588745365
0.05802201983
0.0571075922
0.05624650398
0.0554232537
0.0546322023
0.053875569
0.05308160447
0.05231322473
0.0515702562
0.05085274017
0.05017806363
0.04948700556
0.04878422688
0.04810484226
0.04746441935
0.04685456598
0.04626917051
0.04564278978
0.04503275901
0.04445769033
0.04390267562
0.04336323549
0.04283708772
0.04229496592
0.04175355631
0.04122921962
0.04072906268
0.04026321437
0.03981240902
0.03930553805
0.03883284414
0.03838459009
0.03794826369
0.03749497994
0.03708088744
0.03663000508
0.03619468324
0.03578570367
0.03540391924
0.03503464402
0.03461436821
0.03424549342
0.03386560561
0.03350149234
0.03314983467
0.03279900984
0.03246153018
0.03213295977
0.03181557292
0.03150171407
0.0311782821
0.03086759419
0.03056672156
0.03027073333
0.0299856966
0.02970631103
0.02945107394
0.02920497445
0.02894701633
0.02867988704
0.02842314831
0.0282053038
0.02800254399
0.02778395702
0.02756186651
0.02735702439
0.02716366189
0.02697226167
0.0267837015
0.02659202481
0.02644559716
0.02629477628
0.02615294803
0.02605800177
0.02593505225
0.02579360475
0.02564441446
0.02544460554
)


100
(
0.09689856195
0.09158466297
0.08796955087
0.08511768352
0.08266902314
0.08052075688
0.07861358631
0.0768498584
0.07524956658
0.07368874608
0.07222924526
0.07088929552
0.06955466737
0.0683052506
0.06715305485
0.06604241088
0.06494084601
0.0639078532
0.06294440809
0.06200730573
0.06103517323
0.06011998253
0.05925057435
0.05842104625
0.0575732524
0.05673686925
0.05593709532
0.05516945863
0.05441925084
0.05368553413
0.05293312056
0.05220879064
0.0515073469
0.05084647852
0.05021823263
0.04953284292
0.04886570927
0.04824296311
0.04764475674
0.04706643593
0.04651541
0.04592885956
0.0453543402
0.04479217622
0.04424499671
0.04373884965
0.04327534215
0.0427330887
0.04221248387
0.04172954417
0.04126849287
0.04082129684
0.04038593503
0.03991170958
0.03944569004
0.03899142965
0.03856823505
0.03818636924
0.03775250479
0.03731860901
0.0369317327
0.03655340764
0.03618063784
0.03580442278
0.03543609609
0.03506857587
0.03471379075
0.03437306762
0.03402638229
0.03369002307
0.03336472439
0.03305292836
0.03274647702
0.03245040939
0.03216421088
0.0318871911
0.03158712038
0.03129992415
0.03102430168
0.03077072151
0.03052440322
0.03029112851
0.0300476165
0.02980595639
0.02957946084
0.02936721876
0.02916320091
0.02895620737
0.02876448517
0.02858070554
0.02839260567
0.0282155908
0.02804570414
0.02790513588
0.02779885344
0.02766105882
0.02753957756
0.02739339143
0.02724118658
0.02703489339
)


100
(
0.09768420754
0.09245837585
0.08889084213
0.08607840657
0.08367103921
0.08153475732
0.07965954338
0.07791770163
0.07631127933
0.07481320211
0.07334742302
0.07198991614
0.07074015925
0.06948158273
0.06830828022
0.06722695882
0.06618164154
0.06513459732
0.06415009397
0.06322319869
0.06234273051
0.06140314196
0.06051895214
0.05967514751
0.05886731172
0.05808975325
0.05727572518
0.05648792534
0.05572973512
0.05499641671
0.05432362189
0.05359566632
0.05288686146
0.05220002011
0.05155569903
0.05093486461
0.050324361
0.0496654358
0.04906157824
0.04847885365
0.04791686192
0.04735489171
0.04683357723
0.04625928903
0.04570964548
0.04517044899
0.04468512052
0.04421791489
0.04375568573
0.04323246599
0.0427688565
0.04232198527
0.04184883975
0.04141501927
0.04099028596
0.04052399996
0.04006979015
0.03967423993
0.03928726694
0.03890541102
0.03849543864
0.03809958126
0.03771515317
0.03734421611
0.03698223886
0.03662023612
0.03627120166
0.03593392403
0.03560684096
0.03528218364
0.03495649622
0.03463821033
0.03433086669
0.03402482582
0.03372680873
0.03344230801
0.03316851378
0.03290377534
0.03264987709
0.03237973149
0.03211718317
0.03186797639
0.03163620697
0.03141555048
0.03118776647
0.03096229039
0.03075558592
0.03056088158
0.03036511671
0.03018088828
0.03000982648
0.029827818
0.02967105295
0.02951915851
0.02940342228
0.02926626172
0.02914129209
0.02899381791
0.02883871695
0.02862518123
)


100
(
0.09846985313
0.09333297595
0.08981710646
0.08704451801
0.08464963624
0.08255924525
0.08068555869
0.07900017664
0.07738970156
0.07589611869
0.07448596924
0.07312115036
0.07185513447
0.0706818043
0.06949959166
0.06839342292
0.06737322299
0.06639230151
0.06539305065
0.06444671602
0.06354927829
0.06269774193
0.06182211614
0.06096615282
0.06014793544
0.0593633006
0.05859966203
0.05784141174
0.05707335339
0.0563337555
0.05562157396
0.05495955582
0.05430018895
0.05360290531
0.05293273622
0.05230336581
0.05169401214
0.05110820228
0.05051353914
0.04992366172
0.04933673907
0.04877013987
0.04821994737
0.04772320895
0.04720994842
0.04666257976
0.04613697781
0.04566511212
0.04520136991
0.04475670903
0.04431085507
0.04381535978
0.04334112923
0.04287208284
0.04247107388
0.04209378415
0.04163295952
0.04120004877
0.04080917331
0.04042421753
0.04003617866
0.03965473123
0.03928273205
0.03892101656
0.03855602352
0.03820524507
0.03784692944
0.03749991004
0.03716362943
0.03683928101
0.03652012928
0.03621309861
0.03591665613
0.03562572406
0.03533580224
0.03504196068
0.03476282775
0.03448482607
0.03421386158
0.03396101982
0.03373527671
0.03349519608
0.03325025078
0.03301991607
0.03280358919
0.03259316794
0.03237126424
0.03216455742
0.03197048615
0.03177933514
0.03159530224
0.03142172074
0.03124732609
0.0311079002
0.03101652496
0.03087446938
0.03074013583
0.03059856446
0.03043866503
0.03021546908
)


100
(
0.09925549872
0.09420924841
0.09074681173
0.08801033931
0.0856371069
0.08359109535
0.08172511413
0.0800521707
0.07848418389
0.07698685968
0.07560189699
0.07427352274
0.07299939783
0.07181864186
0.07071520623
0.06960049379
0.06855671942
0.06758550333
0.06666700572
0.06570485653
0.06479634656
0.06392982012
0.06310187126
0.06229302015
0.06146434579
0.06065926464
0.0598851195
0.05914414055
0.05845482259
0.05770274878
0.05697985421
0.05628605367
0.0556353959
0.05500796209
0.05436058644
0.05370524823
0.0530912612
0.05249777728
0.0519183622
0.05135322558
0.0507919711
0.05021744396
0.04966376448
0.04913175365
0.04863966678
0.04816698869
0.04765213908
0.04714590937
0.04668407178
0.04622148797
0.04575078398
0.04533658432
0.04487196681
0.0443976236
0.04395000405
0.04355827887
0.04317385554
0.04278300187
0.04236799738
0.04196050482
0.04156678999
0.04118650377
0.04081486457
0.04044837668
0.04009425743
0.03975110998
0.03941581089
0.03908756165
0.03877148374
0.03843866876
0.03811909545
0.03780443199
0.03749193192
0.0371888878