/*--------------------------------*- C++ -*----------------------------------*\
| =========                 |                                                 |
| \\      /  F ield         | OpenFOAM: The Open Source CFD Toolbox           |
|  \\    /   O peration     | Version:  2.3.1                                 |
|   \\  /    A nd           | Web:      www.OpenFOAM.org                      |
|    \\/     M anipulation  |                                                 |
\*---------------------------------------------------------------------------*/
FoamFile
{
    version     2.0;
    format      ascii;
    class       dictionary;
    location    "constant";
    object      CO2max;
}
// * * * * * * * * * * * * * * * * * * * * * * * * * * * * * * * * * * * * * //

CO2max
100
(
0.1613215002
0.1632820897
0.1639735554
0.1640216962
0.1639912366
0.1640075536
0.1640134408
0.1640085007
0.1640079203
0.1640087065
0.1640078597
0.1640070278
0.1640064444
0.1640057904
0.1640050339
0.1640042173
0.1640034002
0.1640026433
0.1640018621
0.1640004436
0.1639989387
0.1639977288
0.1639963004
0.1639945088
0.1639928058
0.1639907727
0.1639880845
0.1639856107
0.1639830664
0.1639797482
0.16397622
0.1639731235
0.1639689194
0.1639637944
0.1639587096
0.163953542
0.163947482
0.163938949
0.1639294164
0.1639212096
0.1639122398
0.1639017926
0.1638905938
0.1638781372
0.1638639258
0.1638490309
0.1638331895
0.163814789
0.1637940974
0.163771865
0.1637481596
0.1637226826
0.1636948842
0.163664421
0.163631246
0.163595854
0.1635585945
0.163519479
0.1634779205
0.1634333838
0.1633863285
0.1633370951
0.1632856292
0.1632317168
0.1631745897
0.1631120049
0.1630454625
0.1629806394
0.162911899
0.162831731
0.1627495424
0.1626702008
0.1625865204
0.1624955241
0.1623985622
0.1623013167
0.162204211
0.1620980351
0.161982817
0.1618664713
0.1617473788
0.1616210406
0.1614832216
0.1613399357
0.1612011448
0.1610539877
0.1608905104
0.1607252127
0.1605619091
0.1603926663
0.160205291
0.159998744
0.1598005837
0.1596053786
0.1593819028
0.1591539117
0.1589306516
0.1586320302
0.1581654958
0.1574384967
)
;