/*--------------------------------*- C++ -*----------------------------------*\
| =========                 |                                                 |
| \\      /  F ield         | OpenFOAM: The Open Source CFD Toolbox           |
|  \\    /   O peration     | Version:  2.3.1                                 |
|   \\  /    A nd           | Web:      www.OpenFOAM.org                      |
|    \\/     M anipulation  |                                                 |
\*---------------------------------------------------------------------------*/
FoamFile
{
    version     2.0;
    format      ascii;
    class       dictionary;
    location    "constant";
    object      CO2norm_table;
}
// * * * * * * * * * * * * * * * * * * * * * * * * * * * * * * * * * * * * * //

CO2norm_table
100
(
100{0}

100
(
0.0101010101
0.0099544857
0.01014523847
0.01025416961
0.01016067436
0.009959443672
0.01044099132
0.009989287912
0.01027610057
0.01005397833
0.009987634695
0.01013959242
0.009980135263
0.01008949457
0.01018981819
0.009997685784
0.009989069461
0.01030169773
0.01004708916
0.009970317376
0.01020388066
0.01017777448
0.01003341958
0.01004106104
0.01028254102
0.01010231472
0.0100257188
0.01006665981
0.01033902131
0.01012355896
0.01003928548
0.01007511472
0.0102337695
0.01011093665
0.0100555893
0.01005655555
0.01021150734
0.01022750994
0.01007673515
0.01004615423
0.0101350639
0.01022262289
0.01009834613
0.01006775556
0.01010690549
0.01019902682
0.0101088699
0.01006551134
0.01008548452
0.01019349631
0.01019130893
0.01008906657
0.01008753736
0.0101542463
0.01017299435
0.01010276196
0.01009976373
0.01013732052
0.01014174464
0.01010682996
0.01001770958
0.01016225854
0.01022228687
0.01006267759
0.01000671849
0.01017357481
0.01023393747
0.009970623631
0.01009465677
0.01017888675
0.01012225137
0.01000093339
0.01015940032
0.01018803747
0.01001549544
0.01007700648
0.01021906762
0.01004215509
0.0100696262
0.01019691812
0.01003378611
0.01012617191
0.01013566714
0.01004244035
0.01016916851
0.01007995367
0.01009913414
0.01012610304
0.01008157553
0.01011961721
0.01009526342
0.01010701007
0.01009590399
0.01010282227
0.01009872061
0.01010204537
0.01009989999
0.01009920154
0.01010820157
0.0101010101
)


100
(
0.0202020202
0.01999674071
0.0204015655
0.02066558858
0.02009758789
0.02013651316
0.02015135197
0.02022738111
0.02008345044
0.02038812397
0.0200317385
0.02025686876
0.02016294522
0.02003859167
0.02031680308
0.02027015369
0.0200453602
0.02013701349
0.02045363623
0.02012470253
0.02007304084
0.02027862074
0.02033098339
0.02012704506
0.02012719144
0.02030966578
0.02025522037
0.02012898318
0.02013641754
0.02030312445
0.02033434432
0.0201675238
0.02015150248
0.02024083937
0.02030131131
0.02018568822
0.0201493802
0.02019221454
0.02034320172
0.02031710174
0.02018330613
0.02017353836
0.02024119209
0.0203714518
0.0202288497
0.02019620148
0.02022278805
0.02029042997
0.02025152465
0.02019313027
0.02019811375
0.02023744996
0.02036009151
0.02023479854
0.02019070653
0.02014423405
0.02035301792
0.02020110282
0.02017451608
0.0201315201
0.02028286955
0.02007589741
0.02019969016
0.02028378502
0.02021087121
0.02007896807
0.02020493819
0.02032671925
0.02010667334
0.02017245552
0.02022476817
0.02028961488
0.02015628725
0.02019766979
0.02027582019
0.02025703925
0.02009529541
0.02020576452
0.02028137215
0.02016813513
0.02025201058
0.02015026603
0.02029196848
0.0201553571
0.02019781651
0.02024030933
0.02018333307
0.02020856493
0.02021141432
0.02019676567
0.02019750216
0.02019811078
0.02020322503
0.02019668557
0.02020254843
0.02020204855
0.02020758567
0.02021696743
0.02019171887
0.0202020202
)


100
(
0.0303030303
0.03007068196
0.03076119454
0.03050367209
0.03022112379
0.03051798833
0.0301164622
0.03062429751
0.03015549753
0.03036249583
0.03027406489
0.03014801057
0.0305040823
0.03020319756
0.03017173733
0.03048088117
0.03034342829
0.03015847926
0.03024562821
0.03059742679
0.03025702862
0.03018582317
0.03032194918
0.03051061689
0.0302692811
0.03023040817
0.03033945035
0.03045687702
0.03028357439
0.03023922665
0.03030561892
0.03051755674
0.03037024899
0.03028239862
0.03030421179
0.03039695816
0.03039396977
0.03029746229
0.03028312305
0.03033178497
0.03047307292
0.03048603294
0.03034204176
0.03029934132
0.0302746021
0.03048064093
0.03030219178
0.03025115498
0.03017059214
0.03047010879
0.03028932162
0.030241544
0.03017934124
0.03043015142
0.03033294426
0.0301895189
0.03010274384
0.03042897945
0.0303611559
0.0301739964
0.03023087285
0.03039916254
0.03024102595
0.03028509732
0.03033213792
0.03035614096
0.03025976834
0.03030003984
0.03034491518
0.03038387428
0.03031615606
0.03030056568
0.03029502561
0.03031649273
0.03036641179
0.0303503011
0.03018107339
0.0303247281
0.03044539857
0.03020171974
0.03029418186
0.03036355311
0.03026502517
0.03031560273
0.03031865159
0.03031482749
0.03030102316
0.03029845454
0.03029764568
0.03030005452
0.03029742352
0.03030013189
0.03029887983
0.03030597649
0.0303026257
0.03030269832
0.03028900721
0.03034790412
0.03029602028
0.0303030303
)


100
(
0.0404040404
0.03991171785
0.04059798311
0.0405269095
0.04047889334
0.04035841693
0.04028828294
0.04034147503
0.04047445011
0.04024458659
0.04066781766
0.04029311921
0.04030981161
0.0405789309
0.04029239934
0.0402999953
0.04059863561
0.04045265687
0.040277194
0.04033672474
0.04065128736
0.04041927074
0.04030199723
0.04037097396
0.04063901646
0.04045752646
0.04037037755
0.04041437824
0.04058137343
0.04050072834
0.04040081109
0.04040539991
0.04051615727
0.04069818074
0.04048078983
0.04040739762
0.04035715212
0.04059878294
0.04041078709
0.04034681665
0.04032908932
0.04040581826
0.0405570289
0.04035047633
0.04022054198
0.04021329962
0.04067820138
0.0403703654
0.04022178105
0.04024950042
0.04058595491
0.04041431375
0.04026894837
0.0403203539
0.04052052313
0.04040956935
0.04019000257
0.04035938518
0.04049345619
0.04048872002
0.04036814301
0.0404034046
0.04048410612
0.04048357077
0.04041250163
0.04039076964
0.04037433633
0.04044965102
0.04040314293
0.04038552786
0.04038861524
0.04041311884
0.04047251064
0.04040440272
0.04026818191
0.04041006196
0.04052788238
0.04035817287
0.04036665741
0.04041651119
0.04044742736
0.04045110556
0.0403958348
0.04039494611
0.04040509492
0.04037593101
0.04040752076
0.04040003985
0.04040787487
0.04037412593
0.04039490379
0.04041204458
0.04039762177
0.04040368012
0.04040084849
0.04039836826
0.04038815374
0.04040514054
0.040404896
0.0404040404
)


100
(
0.05050505051
0.0498627535
0.05057552164
0.05065428137
0.05082401388
0.05036802823
0.05065790543
0.05032186267
0.05070408197
0.05040256005
0.05041227422
0.05068314066
0.05037413821
0.05047282698
0.0506364562
0.05039809362
0.05041459126
0.0506921603
0.05058377942
0.05039828397
0.05042771874
0.0506840461
0.05060017049
0.05042840851
0.05044708928
0.05065743969
0.05072501617
0.05060338132
0.05054531767
0.05056268411
0.05068671817
0.05049132112
0.0504159199
0.05040199785
0.05076002305
0.05048042674
0.05035124113
0.05016662694
0.05077529584
0.05051059197
0.05040519188
0.05031259562
0.0506001795
0.05066239901
0.05038768845
0.05013602729
0.05045146803
0.05084337685
0.05042093759
0.05026670902
0.05044720695
0.05064710429
0.05050221657
0.05042067765
0.05048557428
0.0505819756
0.05051818716
0.05059029828
0.05053491189
0.05051259362
0.05057953507
0.05061245113
0.05049326633
0.05043744486
0.05047073231
0.0505633223
0.05054777244
0.05047404903
0.05049299314
0.05051222053
0.05058564307
0.05052448684
0.05049154689
0.05046723406
0.05058188466
0.05041255921
0.05050393791
0.05051039636
0.05057182079
0.05054688257
0.05047031241
0.05044927083
0.05055099268
0.05049413388
0.05050464106
0.05049809406
0.05048226083
0.05048994975
0.05048793013
0.05051048056
0.05049779436
0.05049653488
0.05050113919
0.05049888715
0.05049960063
0.05050463346
0.0505079263
0.05050840737
0.05051482762
0.05050505051
)


100
(
0.06060606061
0.05989837466
0.06065621974
0.06090524919
0.06065408448
0.06054700818
0.06058958663
0.06051663116
0.06049228408
0.06081989587
0.06044530399
0.06063105499
0.06068408841
0.06047717754
0.06062263886
0.06072125947
0.06050660949
0.06051911976
0.06076295579
0.0607265612
0.06051620709
0.06051009255
0.06069685776
0.06078451493
0.06055300413
0.06052939531
0.06071396815
0.06073315636
0.06055208574
0.06044032562
0.06050432609
0.06079514999
0.06053893797
0.0604094528
0.06049831546
0.06088698697
0.06054026019
0.06029038957
0.06039395978
0.06090925726
0.06061967915
0.06042588618
0.06046137197
0.06072865836
0.06072477271
0.06029695349
0.06044750737
0.06059175078
0.06087832625
0.06047601274
0.06057415505
0.06063738848
0.06076600304
0.06077194302
0.06064343735
0.06059317736
0.06057194803
0.06062796115
0.06065678348
0.06058336469
0.06053441563
0.06055417667
0.06061136202
0.06074389697
0.06061527072
0.06060477296
0.06064561144
0.06062205272
0.06070858448
0.06063087834
0.06056165819
0.06055050931
0.06063681842
0.06062528022
0.06059124676
0.06065448173
0.06060557933
0.06062831124
0.06056204174
0.06056116151
0.06062314596
0.06059903412
0.06058805329
0.06059292417
0.06058208972
0.06058337766
0.06060420595
0.06058987762
0.06057487411
0.06058385382
0.06059561255
0.06058773923
0.06058792631
0.0605863968
0.06058476796
0.06058022894
0.06065151867
0.06063351837
0.06062965135
0.06060606061
)


100
(
0.07070707071
0.07004453467
0.07085550937
0.07096194205
0.07066900633
0.07088729049
0.07055995563
0.07091214723
0.07053770949
0.07074970533
0.07074295794
0.07054742585
0.07084470051
0.07072810614
0.07058639246
0.07074743863
0.07081917446
0.07060831212
0.07061097691
0.07080098761
0.07086690191
0.07062413835
0.07058131552
0.07070122478
0.0709619031
0.07068118567
0.07063197304
0.07081969214
0.07076237721
0.07056886281
0.07034598269
0.07079884256
0.07090080122
0.07059143702
0.07036992938
0.07073159024
0.07098295647
0.07055296263
0.07029269614
0.07062282818
0.07099566793
0.07070515238
0.0704973395
0.0706370353
0.07080821535
0.07070003888
0.0705849838
0.07070348268
0.07080888703
0.07092153093
0.07087733346
0.07074375505
0.07067451
0.07061720233
0.07071308295
0.07089042352
0.07071544176
0.07063699718
0.07065276365
0.07069838909
0.07078774299
0.07068196673
0.07069949039
0.07073719704
0.07071969986
0.07076933191
0.07079174969
0.07067965527
0.07058045012
0.0706827735
0.07079703373
0.07073556277
0.07074537667
0.07072220817
0.07070859528
0.07074736215
0.07062886557
0.07065857082
0.07073618312
0.0707313151
0.07068941486
0.07068119278
0.07067366098
0.07067559014
0.07068709026
0.07069927394
0.07069177441
0.07070670655
0.07067888265
0.07069837009
0.07071915944
0.07070644653
0.07070436008
0.07069325706
0.07069758651
0.07069506838
0.07075370125
0.07074929421
0.07075298513
0.07070707071
)


100
(
0.08080808081
0.08018698795
0.08093684424
0.0808985708
0.08081698839
0.08087397676
0.08071590454
0.08077142282
0.08080290391
0.0806481543
0.08103725327
0.08074609964
0.08067477774
0.08103002922
0.08079820903
0.08069072621
0.08083554567
0.08093092611
0.08072639655
0.08069092718
0.0808282009
0.08102437261
0.08074841744
0.08066675297
0.08073029431
0.08099657187
0.08084920002
0.08075419713
0.08093413087
0.08080067649
0.08054494516
0.08042698428
0.08101774558
0.08097999966
0.08059156617
0.08055862114
0.08088881473
0.08103312273
0.08047403948
0.08059511138
0.08077588567
0.08106114758
0.08076690989
0.08076845467
0.08082542487
0.08093369936
0.08096968746
0.08086582644
0.08080379763
0.08077142295
0.08077777902
0.08090046897
0.08091911156
0.08077916339
0.0806700157
0.0807387116
0.08081097008
0.08095858975
0.0808708512
0.08082662968
0.08085777208
0.08080296287
0.08083070979
0.08085160642
0.080777729
0.08073456353
0.08077262379
0.08086411999
0.08085810245
0.08079453115
0.0808493155
0.08078676946
0.08088625969
0.08082066887
0.08068875676
0.08077540172
0.08086827107
0.08084455172
0.08079641346
0.08078440098
0.08078205797
0.08078051677
0.08080167136
0.0807996819
0.08078715583
0.08077366626
0.08079011479
0.08077276722
0.08079820157
0.08078715534
0.08076738321
0.08077666257
0.08077800015
0.08078990355
0.08078910143
0.08079849164
0.08084624015
0.08087287757
0.08086164726
0.08080808081
)


100
(
0.09090909091
0.09015798551
0.09084907408
0.09096503586
0.09110608768
0.09081400965
0.09104867772
0.09076428744
0.09108645893
0.09079251083
0.09081416978
0.09121124127
0.0908054024
0.09080795622
0.09117539808
0.0908821017
0.09078391583
0.09091694649
0.09106186556
0.09083375307
0.09077371312
0.09085729919
0.09119712949
0.09089835539
0.09077715007
0.09078516184
0.09097140248
0.09105505993
0.09089421007
0.09104241521
0.09080072048
0.09044285365
0.09071448766
0.09116065188
0.09102249411
0.09057400916
0.09078038353
0.09099695959
0.09101640079
0.09071510277
0.09086366266
0.09098210413
0.09121188164
0.09112860148
0.09095631505
0.09087410928
0.09082293579
0.09090227086
0.09103663552
0.09090614417
0.09085007473
0.0908346604
0.09087994244
0.0909702617
0.09102909097
0.09085556623
0.09088610744
0.09092998828
0.09092994934
0.09100228818
0.09101530055
0.09088122339
0.09078554322
0.0908504443
0.09095571451
0.09096182921
0.09089579349
0.09094581014
0.09092099508
0.09092852912
0.09096699366
0.09084703333
0.0908221835
0.09090774283
0.09099201913
0.09093266174
0.09089026466
0.09088396346
0.09088096485
0.09087983696
0.09090303421
0.09091401351
0.09087706211
0.09085230771
0.09086855101
0.09087271075
0.0908826964
0.09093065223
0.09090422785
0.09090097378
0.0909030067
0.09089211065
0.0908800062
0.09088456872
0.09083503481
0.09089979051
0.09096100437
0.09096616622
0.09096931057
0.09090909091
)


100
(
0.101010101
0.1002121913
0.1008765003
0.1011414489
0.1010751996
0.1009201934
0.1010699147
0.1009475751
0.1009246743
0.1011521652
0.1008594158
0.1010053091
0.1012121089
0.1008925865
0.1009211188
0.1012846386
0.1009682067
0.1008684396
0.1009542702
0.1012054483
0.1009541228
0.1008628846
0.1009050615
0.101185786
0.1010805676
0.1009048667
0.1008593888
0.1009678046
0.1012216975
0.1010542165
0.101149448
0.1007670759
0.1006156724
0.1009191304
0.1012579018
0.1010112869
0.1008703789
0.1009753759
0.1011261813
0.1011969617
0.1011338059
0.1010454318
0.1009940406
0.1009866353
0.1011858498
0.1011170126
0.1009698529
0.1008677439
0.1009242709
0.1010156269
0.1011650258
0.1010179814
0.1009741779
0.1009850389
0.1010288791
0.1010531484
0.1011599544
0.1010210938
0.1009579049
0.1009155116
0.1009743875
0.1011152338
0.1010726521
0.100944334
0.101009828
0.1011019729
0.1010487327
0.1010778874
0.1009556471
0.1008485629
0.1009830231
0.1011316332
0.1010284295
0.101033769
0.1009919709
0.101006005
0.1009839159
0.1009873089
0.101019122
0.1010279501
0.1009767946
0.1009559841
0.1009505617
0.1009674405
0.1009681445
0.100991314
0.1009666163
0.1009495038
0.100960155
0.1009635249
0.1009490307
0.1009564073
0.1009549936
0.1009230042
0.1009242953
0.1009810872
0.1010024524
0.1010629763
0.1010610832
0.101010101
)


100
(
0.1111111111
0.1103182604
0.1110002943
0.1113774923
0.1110603445
0.111177307
0.1109973708
0.1113148185
0.1109840553
0.11114475
0.1111334472
0.11096694
0.1111889351
0.1112467635
0.1109693881
0.1109959083
0.1113929443
0.111078795
0.1109553564
0.1109973117
0.1113610477
0.1110927036
0.1109702923
0.1109791948
0.1111784544
0.1112920407
0.1110530906
0.1109600718
0.1110069898
0.1111696007
0.1113140173
0.1112611682
0.1107062967
0.1109486407
0.1111052451
0.1113647798
0.1112654965
0.1112353595
0.1111400539
0.1111038857
0.1112171509
0.1112051982
0.1110866789
0.1110229564
0.1109954397
0.1111019042
0.1112883601
0.1111971009
0.1110024159
0.1110457554
0.1110911483
0.1111673378
0.1113130587
0.1112092904
0.111099301
0.1110378971
0.1109651844
0.1111256617
0.1112666283
0.1110987166
0.1110382324
0.1110880796
0.1111725941
0.1112538134
0.1112066659
0.1110758779
0.1109809245
0.1110679128
0.1112450469
0.111010091
0.1110914753
0.1111357259
0.1111213784
0.1111229669
0.1111257601
0.1111573386
0.1111809734
0.1111326379
0.1110654305
0.1110340325
0.1110347212
0.111064474
0.1110965575
0.1110962547
0.1110475931
0.1110478985
0.1110398451
0.111088556
0.1110537172
0.1110466185
0.1110557757
0.1110350872
0.1110333803
0.111014009
0.1110531147
0.1112155439
0.1111552479
0.1111691655
0.111167645
0.1111111111
)


100
(
0.1212121212
0.1204924653
0.1212165274
0.1212681631
0.1211763671
0.1212984031
0.1211045818
0.1212209628
0.1212408728
0.121088066
0.1213785895
0.1211655242
0.1210740673
0.1213247448
0.1212962152
0.1210514056
0.1210683715
0.1214743555
0.1212099508
0.1210487867
0.1210746612
0.1213731766
0.1212556007
0.1210882914
0.1210612121
0.1211851503
0.121454244
0.1212393677
0.1210946816
0.1210809493
0.1211651079
0.1214113905
0.1213657525
0.121094409
0.1212565321
0.1213349437
0.1213480421
0.1214891016
0.1212556267
0.1211430149
0.1210749166
0.1211576542
0.1213496287
0.1212675711
0.1211429725
0.12109827
0.1211452791
0.1212263424
0.121387242
0.1213405672
0.1213212184
0.1212140084
0.1211344471
0.1211363454
0.1214196248
0.1212545809
0.1211115045
0.1210959475
0.1211820691
0.1212878006
0.1214535611
0.1213276432
0.1211963129
0.1210852276
0.1211671224
0.1213957633
0.1211543848
0.1211137495
0.1211888452
0.1212757846
0.1212545102
0.1212115189
0.1211812652
0.1211800832
0.1211699318
0.1211419363
0.121128261
0.121170232
0.1211634621
0.1211866989
0.1212277259
0.1211666216
0.1211181955
0.1211016303
0.1211676108
0.1212085581
0.1211492489
0.1211273734
0.1211519404
0.1211665295
0.1211720284
0.1211739708
0.1211787821
0.1212010927
0.1212194775
0.121349436
0.1214439575
0.1212782383
0.121274967
0.1212121212
)


100
(
0.1313131313
0.1306275946
0.1312067159
0.1312954047
0.1314110515
0.1312364124
0.1313744159
0.1311919642
0.131513053
0.1312472436
0.1312304994
0.1315698105
0.1312129721
0.1311713601
0.1314539637
0.1313774116
0.1311441663
0.131138543
0.1315299619
0.1313581599
0.1311532914
0.1311571781
0.1313826315
0.1314408143
0.1312221165
0.1311571627
0.1312250541
0.1314060257
0.1314848951
0.1312722711
0.1312093676
0.1312384043
0.1313705295
0.1316086137
0.1314219221
0.1313040954
0.1312407814
0.1312319864
0.1314379468
0.1314816065
0.1312824733
0.1311512615
0.1312044911
0.1313045767
0.1314607493
0.131356476
0.1312838627
0.1313039659
0.1313521543
0.1313267962
0.1314733838
0.1313954679
0.1312564665
0.1311256295
0.1312017141
0.1313422192
0.1315575507
0.1313069224
0.131369092
0.1314081969
0.1312739841
0.1313757331
0.1314410758
0.1312264231
0.1311275244
0.1312603458
0.1314121597
0.1314578711
0.1313617281
0.1313070434
0.1312865352
0.1312812808
0.1312514915
0.1312624574
0.1312776815
0.1312780681
0.1313189656
0.1312856854
0.1312977067
0.131241874
0.1311814674
0.1312010462
0.1312559461
0.1313498539
0.1312387349
0.1311508721
0.1312356014
0.1312635879
0.1312685116
0.1312347403
0.131208321
0.1312153989
0.1312262398
0.1311250337
0.1312744371
0.1314327435
0.1314921253
0.1313853873
0.1313913851
0.1313131313
)


100
(
0.1414141414
0.1407012867
0.141227589
0.1414119217
0.1415165402
0.1413253037
0.1414825658
0.1413428532
0.1413588733
0.1416060269
0.1413106018
0.1413557326
0.1415826668
0.1412869844
0.1412655832
0.1415721151
0.1414833715
0.1412441871
0.1412348974
0.1415627548
0.1415232107
0.1412697729
0.1412445481
0.141395886
0.141656247
0.1413866175
0.1412871445
0.1413017034
0.1414073518
0.141635302
0.1415318254
0.1414233141
0.1413382375
0.141329515
0.1414533778
0.141615658
0.1414138962
0.1413071414
0.1412569091
0.1413858675
0.141591474
0.1415288556
0.1413076404
0.1413286268
0.1413785698
0.1414656696
0.141620197
0.1415302144
0.1414021478
0.1413336266
0.1412821071
0.1414083857
0.1416306578
0.1414057671
0.1412392499
0.141348637
0.1414394075
0.141591211
0.1416648931
0.1414457847
0.1413152147
0.1411844118
0.1413926222
0.1416370929
0.1413434208
0.1414028393
0.1414258753
0.1414063594
0.1414350376
0.1414232575
0.141443367
0.1414904572
0.1415341267
0.1414381471
0.1413722439
0.1413211983
0.1412941125
0.1413212431
0.1413552757
0.1413764385
0.1414386368
0.1413495305
0.1413397518
0.1412556493
0.1413155763
0.1414160577
0.1413438721
0.1413066522
0.141288218
0.1413180558
0.1413039965
0.141333177
0.1411996167
0.1412988566
0.1415013914
0.1415226265
0.1415379053
0.1414970041
0.1414852904
0.1414141414
)


100
(
0.1515151515
0.1508176887
0.1513161037
0.1516194528
0.151471993
0.1515443133
0.1514270053
0.1516574553
0.1514116884
0.1515625962
0.1515846038
0.1513689595
0.1514724657
0.1516384559
0.1513759478
0.151353787
0.1516585516
0.1516102058
0.1513505497
0.1513316958
0.1515802451
0.1517107978
0.1514053123
0.1513434456
0.1514358395
0.1516367141
0.1516031481
0.1514546057
0.151425755
0.1514856724
0.1515991997
0.1517847583
0.1515408196
0.1514160165
0.151344329
0.1514165765
0.1516898882
0.1516450036
0.1514546102
0.1513642346
0.151427573
0.1515333174
0.1517234258
0.1516081497
0.1515868277
0.1515311972
0.1514649708
0.1514340777
0.1517090479
0.151554738
0.1514294829
0.1513626567
0.1514558281
0.1515718116
0.1516935037
0.1515871878
0.1515631976
0.1514716618
0.1513983692
0.1516309662
0.1515813233
0.1513378649
0.1513736205
0.1514878787
0.1516498704
0.151673874
0.1516118499
0.1515483774
0.1515221823
0.151528216
0.1514693798
0.1514430408
0.151435589
0.1514744527
0.1514848214
0.1515231513
0.1515960641
0.1515247593
0.1514284834
0.1513580737
0.1513606621
0.1514531477
0.1514939327
0.1514989613
0.1513875489
0.1513800426
0.1514200766
0.151422211
0.1513935256
0.1513631498
0.1514197651
0.1514366051
0.1514786855
0.1514049139
0.1515336017
0.1516228828
0.1516003378
0.1516087567
0.1516035201
0.1515151515
)


100
(
0.1616161616
0.160966114
0.161465583
0.1616614416
0.1615447566
0.1617394235
0.1615279152
0.1616338039
0.161643462
0.1615183626
0.1617246409
0.1615937035
0.1614475619
0.1616077296
0.1617232189
0.16147415
0.1614366656
0.161718489
0.1617576013
0.161466711
0.1614261196
0.1615967299
0.1619223521
0.1615771804
0.1614807211
0.1615149778
0.1616412108
0.1618802735
0.1616948132
0.1615736195
0.1615202149
0.1615393598
0.1617630578
0.1617550646
0.1615535385
0.161417307
0.1614594387
0.1616199695
0.1618530502
0.1616923502
0.1615524881
0.1615677836
0.1616343677
0.1617242617
0.1618252141
0.1617373554
0.1615811898
0.1614744467
0.1614678593
0.1616314081
0.1618360458
0.1616057106
0.1615538524
0.161614017
0.1617016188
0.1616237805
0.1617537812
0.1615875969
0.1614733365
0.1614818519
0.1616171399
0.1617818213
0.1615618645
0.1616259739
0.1615682342
0.1615653744
0.1615942626
0.161574165
0.1615919012
0.1616268085
0.16168386
0.1617092212
0.1616271311
0.1615835705
0.161558558
0.1615150913
0.1614915175
0.1614636098
0.1615479112
0.1616405937
0.1616102335
0.1614782125
0.1613718419
0.1614639232
0.1615935603
0.1615787982
0.1615049191
0.1614871943
0.1614849252
0.1614458227
0.1613872583
0.1612722876
0.1613765238
0.1613928748
0.1614367041
0.1617220496
0.1617675228
0.1617137561
0.1617223903
0.1616161616
)


100
(
0.1717171717
0.1711513298
0.1716149874
0.1716773322
0.171712739
0.1716685278
0.1717672625
0.1716296135
0.1718845956
0.1716582947
0.1716026832
0.1719198592
0.171642034
0.1715342863
0.171741321
0.1718295973
0.1715792499
0.1715402601
0.1717609009
0.1719301343
0.17159797
0.1715297047
0.1716381443
0.1718799366
0.1718059398
0.1716602494
0.1716449574
0.1717289159
0.1718060945
0.1718773378
0.17168635
0.171590554
0.1715551834
0.1717096705
0.1719928044
0.1717540362
0.1715470721
0.1715615552
0.1716519708
0.1717825548
0.1720095075
0.1718945863
0.1717772697
0.1716636661
0.1715757275
0.1716946842
0.1720325144
0.1717614051
0.1715754935
0.1715847582
0.171683382
0.1718197653
0.1719828273
0.1718336634
0.1716893678
0.1715728618
0.1716113565
0.171871153
0.1717360775
0.1715515135
0.1716254889
0.1717041203
0.1717678746
0.1717585745
0.1717512011
0.171702647
0.1716887497
0.1717117759
0.1716492486
0.1716146616
0.1716024373
0.1716229487
0.1716320751
0.1716654602
0.1717184802
0.1717807087
0.1716474887
0.1715571606
0.1715008179
0.1715353922
0.1715685273
0.1716410631
0.1716102608
0.1715454844
0.1715193195
0.1715393288
0.1715756059
0.1715415816
0.1715473847
0.171554976
0.1714999211
0.171479643
0.1714390442
0.1715230446
0.171796283
0.1718185836
0.1718803779
0.1718093227
0.1718229592
0.1717171717
)


100
(
0.1818181818
0.1812517727
0.1816563513
0.1817628608
0.1819185255
0.1817291423
0.1819112597
0.181778575
0.1817903752
0.1819708969
0.1816953988
0.1817074909
0.1820389971
0.1817176232
0.1816205764
0.1818437812
0.1819555296
0.1816937168
0.1816423708
0.1818018212
0.1821180117
0.1817634604
0.1816688713
0.1817171286
0.1818767605
0.1821087977
0.1819073419
0.1817646305
0.1817120574
0.1817198448
0.18205864
0.1818702281
0.1817173362
0.1816208446
0.1817292838
0.181902714
0.1820476428
0.1817471381
0.1817446287
0.181793177
0.1818938363
0.1819045514
0.1821128227
0.1818685873
0.181719194
0.1815672972
0.1817145938
0.1819181039
0.182090457
0.1817864926
0.1818301775
0.1819322672
0.1818062037
0.1818939721
0.1819917352
0.1817620894
0.1815630935
0.1817021437
0.181846906
0.1819752226
0.1818689612
0.1818054926
0.1817669697
0.1817667963
0.1817762989
0.1817401482
0.1817409914
0.1817643643
0.1818068998
0.1818276478
0.181793895
0.1817544009
0.1817403403
0.1816938531
0.1816564951
0.1816567694
0.1816764304
0.1817155568
0.1817848983
0.1817035923
0.181624
0.1815869772
0.1816225557
0.1816833629
0.1816426526
0.181574157
0.1815900106
0.1816304932
0.1816086389
0.1816122077
0.1816648575
0.1816157113
0.1816603018
0.1816762571
0.1818956832
0.1819286328
0.1819755175
0.1819089268
0.1819283245
0.1818181818
)


100
(
0.1919191919
0.1913624721
0.1917519179
0.191904956
0.1918857831
0.1918938107
0.1918618559
0.1920665995
0.1918520542
0.1919025329
0.191971961
0.1917673643
0.1918175173
0.1921077675
0.1918084326
0.1917050841
0.1919202515
0.1921034223
0.1918293018
0.1917354094
0.1918253746
0.1920884594
0.1919746984
0.1918437965
0.1918430207
0.1919446159
0.1920570848
0.192066903
0.1918684805
0.191760993
0.1917405691
0.1919795261
0.192128571
0.1918933324
0.1917538303
0.1918087502
0.1919075144
0.1920780343
0.1920876004
0.1920333685
0.1919081168
0.1918388188
0.191799507
0.1920512995
0.1921095843
0.1918573479
0.1916856629
0.1918174082
0.1919409613
0.1921329541
0.1922585455
0.1919954837
0.1918268983
0.1916447968
0.1918685069
0.1921987318
0.1919231866
0.1917838078
0.1918730422
0.191952269
0.1919619891
0.1919655088
0.191981511
0.1920155539
0.191980625
0.1919933782
0.1919114585
0.1918499895
0.191812422
0.1918157194
0.1918051918
0.1918194276
0.1918575359
0.1918909245
0.1918895832
0.1918156628
0.1917873124
0.1917295406
0.1916793284
0.1916966044
0.1918392813
0.1918506099
0.1917952736
0.1917883101
0.1918133012
0.1918342456
0.1917509054
0.1917131279
0.1916996746
0.1916585293
0.1916302625
0.1916365739
0.1915729394
0.1916704367
0.1920487967
0.1920576069
0.1920525633
0.192035793
0.1920489834
0.1919191919
)


100
(
0.202020202
0.2014925045
0.2018849881
0.2020440053
0.2019434209
0.2021315242
0.2019437682
0.2020649279
0.2020635739
0.2019059279
0.2020443679
0.2020152157
0.2018528993
0.2019492056
0.2022041244
0.2019096771
0.2018173615
0.2019792576
0.2022702872
0.201950099
0.2018587478
0.2019148198
0.2020954009
0.2022517668
0.202087785
0.2019535619
0.201911832
0.2019828262
0.2023110191
0.2020398129
0.2018725096
0.2018116731
0.2019643331
0.2021817213
0.2021482852
0.2019564199
0.2019660584
0.2020280541
0.2020947882
0.2021655153
0.2021717524
0.2019981013
0.201887578
0.2018488334
0.2020111393
0.2022320713
0.2020914912
0.2019465477
0.2020436942
0.2020757771
0.2019966275
0.2022463697
0.2021064426
0.2018538782
0.2017328874
0.2019353618
0.2021356603
0.2022430482
0.2021423878
0.2020441466
0.2019886662
0.2019727969
0.2019650794
0.2019429634
0.2019544423
0.20199339
0.2020377362
0.2020751506
0.2021461457
0.2020750646
0.2020427119
0.2019895541
0.2019076553
0.2018476423
0.2018410547
0.2018857358
0.2019621578
0.2020268865
0.2018555801
0.2016969854
0.2017362442
0.2018144955
0.2018759914
0.2018107315
0.2017262748
0.2017648917
0.2018245248
0.2018093219
0.2018360145
0.2018194181
0.2018214755
0.2018773688
0.20183681
0.2020366781
0.2021571983
0.2021472881
0.2021165084
0.2021400604
0.2021351889
0.202020202
)


100
(
0.2121212121
0.2116394726
0.212050108
0.2120853737
0.2120644929
0.2120936403
0.2121350366
0.2120737941
0.2122341311
0.2120694133
0.211989336
0.2122122247
0.2120845576
0.2119431119
0.2120594735
0.2123246961
0.2120239288
0.2119298949
0.2120446639
0.2122894394
0.2121426389
0.2120212225
0.2120329974
0.2121584426
0.2123311275
0.2122240524
0.2120429276
0.2119459202
0.2119792736
0.2122722145
0.2122848369
0.2120337543
0.2119302655
0.2120176567
0.2121486736
0.2123647367
0.2122802591
0.2121955976
0.2120741939
0.2119955504
0.2120628661
0.2123902738
0.2121923201
0.2120073269
0.2119666
0.2120681091
0.2122016125
0.2124068917
0.2122884572
0.2121180147
0.2119962621
0.2119130621
0.2121732586
0.2123354337
0.2119463829
0.2119786593
0.2121147027
0.2121732809
0.2122058635
0.2122019558
0.2122251615
0.2122915926
0.2122333755
0.2122105168
0.2121366664
0.2120669392
0.21202435
0.2120166085
0.2120092567
0.2120370436
0.2121088255
0.212135499
0.2122706946
0.2121806851
0.2120622038
0.2120030241
0.2119319299
0.211846612
0.2119358003
0.2120598239
0.2119642662
0.211888439
0.2118757041
0.2119029434
0.2119655198
0.2118957242
0.211865818
0.2118504666
0.2118037723
0.2118222351
0.2117649963
0.2116820642
0.2117352822
0.2119938955
0.2122367795
0.2122861873
0.2122874538
0.2122327033
0.2122824207
0.2121212121
)


100
(
0.2222222222
0.2217533224
0.22212031
0.2221780824
0.2222396056
0.2221500632
0.2223077129
0.222205933
0.2221678246
0.2223744882
0.2221221643
0.2220865205
0.2223541927
0.22217333
0.2220360602
0.2221520746
0.2224460852
0.2221589346
0.2220567797
0.2221235489
0.2223055789
0.2223772259
0.2222289202
0.2221687695
0.2221444198
0.2222536221
0.2224347081
0.2221923153
0.2220396426
0.2220317871
0.2222196282
0.2224927615
0.2222693844
0.2221180712
0.2221534372
0.2222440994
0.2223375518
0.2225435568
0.2223067238
0.2221484404
0.22201078
0.2220755137
0.2222820695
0.2225018256
0.2222185883
0.2221862508
0.2222709547
0.2222557547
0.2221631201
0.2224789327
0.2222270367
0.2220401602
0.2220231896
0.2221807145
0.2223834262
0.22228285
0.2222651423
0.2221839733
0.2221494695
0.22216441
0.2221550472
0.2221349855
0.222153189
0.2221988987
0.2222581911
0.222308135
0.2223883855
0.2222974241
0.2222450343
0.2221946355
0.2221149339
0.2220453055
0.2220154707
0.222105401
0.2222134743
0.2223014566
0.2222495434