/*--------------------------------*- C++ -*----------------------------------*\
| =========                 |                                                 |
| \\      /  F ield         | OpenFOAM: The Open Source CFD Toolbox           |
|  \\    /   O peration     | Version:  2.3.1                                 |
|   \\  /    A nd           | Web:      www.OpenFOAM.org                      |
|    \\/     M anipulation  |                                                 |
\*---------------------------------------------------------------------------*/
FoamFile
{
    version     2.0;
    format      ascii;
    class       dictionary;
    location    "constant";
    object      DPSE2;
}
// * * * * * * * * * * * * * * * * * * * * * * * * * * * * * * * * * * * * * //

DPSE2_table
100
(

100
(
-1.533782678
-1.328476611
-1.027991016
-0.8875223071
-0.8029353442
-0.7417146708
-0.7030824279
-0.6713486241
-0.6430348618
-0.6243591395
-0.60188869
-0.5795126568
-0.5787325684
-0.5619494978
-0.5492343453
-0.5537527849
-0.5411974435
-0.5278435898
-0.5337473131
-0.5267137985
-0.5129415802
-0.5127832546
-0.513784912
-0.5035953727
-0.4963862579
-0.501375501
-0.5004710212
-0.4897247304
-0.484522354
-0.4890319824
-0.4864952676
-0.4787784364
-0.4786354375
-0.4838149816
-0.484907639
-0.4754723643
-0.4694644571
-0.4742787441
-0.4757996245
-0.4690637812
-0.4650558519
-0.4698343676
-0.4722376487
-0.468549728
-0.4673259508
-0.4728002614
-0.4782062996
-0.471929602
-0.463836059
-0.4681905849
-0.4709449997
-0.4660658
-0.4616071509
-0.4653578823
-0.467193777
-0.4655371244
-0.4664229188
-0.4716304376
-0.4740162406
-0.470228249
-0.4690501171
-0.4745256659
-0.476361986
-0.4729540203
-0.4734041802
-0.4793739138
-0.4790656088
-0.4756415442
-0.479683822
-0.4832805828
-0.4814714339
-0.4818088487
-0.4871463312
-0.4864456828
-0.4856688766
-0.4909359508
-0.4908675749
-0.4913315061
-0.4952583915
-0.4956885945
-0.4992735045
-0.5013226689
-0.5028478715
-0.5066128692
-0.5089614471
-0.5127863832
-0.5155301009
-0.5204169509
-0.5236942153
-0.5292476461
-0.5351091717
-0.5405369424
-0.5460874891
-0.5521213515
-0.559002488
-0.5651526505
-0.5692482499
-0.5725152104
-0.5536051683
-0.5323519879
)


100
(
-1.534703674
-1.337249593
-1.044253282
-0.9030146128
-0.8117211966
-0.7615208907
-0.719372016
-0.6827297571
-0.6617353724
-0.6330317612
-0.6217984623
-0.5993631346
-0.5886899988
-0.5857004649
-0.5683869472
-0.5620866122
-0.5681144061
-0.5549249316
-0.5420185228
-0.5496534455
-0.5448289414
-0.5305465321
-0.5288241258
-0.5359431143
-0.526213264
-0.5138757044
-0.5199870458
-0.5273271864
-0.517803997
-0.5048530907
-0.5100761333
-0.5163672572
-0.5095745721
-0.5013243393
-0.5074633761
-0.5145833325
-0.5140958402
-0.5042384456
-0.5019278812
-0.5086970909
-0.5123001797
-0.5057934581
-0.5018608891
-0.508369515
-0.5145923095
-0.5115454222
-0.5081775882
-0.5147822834
-0.5220525818
-0.5223535845
-0.5148473241
-0.5136694079
-0.5195057157
-0.5213265377
-0.5167805673
-0.5162176351
-0.5222781316
-0.5257081822
-0.525021241
-0.5254880763
-0.5371236965
-0.5448424997
-0.5352017998
-0.5328662887
-0.550278675
-0.5588074504
-0.5455242356
-0.5497004802
-0.5696275483
-0.5683125604
-0.5595539731
-0.5770501997
-0.5891852462
-0.5742663619
-0.5789699438
-0.6039332032
-0.6025489318
-0.5950666593
-0.6210426898
-0.6226684258
-0.6231925621
-0.6431301698
-0.6354064455
-0.6588777982
-0.673842947
-0.6642195864
-0.6902884708
-0.6942331354
-0.7047907174
-0.7215237243
-0.7258076073
-0.7372602815
-0.7425425897
-0.7515000397
-0.756987933
-0.7619710559
-0.7246911214
-0.4689973057
-0.2537774774
-0.2444321447
)


100
(
-1.545966203
-1.352251887
-1.061289964
-0.9124227553
-0.8226493328
-0.7756875692
-0.7350489963
-0.7024455595
-0.6821816825
-0.6564234233
-0.636719237
-0.6253908805
-0.6036447794
-0.603245311
-0.5979522499
-0.5809163279
-0.5793142167
-0.5869041098
-0.5738385983
-0.5602792821
-0.568377476
-0.567599691
-0.554212064
-0.5492291456
-0.5568333673
-0.5533395761
-0.5423412838
-0.5428111572
-0.5503015476
-0.5502590481
-0.5392668684
-0.5353471611
-0.5421330803
-0.5452710403
-0.538677024
-0.5356149439
-0.542986017
-0.5511515069
-0.5506365017
-0.5417147741
-0.5414798987
-0.5491238273
-0.5560948666
-0.5508166406
-0.5450959309
-0.5523575811
-0.5599668001
-0.5613637509
-0.5584154435
-0.5618063469
-0.5690996155
-0.5761970533
-0.5715922301
-0.5639906685
-0.5685623799
-0.5821808712
-0.5813149083
-0.5706117222
-0.576938024
-0.5912129784
-0.5916252758
-0.5938170418
-0.610669188
-0.6036931495
-0.598234012
-0.6167275942
-0.6357486002
-0.6241957159
-0.6236805765
-0.6488555529
-0.6595157349
-0.6538998277
-0.657968866
-0.6764034728
-0.6758070254
-0.6731634364
-0.68594794
-0.7077666717
-0.7135640509
-0.7127199435
-0.7260912582
-0.7373554331
-0.7453649994
-0.7493859368
-0.76922655
-0.7791801303
-0.7854333918
-0.8034444955
-0.8128900995
-0.8195336818
-0.8297357423
-0.8404143861
-0.8476739975
-0.8556301358
-0.8652984884
-0.8597779698
-0.7050313498
-0.3380432937
-0.1603787163
-0.1860644782
)


100
(
-1.555875845
-1.369970642
-1.066838086
-0.9181400579
-0.8537121817
-0.7942462225
-0.752007149
-0.7249438783
-0.6937674711
-0.6812178109
-0.6559003651
-0.6512117051
-0.634049857
-0.6129775774
-0.6211830616
-0.6146679887
-0.5983708984
-0.5996678902
-0.6095732793
-0.5969540915
-0.5814482364
-0.5898029039
-0.594744615
-0.5826649702
-0.5727675347
-0.5807337157
-0.5851340253
-0.5755443751
-0.5686421744
-0.5763008065
-0.5845225661
-0.5781624182
-0.5668874504
-0.5710233641
-0.5787716392
-0.5802546165
-0.5743242134
-0.5749869516
-0.5833779163
-0.5921608566
-0.5930759341
-0.5845724278
-0.5834232972
-0.5909842613
-0.6030675647
-0.5999978034
-0.5902049631
-0.5969694896
-0.6172885845
-0.6175096981
-0.6018173295
-0.60873907
-0.6280479004
-0.6316654523
-0.613794089
-0.6162250376
-0.6448750394
-0.6528127273
-0.629416296
-0.6369925847
-0.663107058
-0.6608485044
-0.6554700955
-0.6715428239
-0.6766483187
-0.6748587866
-0.683946725
-0.7008932928
-0.7099092408
-0.7094962338
-0.7108348791
-0.7215124951
-0.7367079601
-0.7457747721
-0.7433381658
-0.7531017817
-0.768955646
-0.7749967335
-0.7878953646
-0.79151417
-0.7986608216
-0.820456239
-0.8231442255
-0.8329751626
-0.8518631136
-0.8595807688
-0.8671104808
-0.8769334553
-0.8872956272
-0.9022448436
-0.9127316156
-0.9183826492
-0.9317327739
-0.9466623247
-0.9531702113
-0.9374992172
-0.6283650629
-0.2087245062
-0.107011535
-0.1339736852
)


100
(
-1.54222842
-1.368836691
-1.083231549
-0.9443455501
-0.8698080978
-0.8102086727
-0.7710122366
-0.7463193402
-0.7183927
-0.7049495396
-0.6850577214
-0.6602611781
-0.6640051175
-0.6461896691
-0.6306907049
-0.6413062909
-0.6350888621
-0.6195994511
-0.621802393
-0.6320103418
-0.6227482742
-0.607833208
-0.6132678008
-0.6226228686
-0.6143549789
-0.6012280395
-0.606684307
-0.6153100107
-0.6115471681
-0.6016128487
-0.6044639911
-0.6125884993
-0.6188056687
-0.6091775201
-0.6002697778
-0.6078894484
-0.6232846466
-0.6202342568
-0.6076429496
-0.6158031554
-0.6264355009
-0.6392381691
-0.631415891
-0.6194482835
-0.6324054043
-0.6617746063
-0.6547547386
-0.6284945457
-0.6446319484
-0.6761053679
-0.6722415408
-0.6469359256
-0.660717508
-0.6872077467
-0.6846527814
-0.6643632304
-0.6821834651
-0.7130901006
-0.7123051814
-0.7000463081
-0.7058228296
-0.7216902654
-0.7260692434
-0.7230478945
-0.7256841729
-0.7359349336
-0.7498635553
-0.7554724579
-0.7558118197
-0.7658392186
-0.7781863283
-0.7858392909
-0.7883975337
-0.8012492697
-0.811945455
-0.8199150642
-0.83972417
-0.8407453062
-0.8448415472
-0.8675433292
-0.8750807986
-0.8789478274
-0.8906714616
-0.9041554225
-0.9141676415
-0.9240076177
-0.9403714369
-0.9472052512
-0.9601470856
-0.9674272868
-0.9774178337
-0.9952312138
-1.008025717
-1.02762714
-1.035744988
-0.9749734087
-0.5148378314
-0.08452684685
-0.06292749039
-0.08618395277
)


100
(
-1.534989434
-1.370767505
-1.09881991
-0.9697856923
-0.8858881928
-0.8297152611
-0.7925063985
-0.7617175014
-0.7436395922
-0.7167867255
-0.7125334246
-0.691142438
-0.6755730752
-0.6783842374
-0.6615535076
-0.6514713412
-0.6626190409
-0.6580120593
-0.6432116865
-0.6444946471
-0.6547598302
-0.6507016736
-0.6368559738
-0.6376609818
-0.6474069077
-0.6477148223
-0.6361498061
-0.6325174511
-0.6396847792
-0.6467068858
-0.6389600902
-0.6311024416
-0.6387682201
-0.6570090497
-0.6504374241
-0.6305740856
-0.6374032552
-0.6708721897
-0.6715671871
-0.6413018932
-0.648534825
-0.6753284709
-0.6908856927
-0.666627401
-0.6542920172
-0.6876052044
-0.7261587912
-0.6985123151
-0.6703200239
-0.7020561746
-0.7317875735
-0.7196472418
-0.7034989758
-0.7200627605
-0.7385476965
-0.737715757
-0.7361541208
-0.744084115
-0.7516056772
-0.7633814271
-0.7699565828
-0.7662170825
-0.7665077122
-0.7783186723
-0.7930770563
-0.7978340043
-0.7953443199
-0.8027637871
-0.8164199752
-0.8263889244
-0.8318363727
-0.83606052
-0.844254332
-0.8569262028
-0.8757779274
-0.8746514176
-0.8827510518
-0.9046450613
-0.9133299412
-0.9202104648
-0.928407809
-0.9459089833
-0.955585396
-0.9630362458
-0.9786831597
-0.9890679558
-0.9925647377
-1.012817218
-1.021721151
-1.023453756
-1.052257436
-1.064253193
-1.081162052
-1.103759273
-1.114076325
-0.9378246585
-0.3827957656
-0.009545480614
-0.01940175441
-0.04676302922
)


100
(
-1.534046964
-1.377182009
-1.116802403
-0.9807791762
-0.89717646
-0.8500700745
-0.8120522559
-0.7797986345
-0.767337153
-0.7434726851
-0.7240703161
-0.7204300464
-0.6998414998
-0.6936767203
-0.6950117608
-0.6790885659
-0.6724141876
-0.6838974268
-0.6821528761
-0.6678660219
-0.6665695782
-0.6770387314
-0.6802681709
-0.6686105542
-0.6639871576
-0.6746497623
-0.673625808
-0.6600828961
-0.6567447426
-0.6692120969
-0.6855140407
-0.674089987
-0.6576073713
-0.6733093797
-0.6993609361
-0.685485042
-0.6587317044
-0.6808122798
-0.7214463485
-0.7094654915
-0.6744327285
-0.69182207
-0.7262047459
-0.7314173549
-0.7000455676
-0.7080506569
-0.7470113359
-0.7653850093
-0.741569603
-0.7313012936
-0.7600921023
-0.7704287746
-0.7723426874
-0.7643372974
-0.7640027505
-0.7735112447
-0.7863267753
-0.7952213792
-0.792003515
-0.793183085
-0.80648373
-0.821940353
-0.8342066038
-0.8319691797
-0.8289111116
-0.8389854552
-0.8513025527
-0.8658066292
-0.8703903349
-0.8695084133
-0.8791411698
-0.8953782909
-0.9036454187
-0.9040788813
-0.9116578739
-0.9287662738
-0.9449063142
-0.9500419801
-0.9579095385
-0.9763015447
-0.9844338605
-0.9953496634
-1.013423435
-1.022535561
-1.029376779
-1.039925283
-1.055353323
-1.06967773
-1.082552196
-1.09194789
-1.102329646
-1.128232591
-1.156488685
-1.176398202
-1.183973118
-0.8829723927
-0.2597992843
0.03744994941
0.01252865475
0.002464877481
)


100
(
-1.541793272
-1.389002979
-1.123990697
-0.9876255627
-0.9198596703
-0.8677441792
-0.8309168947
-0.8024246695
-0.7749053175
-0.7685097578
-0.7450946227
-0.739293193
-0.7307110332
-0.710873943
-0.7121092123
-0.7134417672
-0.6983314834
-0.693046554
-0.7046471012
-0.7076573783
-0.6952622128
-0.6909413724
-0.7022147384
-0.7136749961
-0.7016976881
-0.6880193289
-0.699192846
-0.6954258889
-0.6813490759
-0.6801146969
-0.7106409831
-0.7274947824
-0.69724216
-0.6824035051
-0.7162221035
-0.7444973878
-0.7120998161
-0.6894865577
-0.7283786201
-0.7686988217
-0.743833676
-0.7122902522
-0.7402978013
-0.7724385935
-0.7664668807
-0.7511077816
-0.7653952695
-0.7883391634
-0.7967052437
-0.7952597373
-0.7873824145
-0.7887453464
-0.79865083
-0.8127673835
-0.8272539345
-0.8203044322
-0.8116269595
-0.8240792978
-0.8394393262
-0.8520289367
-0.848854604
-0.8476210456
-0.8615353433
-0.8746320743
-0.8879826737
-0.8969636167
-0.8960374187
-0.8966678012
-0.9130095744
-0.9316718982
-0.9348080985
-0.9330113935
-0.9427971138
-0.9581223373
-0.9700039084
-0.9744440132
-0.9833858975
-1.001702998
-1.009253659
-1.021676552
-1.039459485
-1.046704529
-1.053770059
-1.064384202
-1.086911852
-1.101633631
-1.099773174
-1.114245254
-1.138605301
-1.152703545
-1.174757065
-1.194065253
-1.215724085
-1.247795263
-1.249636195
-0.8160893069
-0.1510414534
0.06911650564
0.03685801737
0.01913174575
)


100
(
-1.544033406
-1.393965333
-1.128025571
-1.001125787
-0.9363602222
-0.8830413448
-0.8452910192
-0.8231430242
-0.7962262234
-0.7875308753
-0.7725329047
-0.7495410129
-0.7552531661
-0.7433954951
-0.724357237
-0.7308580333
-0.7337986155
-0.7204086732
-0.7161198266
-0.7288236927
-0.7376996887
-0.7243997005
-0.7130429633
-0.7245470824
-0.7393862387
-0.7345574119
-0.718529662
-0.7234219612
-0.7172989532
-0.7023250401
-0.7105288889
-0.754236341
-0.763389855
-0.7201683698
-0.7202953262
-0.7616995177
-0.7773143883
-0.7380308849
-0.7357116385
-0.7794950607
-0.8003836062
-0.7777846349
-0.7648530115
-0.7914501492
-0.8046056854
-0.8105015212
-0.8031332451
-0.8014128326
-0.8128408548
-0.822965373
-0.8388302688
-0.8455549091
-0.8340461966
-0.8321439727
-0.8476858183
-0.8650149268
-0.8766494539
-0.8732248174
-0.8671930778
-0.8748311163
-0.8880263213
-0.9049618177
-0.913305741
-0.91104295
-0.9132340021
-0.9295016919
-0.9485967427
-0.9544788881
-0.9518337134
-0.9575284402
-0.9748196618
-0.9930300603
-0.9993104988
-0.9965339595
-1.007504466
-1.027299879
-1.033759626
-1.045647991
-1.062529304
-1.068945265
-1.075506411
-1.081648693
-1.106912447
-1.129671763
-1.129713746
-1.132395562
-1.153852606
-1.178483477
-1.190440448
-1.211861857
-1.223425509
-1.255158474
-1.29587471
-1.306945502
-1.279911072
-0.7387155086
-0.06297695693
0.09348751421
0.0628701689
0.0402292383
)


100
(
-1.532106311
-1.391577211
-1.138562022
-1.022759843
-0.9500268909
-0.8979999422
-0.8638736565
-0.8392723924
-0.8202412964
-0.7945627442
-0.7987689942
-0.7791377794
-0.7596154489
-0.7719216788
-0.7585762933
-0.741285175
-0.7531245906
-0.7608268968
-0.7468782268
-0.7378288152
-0.7500236776
-0.7663437033
-0.7545629494
-0.7359543263
-0.7471268824
-0.7626454314
-0.7692508907
-0.7538244301
-0.7475420633
-0.7392359095
-0.7226128847
-0.753101296
-0.8013294823
-0.7890265092
-0.7449485054
-0.7647115074
-0.8083237761
-0.8060578914
-0.7797440349
-0.7864316693
-0.8176091306
-0.8296453206
-0.8270087336
-0.8147625662
-0.8171812125
-0.8282321001
-0.8434509185
-0.8588242994
-0.8514973383
-0.8435860131
-0.8554818072
-0.8714965846
-0.8864439543
-0.8913046557
-0.8820569355
-0.8826895904
-0.8981487022
-0.9107292874
-0.9250274198
-0.9332754298
-0.9283246544
-0.9264438044
-0.9426855421
-0.9640632047
-0.9694787916
-0.9624804722
-0.9695036887
-0.987218799
-1.00453973
-1.017527142
-1.016911273
-1.019817564
-1.039657806
-1.054752445
-1.056550412
-1.069899249
-1.086603848
-1.091632642
-1.097140426
-1.103427931
-1.124354356
-1.147125555
-1.151545645
-1.152573442
-1.167876578
-1.196226083
-1.209704012
-1.217320684
-1.243877967
-1.260096305
-1.293740666
-1.317570961
-1.342393386
-1.409558892
-1.291214546
-0.6049868612
0.02088030999
0.1117701824
0.08842957692
0.06473469726
)


100
(
-1.523389233
-1.390284014
-1.150322839
-1.033423672
-0.9603500931
-0.9150243845
-0.8820107769
-0.8523080418
-0.843166312
-0.8204181942
-0.8037178935
-0.8070907919
-0.7880158547
-0.7769229513
-0.7926933615
-0.7807425339
-0.7625801054
-0.7745708665
-0.7868086848
-0.7735670139
-0.7594087928
-0.77188618
-0.7889200118
-0.7860173744
-0.7679227847
-0.7703410081
-0.7863229197
-0.8031523873
-0.791273659
-0.7749283633
-0.7612541162
-0.7566000633
-0.7994012226
-0.8367830422
-0.8148494863
-0.7903288372
-0.813714936
-0.837456287
-0.8403350008
-0.8297423469
-0.8277238993
-0.838707472
-0.8501790792
-0.8684689602
-0.8709044921
-0.8567006664
-0.8588919053
-0.874926256
-0.8940093257
-0.908310531
-0.897268483
-0.8874629102
-0.9040734981
-0.9169723649
-0.9280459019
-0.9452687661
-0.9442902318
-0.9367459301
-0.9463474487
-0.9635895481
-0.9841244181
-0.9845548568
-0.9749672814
-0.9834584291
-0.9986148371
-1.013538315
-1.029313138
-1.028766125
-1.027710555
-1.050140951
-1.075209165
-1.07167432
-1.073005573
-1.098945161
-1.11348492
-1.117878256
-1.122777117
-1.127116131
-1.141045581
-1.163285676
-1.174845786
-1.178367773
-1.181475617
-1.206561663
-1.237091731
-1.237613942
-1.251207668
-1.284785951
-1.29612667
-1.325267712
-1.351046663
-1.378054349
-1.444472237
-1.450562533
-1.200891075
-0.4459407567
0.09624034999
0.1247934362
0.09921365518
0.06650027715
)


100
(
-1.518385897
-1.392429074
-1.161769658
-1.040587044
-0.9731106672
-0.9296264915
-0.8993144764
-0.8730565305
-0.8505869965
-0.8453174067
-0.8230479319
-0.8184699821
-0.8191897866
-0.8026548907
-0.7981346916
-0.8148562128
-0.8023088886
-0.7830236672
-0.7952803086
-0.8140273553
-0.8018843108
-0.7814185951
-0.794381804
-0.8114697711
-0.8188754133
-0.8019604375
-0.7939024965
-0.8100866641
-0.8262021029
-0.8298596878
-0.8147146815
-0.7816401273
-0.7998937337
-0.8489238555
-0.8635268416
-0.8526601897
-0.8390418713
-0.8475063579
-0.8562406042
-0.8727835204
-0.8769733867
-0.8657765379
-0.8672433773
-0.8797168718
-0.8987951207
-0.9175990721
-0.9117797002
-0.8968817174
-0.9065757741
-0.9251797033
-0.9364978822
-0.9464494241
-0.9490317836
-0.9473110046
-0.9528145804
-0.9628571248
-0.9850551777
-1.005533862
-0.9913331565
-0.9810050736
-1.001610129
-1.019118742
-1.027794584
-1.037480583
-1.039403782
-1.039092822
-1.059801636
-1.08784661
-1.079655495
-1.072944334
-1.098060683
-1.124436056
-1.138765829
-1.140910996
-1.147102405
-1.151656163
-1.157264889
-1.181457426
-1.20126606
-1.204043037
-1.207856775
-1.22071206
-1.249956879
-1.263334049
-1.261010508
-1.281392225
-1.315229058
-1.326014191
-1.355354904
-1.387339259
-1.416828957
-1.464044473
-1.494267654
-1.489553364
-1.095307778
-0.2570357644
0.152713416
0.1292336281
0.1099919864
0.07227410019
)


100
(
-1.51982353
-1.398506889
-1.161070538
-1.043854229
-0.9901817032
-0.9434161753
-0.9084337986
-0.8919238802
-0.8683488608
-0.862829393
-0.8495828172
-0.8287133679
-0.8367471122
-0.8358905024
-0.818231611
-0.8163513041
-0.8349006486
-0.8251935353
-0.8051362764
-0.8162095143
-0.8349364401
-0.8297361546
-0.8103901479
-0.8161313392
-0.8331514289
-0.8494915392
-0.8371554688
-0.8201553154
-0.832908174
-0.8483417592
-0.8612899301
-0.8542981063
-0.8316646408
-0.8464415185
-0.874308837
-0.8809354199
-0.8913454255
-0.8821509393
-0.8703622383
-0.8822364207
-0.8998423855
-0.922083621
-0.9175783567
-0.9009980616
-0.9085206646
-0.9279975922
-0.9445641424
-0.9562160678
-0.953290428
-0.9449794332
-0.9549411519
-0.9688163571
-0.982737555
-1.007697956
-1.004027241
-0.9849446758
-0.9975699898
-1.020245568
-1.037995932
-1.045272161
-1.038889097
-1.040089757
-1.053491259
-1.07230779
-1.098565816
-1.090045275
-1.080077001
-1.104557821
-1.124398715
-1.145006995
-1.157467993
-1.155353736
-1.159602924
-1.166608766
-1.171126127
-1.195428241
-1.22213293
-1.231804109
-1.238286564
-1.238458983
-1.256957554
-1.282139664
-1.291411552
-1.291826199
-1.317271974
-1.346309665
-1.347056489
-1.380018406
-1.429603115
-1.461159479
-1.470214993
-1.493102287
-1.545030013
-1.562621083
-0.9614316834
-0.06625194553
0.1724096325
0.1382641217
0.1143708285
0.06927364371
)


100
(
-1.514033176
-1.394624197
-1.162070997
-1.057841717
-0.9987980685
-0.9549910538
-0.9232594074
-0.9051461819
-0.8890411529
-0.8667907196
-0.8753733927
-0.8585194392
-0.8386072944
-0.85361758
-0.8513355664
-0.8334310307
-0.8337134112
-0.8537854784
-0.8488361718
-0.8281405482
-0.8356594236
-0.8543846243
-0.8584048786
-0.8401587702
-0.8364074214
-0.8534814466
-0.8689483529
-0.8721790082
-0.8569366739
-0.8539523207
-0.8689762106
-0.881130359
-0.8960920764
-0.8889428228
-0.8774974942
-0.8889595164
-0.9004075579
-0.9215177227
-0.9306289324
-0.9121544376
-0.9061992508
-0.9251406448
-0.9469211954
-0.9621004086
-0.9536205593
-0.9413370665
-0.9541299511
-0.968665762
-0.9818244284
-1.003332994
-1.006653396
-0.9916898689
-0.9928550813
-1.013034971
-1.039402961
-1.056635838
-1.039973893
-1.03004311
-1.050349217
-1.064239275
-1.085599611
-1.100893251
-1.090206861
-1.085506067
-1.112863967
-1.138950997
-1.13844946
-1.145964112
-1.165005161
-1.173627416
-1.181418923
-1.186391987
-1.189931057
-1.202259961
-1.23523589
-1.258984648
-1.255463319
-1.250233173
-1.258466711
-1.293532693
-1.318301865
-1.321654249
-1.322599219
-1.347487239
-1.37566275
-1.375284859
-1.411355625
-1.470576746
-1.473937785
-1.49308064
-1.526294029
-1.585989957
-1.659778412
-1.541018407
-0.7746476574
0.04709755476
0.1775858533
0.1457228847
0.1140085973
0.06219269685
)


100
(
-1.500585808
-1.388671148
-1.167481608
-1.066274082
-1.005351796
-0.9648679474
-0.9371792306
-0.9109425299
-0.9076161386
-0.8884302313
-0.8751873449
-0.88533104
-0.8673261677
-0.8526432741
-0.8698843697
-0.8681744679
-0.8492100365
-0.8511602657
-0.8715699629
-0.8722288371
-0.8521331316
-0.8537846484
-0.8723852881
-0.8881109282
-0.8710848996
-0.85518451
-0.8724033876
-0.8870303062
-0.9004251044
-0.8938359413
-0.8807063287
-0.8905643704
-0.9053995259
-0.9207637261
-0.9333473648
-0.9203141827
-0.9094776709
-0.9217720084
-0.9437452118
-0.9665439157
-0.9602328775
-0.9404872457
-0.9486420008
-0.970232659
-0.982940724
-0.9947427591
-0.9977241712
-0.9926716481
-0.9959726992
-1.005400336
-1.030185215
-1.060230957
-1.041667801
-1.01873101
-1.042712345
-1.067592872
-1.077533246
-1.095083095
-1.091924091
-1.078198576
-1.088104832
-1.12150062
-1.156088085
-1.137095396
-1.126068868
-1.155626147
-1.181904949
-1.195920908
-1.197713019
-1.202365152
-1.211008256
-1.214583165
-1.229411943
-1.255689868
-1.270048803
-1.276615566
-1.279923502
-1.288373893
-1.323020427
-1.352040851
-1.347774187
-1.341653495
-1.373276556
-1.406390172
-1.411458446
-1.434749915
-1.467114559
-1.477120544
-1.520281272
-1.55976503
-1.58519596
-1.678241674
-1.738522808
-1.528672971
-0.6579300462
0.1126676317
0.179614166
0.1525243382
0.1094344116
0.04369382032
)


100
(
-1.488210657
-1.382890855
-1.173869607
-1.068908907
-1.010522002
-0.9731843975
-0.9496644648
-0.9262836741
-0.9090995751
-0.9096112548
-0.8925899298
-0.8881200624
-0.8944201971
-0.8771878446
-0.8663768837
-0.8855397529
-0.8866043717
-0.8669090015
-0.8680760543
-0.8883926559
-0.8966409771
-0.8775811717
-0.8710237868
-0.8895516618
-0.9052111189
-0.9022223861
-0.88717037
-0.8903342148
-0.9042366836
-0.9179982303
-0.9350877619
-0.9255923891
-0.9116192101
-0.9236410915
-0.9402873561
-0.9648325424
-0.9639186759
-0.9419014918
-0.9429735634
-0.9651656004
-0.9858663777
-0.9987914658
-0.9908122836
-0.9800877968
-0.9924220964
-1.006841845
-1.02008137
-1.051044423
-1.047551213
-1.019363529
-1.028800249
-1.057026339
-1.083515837
-1.09174095
-1.07598823
-1.070048276
-1.089355871
-1.097728488
-1.134337508
-1.149969526
-1.116870406
-1.125164054
-1.160418887
-1.177776667
-1.19605011
-1.208370172
-1.205795967
-1.210264391
-1.218803506
-1.223097854
-1.225519032
-1.257383388
-1.289255786
-1.295382583
-1.302534762
-1.307792772
-1.314968589
-1.341333167
-1.363554122
-1.36929225
-1.370772792
-1.398363773
-1.435625754
-1.436331565
-1.450429984
-1.486979731
-1.524460846
-1.562003645
-1.553592716
-1.586081276
-1.637814974
-1.676458456
-1.747486231
-1.565553013
-0.6435828068
0.149922828
0.1829227255
0.1575556543
0.1030377096
0.02150338619
)


100
(
-1.479310603
-1.380171351
-1.173180463
-1.069011787
-1.020355126
-0.9816781151
-0.952117641
-0.9404843699
-0.9210036573
-0.9204476974
-0.9154190907
-0.8968148856
-0.9007015996
-0.9057796576
-0.888257852
-0.8801296436
-0.9009242975
-0.90695472
-0.886758475
-0.884495685
-0.9045658525
-0.9224350627
-0.9049982957
-0.8881498883
-0.9062019175
-0.9209269383
-0.9348864804
-0.9217636158
-0.9097045266
-0.9260831787
-0.9390125473
-0.9601341545
-0.9656355492
-0.9455289264
-0.941424442
-0.9597627658
-0.9838259913
-1.00243622
-0.988812208
-0.9700570078
-0.9858983111
-1.004903421
-1.016495028
-1.035308128
-1.038218967
-1.024841883
-1.027201611
-1.043947566
-1.074537133
-1.098987079
-1.072168344
-1.054211858
-1.083999446
-1.103001019
-1.112041657
-1.13298297
-1.126869492
-1.107235819
-1.13021085
-1.170896732
-1.196266595
-1.170222005
-1.163175713
-1.204075324
-1.224169297
-1.230017539
-1.234151104
-1.239195077
-1.246598607
-1.258603083
-1.29310461
-1.311238301
-1.30553792
-1.311548156
-1.318914261
-1.337184509
-1.368032104
-1.392861177
-1.405091537
-1.398259105
-1.415123604
-1.444057573
-1.457699457
-1.477011776
-1.543118022
-1.577802907
-1.538263341
-1.56364826
-1.626852945
-1.670412364
-1.781279823
-1.786218403
-1.794394168
-1.460574157
-0.4512851173
0.1745413093
0.1874875322
0.1677294553
0.09593739549
-0.00203704176
)


100
(
-1.474151941
-1.377431039
-1.168974376
-1.071861582
-1.02363466
-0.9887043956
-0.9617905373
-0.9498748456
-0.9382630103
-0.9221269231
-0.9338480251
-0.9212818797
-0.9006689207
-0.9141894884
-0.9195136109
-0.9009959849
-0.8953839147
-0.9162468887
-0.9279540264
-0.90891463
-0.9006318504
-0.9205562074
-0.9372009032
-0.9332091215
-0.9181966451
-0.9226330768
-0.9364813435
-0.9524716709
-0.9629834385
-0.9508473868
-0.9434660014
-0.9553762204
-0.9780281916
-1.005204607
-0.98704144
-0.9613188849
-0.9792475982
-1.003201541
-1.019255185
-1.032687855
-1.020959229
-1.010234086
-1.025959791
-1.037882159
-1.059910919
-1.093867082
-1.075990541
-1.045251413
-1.06867863
-1.099452994
-1.118002725
-1.124376889
-1.113211577
-1.107963867
-1.118677485
-1.14132094
-1.184959209
-1.17641836
-1.136750833
-1.166960963
-1.207275225
-1.222093479
-1.239257709
-1.248669166
-1.244394739
-1.242040853
-1.251425176
-1.255491792
-1.268476934
-1.303286064
-1.327017294
-1.334985206
-1.34380072
-1.349756546
-1.374828386
-1.399645583
-1.399507592
-1.403633455
-1.416620679
-1.439071244
-1.483887682
-1.50309928
-1.486778896
-1.531631716
-1.57523329
-1.571680839
-1.60644003
-1.635932843
-1.674863594
-1.717381209
-1.77901858
-1.870815169
-1.842450775
-1.413483543
-0.4101232021
0.2212340208
0.1879130216
0.1762290262
0.08781248068
-0.03010031315
)


100
(
-1.459952297
-1.367760442
-1.168654526
-1.080286644
-1.027372852
-0.9915086152
-0.9712810884
-0.9507413192
-0.9544243483
-0.941077698
-0.9274660005
-0.9434468068
-0.9288160551
-0.9089012295
-0.9274085677
-0.9354410415
-0.9163586444
-0.9104274284
-0.9312311863
-0.9504926368
-0.9331563605
-0.9168138656
-0.9360406412
-0.9515054672
-0.9634720867
-0.9503567458
-0.9410596839
-0.9572526966
-0.9700535733
-0.9976215115
-0.9907701748
-0.9632397532
-0.9714893327
-0.9958855891
-1.022760109
-1.029815753
-1.005705811
-0.9978533016
-1.022553225
-1.036246719
-1.049058713
-1.074834137
-1.066678588
-1.044022335
-1.054849136
-1.083288556
-1.118002395
-1.127764063
-1.098033458
-1.092798539
-1.123875095
-1.132969938
-1.15243941
-1.171795569
-1.15387391
-1.136190661
-1.174095939
-1.218686715
-1.225853224
-1.205629765
-1.212452593
-1.244005145
-1.254645146
-1.263124117
-1.268354174
-1.274186908
-1.282040679
-1.305500754
-1.343886797
-1.353239711
-1.342742756
-1.345194865
-1.355001798
-1.380643681
-1.411180499
-1.434381841
-1.453688257
-1.461946077
-1.464160764
-1.476212763
-1.496014754
-1.522256228
-1.566369672
-1.5953989
-1.587887079
-1.61498405
-1.679420151
-1.738840374
-1.722881828
-1.74928506
-1.83712149
-1.858197764
-1.948014217
-1.400725916
-0.2248022973
0.2654706488
0.1853982005
0.1825928427
0.08090734205
-0.05378778684
)


100
(
-1.445116773
-1.358290769
-1.169999119
-1.079538009
-1.029280693
-0.9960864122
-0.979843302
-0.9619862241
-0.9523517815
-0.9580249517
-0.9431072928
-0.9368586816
-0.9520227783
-0.9379814473
-0.920263676
-0.9402971395
-0.9533711355
-0.934198355
-0.9249850896
-0.9455905073
-0.9638524435
-0.9582869293
-0.9436833399
-0.9510733987
-0.9655179473
-0.9817789699
-0.9881861924
-0.9757766
-0.9723895331
-0.986441036
-1.013427707
-1.029525892
-1.003654337
-0.9878457856
-1.013402544
-1.038671321
-1.052085625
-1.051350371
-1.038913199
-1.042106831
-1.055439666
-1.065654532
-1.101410812
-1.120858499
-1.087370119
-1.0744183
-1.107210399
-1.138721982
-1.151140057
-1.155387518
-1.14313489
-1.13676887
-1.14481924
-1.182378211
-1.231296309
-1.20404406
-1.172580091
-1.208431967
-1.239783408
-1.259558146
-1.273686045
-1.277994026
-1.285074773
-1.284285368
-1.28358234
-1.286943476
-1.311490325
-1.347521498
-1.36050741
-1.370226195
-1.382023418
-1.389597387
-1.41589023
-1.450058663
-1.448739499
-1.436454973
-1.458661369
-1.4896378
-1.514301237
-1.551028097
-1.54968326
-1.561170456
-1.613895833
-1.628001493
-1.644879234
-1.699883205
-1.719799644
-1.743125154
-1.791583956
-1.860539604
-1.883419231
-1.980419068
-1.956322725
-1.218639
-0.1251127016
0.2973359109
0.1837163792
0.1872545078
0.073466161
-0.07533101838
)


100
(
-1.430633072
-1.349307848
-1.169531265
-1.078291543
-1.033697833
-1.000957832
-0.9765183964
-0.9722061176
-0.9602936346
-0.9618341647
-0.9614461669
-0.9461036
-0.9476509604
-0.9626739214
-0.9475340721
-0.9326760977
-0.9527908283
-0.9719155663
-0.9541131238
-0.9391236284
-0.9598736562
-0.9765810303
-0.9848613398
-0.9719483732
-0.9671437163
-0.9833018187
-0.9987689278
-1.023915259
-1.01085777
-0.9860839984
-1.001956361
-1.028394822
-1.05333303
-1.045569585
-1.021517351
-1.030078432
-1.053787634
-1.066066619
-1.083377402
-1.091380373
-1.076513729
-1.070373052
-1.085845416
-1.12220624
-1.156229508
-1.138282259
-1.112325881
-1.131145606
-1.1541856
-1.159268326
-1.194634436
-1.202599398
-1.165687904
-1.169903204
-1.215099438
-1.25427933
-1.25361771
-1.243491745
-1.255106897
-1.274257217
-1.28491092
-1.293612176
-1.298216474
-1.30389247
-1.311455252
-1.343593611
-1.382546804
-1.396383056
-1.388189096
-1.377857388
-1.387328837
-1.416688662
-1.45079299
-1.470196452
-1.490183276
-1.505391789
-1.523003675
-1.532580211
-1.528688572
-1.553880534
-1.593798301
-1.636595926
-1.656196168
-1.640962552
-1.69365819
-1.752872682
-1.792936968
-1.813064701
-1.83285342
-1.881765235
-1.931189408
-2.005663018
-2.009747561
-1.212295899
-0.002836370508
0.3187722091
0.1845647396
0.1930751816
0.07112713211
-0.08832355361
)


100
(
-1.421818592
-1.344073334
-1.162885094
-1.075970517
-1.033646666
-1.00424478
-0.9819275399
-0.9767462798
-0.9720120855
-0.9609177579
-0.9712078665
-0.9664804446
-0.9492895868
-0.9580361049
-0.9752139001
-0.9594727114
-0.9447790069
-0.9649578658
-0.9838240844
-0.9754833606
-0.9616024782
-0.9732524128
-0.9886056768
-1.004880886
-1.005276743
-0.9932079277
-0.9965504016
-1.012905201
-1.041532141
-1.046512884
-1.019259184
-1.016670694
-1.042939119
-1.065662107
-1.07970983
-1.068230314
-1.055198745
-1.06813995
-1.079855067
-1.10073774
-1.140152829
-1.126330025