/*--------------------------------*- C++ -*----------------------------------*\
| =========                 |                                                 |
| \\      /  F ield         | OpenFOAM: The Open Source CFD Toolbox           |
|  \\    /   O peration     | Version:  2.3.1                                 |
|   \\  /    A nd           | Web:      www.OpenFOAM.org                      |
|    \\/     M anipulation  |                                                 |
\*---------------------------------------------------------------------------*/
FoamFile
{
    version     2.0;
    format      ascii;
    class       dictionary;
    location    "constant";
    object      DPSI31;
}
// * * * * * * * * * * * * * * * * * * * * * * * * * * * * * * * * * * * * * //

DPSI31_table
100
(

100
(
1.098515729e-06
9.185663929e-07
6.52305357e-07
5.173460809e-07
4.398740303e-07
3.811458776e-07
3.379910102e-07
3.046931474e-07
2.775443016e-07
2.565277076e-07
2.339409509e-07
2.129088439e-07
1.991373669e-07
1.788203904e-07
1.621063481e-07
1.533763581e-07
1.341472885e-07
1.170980832e-07
1.128599789e-07
9.905551266e-08
8.242175491e-08
7.666531317e-08
7.103902399e-08
5.625600654e-08
4.52810508e-08
4.392877083e-08
3.506983376e-08
1.612859384e-08
5.348857931e-09
4.987746724e-09
-3.299393783e-09
-1.602364844e-08
-2.062441324e-08
-2.044775933e-08
-2.852506008e-08
-5.343162452e-08
-6.912596381e-08
-6.783284938e-08
-7.373506501e-08
-9.383015335e-08
-1.065040137e-07
-1.047673122e-07
-1.086731715e-07
-1.236506973e-07
-1.325671037e-07
-1.303532561e-07
-1.298710057e-07
-1.584590732e-07
-1.838469772e-07
-1.806549716e-07
-1.826791972e-07
-2.034872791e-07
-2.190141933e-07
-2.158480131e-07
-2.189050393e-07
-2.303069065e-07
-2.350251914e-07
-2.312179952e-07
-2.381213484e-07
-2.621428365e-07
-2.748127902e-07
-2.700223877e-07
-2.809045046e-07
-3.075287692e-07
-3.177691059e-07
-3.116396487e-07
-3.332016103e-07
-3.599881317e-07
-3.58943776e-07
-3.643074395e-07
-3.915764878e-07
-4.050330318e-07
-4.019897666e-07
-4.291858436e-07
-4.490034502e-07
-4.463551632e-07
-4.725178394e-07
-4.892359314e-07
-4.960859504e-07
-5.200019772e-07
-5.260275514e-07
-5.494710625e-07
-5.676556113e-07
-5.835873566e-07
-6.018092292e-07
-6.214602818e-07
-6.430475343e-07
-6.597893081e-07
-6.870029982e-07
-7.033250127e-07
-7.235428478e-07
-7.530158716e-07
-7.873549948e-07
-8.245198251e-07
-8.620782521e-07
-9.241060315e-07
-1.018624392e-06
-1.157445002e-06
-2.191877351e-06
-3.110646993e-06
)


100
(
1.072366958e-06
9.075816909e-07
6.515983287e-07
5.156588171e-07
4.425608787e-07
3.812756253e-07
3.405047934e-07
3.087164741e-07
2.815172487e-07
2.625375512e-07
2.383270984e-07
2.188474317e-07
2.029376603e-07
1.834628394e-07
1.698405146e-07
1.588825382e-07
1.396981489e-07
1.267251695e-07
1.204180307e-07
1.050471409e-07
9.149174725e-08
8.506286032e-08
7.697666242e-08
6.281390646e-08
5.39107799e-08
5.027670043e-08
4.175401439e-08
2.76116164e-08
1.762688764e-08
1.220552041e-08
2.164113768e-09
-9.000591382e-09
-1.537255186e-08
-1.778823115e-08
-2.278785167e-08
-3.334829409e-08
-4.733531245e-08
-5.755350909e-08
-6.674428632e-08
-7.793246664e-08
-8.983146137e-08
-9.910246289e-08
-1.064282087e-07
-1.143051927e-07
-1.226183737e-07
-1.298861627e-07
-1.343055284e-07
-1.397967793e-07
-1.487553476e-07
-1.620563261e-07
-1.77592912e-07
-1.908659878e-07
-2.003303234e-07
-2.100166147e-07
-2.222606466e-07
-2.319819437e-07
-2.370518319e-07
-2.412717267e-07
-2.475672419e-07
-2.572723147e-07
-2.56247644e-07
-2.54181093e-07
-2.807240168e-07
-3.073607224e-07
-2.920815758e-07
-2.85133803e-07
-3.362492544e-07
-3.502733756e-07
-3.200070644e-07
-3.417691636e-07
-3.901503046e-07
-3.693715705e-07
-3.587392511e-07
-4.463404706e-07
-4.596114656e-07
-3.771426905e-07
-4.404989236e-07
-5.006341735e-07
-4.098701722e-07
-4.819932854e-07
-5.072607405e-07
-4.535317504e-07
-5.727063e-07
-4.834998366e-07
-4.998587365e-07
-6.075320344e-07
-5.096396847e-07
-6.093832667e-07
-6.011266702e-07
-6.040267163e-07
-6.742824869e-07
-7.334147718e-07
-7.987977491e-07
-8.784278485e-07
-9.523943591e-07
-1.095819345e-06
-1.695453363e-06
-2.820364065e-06
-2.968151915e-06
-2.400767449e-06
)


100
(
1.04407181e-06
8.95680584e-07
6.512259449e-07
5.168962145e-07
4.439413352e-07
3.848628149e-07
3.419775751e-07
3.113023341e-07
2.841778322e-07
2.650803442e-07
2.447910125e-07
2.229697195e-07
2.09184681e-07
1.894134228e-07
1.72724305e-07
1.64876757e-07
1.510679395e-07
1.312601634e-07
1.240605177e-07
1.182546489e-07
1.01030341e-07
8.854674922e-08
8.407826059e-08
7.556804207e-08
6.065562998e-08
5.229051667e-08
4.920670213e-08
4.111490252e-08
2.807597978e-08
1.761757249e-08
1.180631783e-08
2.744461844e-09
-9.149179245e-09
-1.695337087e-08
-1.97893846e-08
-2.373634127e-08
-3.194835113e-08
-4.233629041e-08
-5.295841112e-08
-6.340878094e-08
-7.543652434e-08
-8.594066821e-08
-9.526858388e-08
-1.046183111e-07
-1.144125069e-07
-1.235075715e-07
-1.293703926e-07
-1.350905532e-07
-1.420742126e-07
-1.498039426e-07
-1.559330095e-07
-1.652917843e-07
-1.84268068e-07
-2.045631504e-07
-2.12551688e-07
-2.122686061e-07
-2.260278151e-07
-2.470267283e-07
-2.530117939e-07
-2.479153027e-07
-2.581331573e-07
-2.637443839e-07
-2.601030131e-07
-2.792277639e-07
-3.02841294e-07
-2.87793127e-07
-2.743879677e-07
-3.182825963e-07
-3.334590058e-07
-3.00780236e-07
-3.005261646e-07
-3.449845621e-07
-3.580896778e-07
-3.420443151e-07
-3.975609662e-07
-4.894084432e-07
-4.399286441e-07
-3.472203548e-07
-4.141496607e-07
-4.523211767e-07
-4.64721862e-07
-4.431754373e-07
-5.237882615e-07
-5.677754365e-07
-4.549335451e-07
-5.468360297e-07
-5.825058955e-07
-5.431655049e-07
-6.331142605e-07
-6.999630691e-07
-7.2086301e-07
-7.811605124e-07
-9.168737521e-07
-9.71539804e-07
-1.059127639e-06
-1.404657624e-06
-2.505258284e-06
-3.125360538e-06
-2.665340625e-06
-2.401811505e-06
)


100
(
1.017052882e-06
8.825419815e-07
6.535599568e-07
5.169140666e-07
4.405127028e-07
3.877675157e-07
3.437550026e-07
3.134372486e-07
2.906683188e-07
2.673684988e-07
2.502442127e-07
2.266368145e-07
2.114854767e-07
1.994941349e-07
1.778895237e-07
1.653684819e-07
1.590773262e-07
1.445560245e-07
1.261764743e-07
1.207861146e-07
1.159287974e-07
9.962513417e-08
8.605334901e-08
8.126579509e-08
7.468035457e-08
6.071502667e-08
5.021273755e-08
4.647591481e-08
4.129950465e-08
3.026739682e-08
1.813845099e-08
1.055223778e-08
3.805622285e-09
-7.399351529e-09
-1.681933071e-08
-2.25194846e-08
-2.560050287e-08
-3.106441544e-08
-3.920112207e-08
-4.878617582e-08
-6.04827566e-08
-7.26851681e-08
-8.472179602e-08
-9.271934342e-08
-1.010690599e-07
-1.117439604e-07
-1.232841924e-07
-1.299007586e-07
-1.320917406e-07
-1.400078214e-07
-1.525470549e-07
-1.606935973e-07
-1.643112712e-07
-1.808432153e-07
-2.030941516e-07
-2.065766258e-07
-1.916216473e-07
-2.004812644e-07
-2.324119388e-07
-2.411309094e-07
-2.307866531e-07
-2.439696454e-07
-2.622575721e-07
-2.633139307e-07
-2.687630082e-07
-2.819181278e-07
-2.796733353e-07
-2.698274539e-07
-2.817984004e-07
-3.155393278e-07
-3.399002229e-07
-3.443818455e-07
-3.400334918e-07
-3.355091299e-07
-3.688292816e-07
-4.401202213e-07
-3.937372708e-07
-3.203076063e-07
-4.596902988e-07
-4.914764189e-07
-3.881034727e-07
-4.644248179e-07
-4.9447564e-07
-4.549948891e-07
-5.001486073e-07
-5.701582936e-07
-6.133608267e-07
-6.298742743e-07
-6.734088259e-07
-7.304511979e-07
-7.757409102e-07
-8.46605135e-07
-9.085873768e-07
-1.041071985e-06
-1.240558819e-06
-1.591688911e-06
-2.994999602e-06
-3.246395803e-06
-2.440412162e-06
-2.400299305e-06
)


100
(
9.978721501e-07
8.698149426e-07
6.496285145e-07
5.136548214e-07
4.412163889e-07
3.893443558e-07
3.469777751e-07
3.143391318e-07
2.928878905e-07
2.697907128e-07
2.524896294e-07
2.366579066e-07
2.132759701e-07
2.013778732e-07
1.894088453e-07
1.691536288e-07
1.588156812e-07
1.536005645e-07
1.403180022e-07
1.234876692e-07
1.173146634e-07
1.13211026e-07
9.941625143e-08
8.424481846e-08
7.773664662e-08
7.317270321e-08
6.146727111e-08
4.979534451e-08
4.372089379e-08
4.02323609e-08
3.19463582e-08
2.110829839e-08
9.021376642e-09
2.349556335e-09
-4.515798289e-09
-1.399461578e-08
-2.33117212e-08
-2.721952614e-08
-2.990914219e-08
-3.935047247e-08
-4.810418998e-08
-6.192046958e-08
-7.442246783e-08
-8.239180919e-08
-8.488450623e-08
-9.097064041e-08
-1.029758565e-07
-1.163509821e-07
-1.230545657e-07
-1.217740217e-07
-1.315539484e-07
-1.47967723e-07
-1.559278136e-07
-1.576500331e-07
-1.731576532e-07
-1.89577986e-07
-1.812310387e-07
-1.653187546e-07
-1.771369026e-07
-2.056748413e-07
-2.193002536e-07
-2.237222523e-07
-2.411494393e-07
-2.672299116e-07
-2.835621644e-07
-2.870679969e-07
-2.845283079e-07
-2.898917456e-07
-3.017950848e-07
-3.088069253e-07
-3.132165747e-07
-3.261081931e-07
-3.672163921e-07
-4.005546877e-07
-3.451347264e-07
-2.939366463e-07
-3.745450988e-07
-4.186894187e-07
-3.74514474e-07
-3.680151865e-07
-4.053424636e-07
-4.821225304e-07
-5.261794531e-07
-5.232156048e-07
-5.46832667e-07
-5.569262162e-07
-5.941291047e-07
-6.699374332e-07
-7.670386615e-07
-7.642624443e-07
-7.397530755e-07
-8.839602725e-07
-9.783039939e-07
-1.102526029e-06
-1.344760587e-06
-1.911485512e-06
-3.196645265e-06
-3.172392082e-06
-2.395254162e-06
-2.373599452e-06
)


100
(
9.786614208e-07
8.569296465e-07
6.444768088e-07
5.10202789e-07
4.4216286e-07
3.89754963e-07
3.492264631e-07
3.172628812e-07
2.942644502e-07
2.769381604e-07
2.536862908e-07
2.387722878e-07
2.224801324e-07
2.023921057e-07
1.923818885e-07
1.807190869e-07
1.62297105e-07
1.528988068e-07
1.489676454e-07
1.377233045e-07
1.221451479e-07
1.140515345e-07
1.104983252e-07
9.950728161e-08
8.399997124e-08
7.345374225e-08
6.90866762e-08
6.221029446e-08
5.21117792e-08
4.216585925e-08
3.841466083e-08
3.439212687e-08
2.380690162e-08
7.500081765e-09
2.721523467e-10
-2.275821778e-09
-8.889931173e-09
-2.154624434e-08
-2.603967568e-08
-2.619541455e-08
-3.769347191e-08
-4.85517082e-08
-6.214915742e-08
-7.078044813e-08
-7.357372141e-08
-7.160530047e-08
-7.664773651e-08
-8.922113929e-08
-1.045271975e-07
-1.099619157e-07
-1.084022879e-07
-1.196790032e-07
-1.368192139e-07
-1.453133167e-07
-1.487157366e-07
-1.561148542e-07
-1.644676411e-07
-1.717239448e-07
-1.786843655e-07
-1.869601543e-07
-2.013423275e-07
-2.236587961e-07
-2.416427519e-07
-2.448299628e-07
-2.43242592e-07
-2.558359717e-07
-2.771916666e-07
-2.864415536e-07
-2.849646009e-07
-2.901854025e-07
-3.168852993e-07
-3.474115431e-07
-3.584719788e-07
-3.598942245e-07
-3.821840305e-07
-3.625988428e-07
-3.27814356e-07
-3.426762892e-07
-3.873199605e-07
-4.5079552e-07
-4.657170975e-07
-4.332524685e-07
-4.610833007e-07
-5.196465811e-07
-5.539646314e-07
-6.062677827e-07
-6.465725896e-07
-6.975970124e-07
-7.112475892e-07
-7.50195895e-07
-8.52164362e-07
-9.174488773e-07
-1.013702375e-06
-1.160628062e-06
-1.472890589e-06
-2.333522062e-06
-3.2881802e-06
-2.945525668e-06
-2.34512004e-06
-2.347052853e-06
)


100
(
9.580942822e-07
8.430085911e-07
6.381225505e-07
5.103385233e-07
4.418209089e-07
3.896091339e-07
3.501673539e-07
3.205534333e-07
2.944363802e-07
2.782904977e-07
2.607137844e-07
2.399620977e-07
2.268833344e-07
2.098937581e-07
1.928269975e-07
1.845999012e-07
1.738080892e-07
1.570612063e-07
1.478443959e-07
1.452115209e-07
1.363736425e-07
1.217303306e-07
1.109728112e-07
1.076924335e-07
9.975160524e-08
8.303245048e-08
7.159896267e-08
6.78154636e-08
6.237308943e-08
5.223272658e-08
3.973839736e-08
3.804309849e-08
3.707656204e-08
2.351902897e-08
5.786024545e-09
1.965668884e-09
4.316007128e-09
-4.229975348e-09
-1.660330183e-08
-1.850530578e-08
-2.03549233e-08
-3.420288198e-08
-4.629546652e-08
-5.726480004e-08
-5.952608881e-08
-6.040747706e-08
-5.723392707e-08
-6.167008022e-08
-7.540987319e-08
-8.813936227e-08
-9.586486845e-08
-9.929393323e-08
-1.155110391e-07
-1.347475498e-07
-1.503016122e-07
-1.593801432e-07
-1.647663141e-07
-1.710396198e-07
-1.78223717e-07
-1.837713964e-07
-1.845830212e-07
-1.830119174e-07
-1.90482145e-07
-2.112211464e-07
-2.307820816e-07
-2.406472597e-07
-2.50333398e-07
-2.659595794e-07
-2.88941362e-07
-3.120214716e-07
-3.19648947e-07
-3.160314969e-07
-3.250050636e-07
-3.442419661e-07
-3.550038643e-07
-3.697756131e-07
-3.848672011e-07
-3.969180756e-07
-4.069834495e-07
-4.090521613e-07
-4.266247803e-07
-4.564657529e-07
-4.821835261e-07
-5.145089116e-07
-5.476609663e-07
-5.814927361e-07
-6.535864998e-07
-7.309313699e-07
-7.433969549e-07
-7.615977398e-07
-8.557087227e-07
-9.595557611e-07
-1.062664324e-06
-1.222386409e-06
-1.530788429e-06
-2.612305447e-06
-3.361182558e-06
-2.767422278e-06
-2.305129147e-06
-2.28026456e-06
)


100
(
9.368091489e-07
8.28646576e-07
6.329355995e-07
5.092439022e-07
4.388815362e-07
3.899349443e-07
3.503652453e-07
3.220236777e-07
2.997992288e-07
2.783723157e-07
2.640878509e-07
2.442796247e-07
2.278070101e-07
2.16662211e-07
1.993841466e-07
1.844832003e-07
1.779951732e-07
1.685075317e-07
1.534149073e-07
1.43693405e-07
1.418827692e-07
1.356241967e-07
1.216151042e-07
1.077342892e-07
1.044200342e-07
9.925907054e-08
8.110012261e-08
7.019546228e-08
6.744886278e-08
6.448761017e-08
4.994433637e-08
3.902359016e-08
4.394911741e-08
4.132839794e-08
2.277792428e-08
5.945551945e-09
9.087098762e-09
1.206188536e-08
1.165844744e-09
-9.130588942e-09
-9.367679887e-09
-1.416811006e-08
-2.94434259e-08
-4.06171655e-08
-4.52329939e-08
-4.675217946e-08
-4.787988568e-08
-4.858665129e-08
-5.691788716e-08
-7.401603677e-08
-9.007636512e-08
-1.022578838e-07
-1.092135807e-07
-1.142727726e-07
-1.243158142e-07
-1.366414518e-07
-1.50416775e-07
-1.614596574e-07
-1.652118263e-07
-1.708478314e-07
-1.76734189e-07
-1.801574171e-07
-1.839161051e-07
-1.926761338e-07
-2.082204548e-07
-2.283616929e-07
-2.518414566e-07
-2.651509443e-07
-2.591518956e-07
-2.531344908e-07
-2.703551156e-07
-2.984428622e-07
-3.252816306e-07
-3.494872527e-07
-3.646088986e-07
-3.814013491e-07
-3.835189217e-07
-3.697515042e-07
-3.817295196e-07
-4.250400154e-07
-4.586305912e-07
-4.709194714e-07
-4.840152262e-07
-5.043602121e-07
-5.419043068e-07
-5.874923671e-07
-6.358734676e-07
-7.224022256e-07
-7.621555698e-07
-7.661524158e-07
-8.826219194e-07
-9.947277062e-07
-1.097144537e-06
-1.290685903e-06
-1.654022287e-06
-2.803444149e-06
-3.330340147e-06
-2.610458633e-06
-2.257801869e-06
-2.245360804e-06
)


100
(
9.176002786e-07
8.149879788e-07
6.272115575e-07
5.054660336e-07
4.368613397e-07
3.892995332e-07
3.517701003e-07
3.221329547e-07
3.017646616e-07
2.797761745e-07
2.642197642e-07
2.515775843e-07
2.299491261e-07
2.171260424e-07
2.079128557e-07
1.908865888e-07
1.769484854e-07
1.717364434e-07
1.648749566e-07
1.514245853e-07
1.396530194e-07
1.38333386e-07
1.353534475e-07
1.219757691e-07
1.073312039e-07
1.013495587e-07
9.693496123e-08
8.043141415e-08
7.0104917e-08
6.964214858e-08
6.556613325e-08
4.85422228e-08
4.21912963e-08
5.116780316e-08
4.30117549e-08
2.338799193e-08
1.183746003e-08
1.939025894e-08
1.772610976e-08
7.471048811e-09
1.904142599e-09
-1.822068825e-09
-1.029530916e-08
-2.569179978e-08
-3.394902542e-08
-4.13691466e-08
-4.509169181e-08
-4.836402397e-08
-5.382440149e-08
-6.15726956e-08
-7.437552218e-08
-8.782454279e-08
-9.726912974e-08
-1.035033813e-07
-1.078106332e-07
-1.102261668e-07
-1.17696264e-07
-1.312728189e-07
-1.465721848e-07
-1.625255211e-07
-1.74962639e-07
-1.843504319e-07
-1.898586049e-07
-1.944530254e-07
-2.011953592e-07
-2.077158489e-07
-2.154363523e-07
-2.281644024e-07
-2.406540701e-07
-2.49893958e-07
-2.635346093e-07
-2.835775178e-07
-3.129516097e-07
-3.415095172e-07
-3.424727148e-07
-3.333893918e-07
-3.516265458e-07
-3.915710168e-07
-4.206019668e-07
-4.336006723e-07
-4.456979993e-07
-4.577649351e-07
-4.948639685e-07
-5.448858143e-07
-5.740172537e-07
-5.905966737e-07
-6.258808639e-07
-7.040794642e-07
-7.781234913e-07
-8.446116515e-07
-9.040354655e-07
-9.98776321e-07
-1.141704968e-06
-1.36251436e-06
-1.758992784e-06
-2.879227326e-06
-3.257027981e-06
-2.471337222e-06
-2.188767344e-06
-2.193580776e-06
)


100
(
9.019973286e-07
8.01891131e-07
6.18730336e-07
4.993318831e-07
4.357349516e-07
3.879281968e-07
3.516982311e-07
3.2287197e-07
3.023599536e-07
2.857665224e-07
2.631042353e-07
2.515382982e-07
2.395697782e-07
2.176687307e-07
2.077773585e-07
2.003917045e-07
1.837336806e-07
1.703015678e-07
1.66941374e-07
1.624327113e-07
1.500163223e-07
1.359391686e-07
1.346655844e-07
1.350556345e-07
1.229057191e-07
1.091482873e-07
9.852763534e-08
9.394019094e-08
8.156327221e-08
7.279598458e-08
7.488874868e-08
6.40328471e-08
4.844273724e-08
5.001808237e-08
5.773605249e-08
4.408030426e-08
2.580836672e-08
2.202675612e-08
2.594705298e-08
2.235021299e-08
1.425968618e-08
6.70530041e-09
-3.630991243e-09
-1.203561278e-08
-2.379789273e-08
-3.316163384e-08
-4.030715383e-08
-4.708370405e-08
-4.805653043e-08
-5.099612112e-08
-5.984129187e-08
-6.888780879e-08
-7.876978649e-08
-8.843154359e-08
-9.337330686e-08
-9.849000548e-08
-1.060350081e-07
-1.135200105e-07
-1.276589417e-07
-1.465026659e-07
-1.641425476e-07
-1.758952128e-07
-1.799198256e-07
-1.795972076e-07
-1.833635765e-07
-1.932295286e-07
-2.068378621e-07
-2.206845571e-07
-2.3303051e-07
-2.446728374e-07
-2.573216837e-07
-2.702952406e-07
-2.788634699e-07
-2.901656068e-07
-3.158265086e-07
-3.502737314e-07
-3.751636905e-07
-3.910803873e-07
-4.071298099e-07
-4.206917981e-07
-4.468227498e-07
-4.883446507e-07
-5.200072218e-07
-5.445012752e-07
-5.818696722e-07
-6.174785366e-07
-6.286767915e-07
-6.835460232e-07
-7.75781626e-07
-8.346231484e-07
-9.3532303e-07
-1.033721532e-06
-1.193403855e-06
-1.5327943e-06
-1.937437605e-06
-2.937536305e-06
-3.132344344e-06
-2.323584273e-06
-2.101521025e-06
-2.099623443e-06
)


100
(
8.871332325e-07
7.891899192e-07
6.092453493e-07
4.948817584e-07
4.335742636e-07
3.863258867e-07
3.505675414e-07
3.246510266e-07
3.017583333e-07
2.865414991e-07
2.696312377e-07
2.499941154e-07
2.400969879e-07
2.274743882e-07
2.071768618e-07
1.995172718e-07
1.9393187e-07
1.785057784e-07
1.645345924e-07
1.623970509e-07
1.611325895e-07
1.493195619e-07
1.353718935e-07
1.308167739e-07
1.319746575e-07
1.243979768e-07
1.113931014e-07
9.709038322e-08
9.175008151e-08
8.261959287e-08
7.744683325e-08
7.86401159e-08
6.526824408e-08
5.388727784e-08
5.804327719e-08
5.890611735e-08
4.47637927e-08
3.256030382e-08
2.651645524e-08
2.458330861e-08
2.262010342e-08
1.694855315e-08
8.722757036e-09
-5.388700316e-09
-1.574848201e-08
-2.01911513e-08
-2.713461738e-08
-3.475519628e-08
-4.024208458e-08
-4.544008113e-08
-4.799535982e-08
-5.345855611e-08
-6.507117162e-08
-7.403555002e-08
-8.165176497e-08
-9.189671848e-08
-9.901547909e-08
-1.054463862e-07
-1.154403145e-07
-1.245368631e-07
-1.378928148e-07
-1.508092643e-07
-1.602218351e-07
-1.686517019e-07
-1.776779218e-07
-1.90515185e-07
-2.100568174e-07
-2.252146549e-07
-2.295899671e-07
-2.263343676e-07
-2.259886661e-07
-2.405623037e-07
-2.673987978e-07
-2.94554534e-07
-3.160607532e-07
-3.393089771e-07
-3.616056965e-07
-3.779579723e-07
-4.02533253e-07
-4.419025372e-07
-4.718406774e-07
-4.893110489e-07
-5.091622904e-07
-5.525445465e-07
-6.060136131e-07
-6.39826881e-07
-6.674660365e-07
-7.24101446e-07
-7.812263831e-07
-8.588558684e-07
-9.46692685e-07
-1.054160419e-06
-1.313042142e-06
-1.54160433e-06
-2.115543823e-06
-3.139794062e-06
-2.939874016e-06
-2.151218321e-06
-2.057790893e-06
-2.063142515e-06
)


100
(
8.713925676e-07
7.761619924e-07
5.998659955e-07
4.906611303e-07
4.299959867e-07
3.849076138e-07
3.487474342e-07
3.241007186e-07
3.04759565e-07
2.860061992e-07
2.722522909e-07
2.542672435e-07
2.382241279e-07
2.300494551e-07
2.173296626e-07
1.978932677e-07
1.918580217e-07
1.887293269e-07
1.748627714e-07
1.59881106e-07
1.583555282e-07
1.597889092e-07
1.488240186e-07
1.357328214e-07
1.27035516e-07
1.284986805e-07
1.260829525e-07
1.13569196e-07
1.000006644e-07
8.855709432e-08
8.288031382e-08
8.735893754e-08
7.961043284e-08
6.690456032e-08
6.214717299e-08
5.939990955e-08
5.564915133e-08
4.614801916e-08
3.789207433e-08
2.682330227e-08
2.083041411e-08
2.088900023e-08
1.769919684e-08
1.07459737e-08
6.504786163e-10
-1.183682209e-08
-1.739971024e-08
-1.827744176e-08
-2.619855911e-08
-3.424298212e-08
-3.910710687e-08
-4.888724587e-08
-5.714442828e-08
-6.439325186e-08
-7.426222567e-08
-7.96539713e-08
-8.626677428e-08
-9.505930814e-08
-9.770530044e-08
-1.054267539e-07
-1.20232189e-07
-1.326620109e-07
-1.464615642e-07
-1.626001359e-07
-1.773661694e-07
-1.891093039e-07
-1.985592298e-07
-2.094778267e-07
-2.122654256e-07
-2.144373406e-07
-2.240338306e-07
-2.425793673e-07
-2.686279693e-07
-2.868987777e-07
-3.008288721e-07
-3.168370301e-07
-3.44323571e-07
-3.870345877e-07
-4.218607394e-07
-4.409661297e-07
-4.596145264e-07
-4.841009597e-07
-5.273814314e-07
-5.703857056e-07
-6.033947185e-07
-6.547289721e-07
-6.950161498e-07
-7.28476145e-07
-7.987837671e-07
-8.625712128e-07
-9.638293362e-07
-1.119759841e-06
-1.33563197e-06
-1.598874321e-06
-2.446429301e-06
-3.316625341e-06
-2.70839384e-06
-1.988460398e-06
-2.010640542e-06
-2.005879179e-06
)


100
(
8.547322513e-07
7.629652343e-07
5.926274664e-07
4.849414077e-07
4.247848455e-07
3.825367999e-07
3.488424769e-07
3.223185995e-07
3.049989536e-07
2.863388994e-07
2.717816325e-07
2.594998562e-07
2.408906586e-07
2.27610191e-07
2.209723139e-07
2.087478612e-07
1.903754008e-07
1.850903954e-07
1.842421265e-07
1.72292931e-07
1.581081983e-07
1.544038763e-07
1.562464584e-07
1.487684668e-07
1.364438707e-07
1.244296349e-07
1.244585422e-07
1.260627305e-07
1.161876755e-07
1.037258559e-07
8.963990294e-08
8.368394569e-08
8.866107062e-08
8.221061784e-08
7.111613256e-08
6.714542253e-08
5.693282997e-08
5.259163968e-08
4.9807476e-08
3.978440364e-08
2.971946161e-08
1.892585251e-08
1.807737862e-08
2.06420317e-08
1.556592251e-08
6.58967461e-09
-2.504627521e-09
-1.212691874e-08
-1.801313309e-08
-2.414740046e-08
-3.290968374e-08
-3.988519509e-08
-4.719700759e-08
-6.017150645e-08
-6.372080644e-08
-6.217824179e-08
-7.102587632e-08
-7.832545938e-08
-8.47609843e-08
-9.725506799e-08
-1.112483205e-07
-1.261910717e-07
-1.412457803e-07
-1.511651993e-07
-1.655088124e-07
-1.699840458e-07
-1.761867062e-07
-1.915123239e-07
-2.028001022e-07
-2.189515433e-07
-2.369370965e-07
-2.5207198e-07
-2.646597207e-07
-2.767647201e-07
-2.896091193e-07
-3.105739874e-07
-3.396265738e-07
-3.733827432e-07
-4.043168228e-07
-4.265628309e-07
-4.636329497e-07
-5.029478632e-07
-5.273636724e-07
-5.595370861e-07
-6.143310889e-07
-6.715014155e-07
-7.002799553e-07
-7.532271795e-07
-8.305815588e-07
-8.981087337e-07
-9.756101795e-07
-1.116378724e-06
-1.371728398e-06
-1.828292364e-06
-2.703264227e-06
-3.225508226e-06
-2.531313706e-06
-1.911694629e-06
-1.930339377e-06
-1.914815695e-06
)


100
(
8.393112612e-07
7.506075143e-07
5.844130368e-07
4.774040842e-07
4.204641422e-07
3.792394711e-07
3.472487733e-07
3.209604775e-07
3.035788081e-07
2.896849795e-07
2.700219203e-07
2.589888979e-07
2.479830017e-07
2.288156175e-07
2.178465046e-07
2.130888458e-07
2.018736998e-07
1.845499597e-07
1.789921329e-07
1.800917616e-07
1.706845167e-07
1.570484345e-07
1.501370895e-07
1.522608398e-07
1.490462816e-07
1.373455713e-07
1.258645025e-07
1.19947111e-07
1.217407733e-07
1.184846955e-07
1.067070649e-07
9.470334853e-08
8.342392806e-08
8.383050473e-08
8.58775357e-08
7.871645815e-08
7.016620329e-08
5.629288396e-08
4.703672676e-08
4.849038509e-08
4.633541595e-08
3.524629444e-08
2.488788651e-08
1.815889299e-08
1.838509282e-08
1.862896175e-08
1.041690983e-08
7.862853507e-10
-7.220006161e-09
-2.075649933e-08
-3.091493444e-08
-3.252089264e-08
-3.531690275e-08
-4.188700965e-08
-4.948339763e-08
-5.784262273e-08
-5.712554358e-08
-6.338677995e-08
-8.189318902e-08
-8.936760732e-08
-1.053098809e-07
-1.242633349e-07
-1.27664707e-07
-1.307218723e-07
-1.421589272e-07
-1.521810387e-07
-1.628713646e-07
-1.804199333e-07
-2.004607619e-07
-2.160526312e-07
-2.2915049e-07
-2.428293726e-07
-2.582946428e-07
-2.751948688e-07
-2.969881597e-07
-3.194073692e-07
-3.335238356e-07
-3.508060552e-07
-3.824204097e-07
-4.261938551e-07
-4.6721943e-07
-4.933428597e-07
-5.163812879e-07
-5.722354993e-07
-6.263034403e-07
-6.591044307e-07
-7.232027429e-07
-8.071132575e-07
-8.476105479e-07
-9.005252791e-07
-1.006468548e-06
-1.204147495e-06
-1.507895456e-06
-1.910101564e-06
-2.721726905e-06
-3.113561939e-06
-2.379560637e-06
-1.865769452e-06
-1.919395906e-06
-1.910915245e-06
)


100
(
8.253388876e-07
7.386181822e-07
5.751437785e-07
4.701504559e-07
4.15546689e-07
3.755515513e-07
3.445541153e-07
3.213651873e-07
3.009792102e-07
2.884193291e-07
2.747205969e-07
2.568587916e-07
2.470069405e-07
2.361535152e-07
2.182498548e-07
2.089782462e-07
2.061640964e-07
1.961387062e-07
1.802266139e-07
1.737495581e-07
1.759998331e-07
1.696344404e-07
1.564616815e-07
1.457040209e-07
1.477198305e-07
1.488954685e-07
1.384533817e-07
1.279642398e-07
1.177499929e-07
1.159206727e-07
1.16390525e-07
1.097233826e-07
1.001290717e-07
8.856571502e-08
7.944215269e-08
8.177408157e-08
8.312228989e-08
7.416613637e-08
6.129196476e-08
4.793061069e-08
4.563670786e-08
4.940658118e-08
4.231253816e-08
3.084439924e-08
2.384444684e-08
1.53630796e-08
1.184808862e-08
1.083675114e-08
4.047039977e-09
-4.782624705e-09
-1.861087731e-08
-3.528659897e-08
-3.302924638e-08
-2.585691134e-08
-3.524114835e-08
-4.363854639e-08
-5.203276599e-08
-6.727234403e-08
-7.514964926e-08
-8.258237317e-08
-9.149645173e-08
-1.039990823e-07
-1.216426977e-07
-1.161916135e-07
-1.206669555e-07
-1.413077885e-07
-1.554835781e-07
-1.754611393e-07
-1.91540392e-07
-2.038445029e-07
-2.162793428e-07
-2.300663794e-07
-2.507441584e-07
-2.769827305e-07
-2.966210071e-07
-3.088888721e-07
-3.248147607e-07
-3.474339801e-07
-3.850439436e-07
-4.266754877e-07
-4.517863037e-07
-4.754281117e-07
-5.217347597e-07
-5.782105322e-07
-6.169162337e-07
-6.688243587e-07
-7.418015832e-07
-7.971182224e-07
-8.635544389e-07
-9.255390274e-07
-1.081726784e-06
-1.274820298e-06
-1.524186439e-06
-1.968673948e-06
-2.72862116e-06
-3.013748571e-06
-2.286815357e-06
-1.814044682e-06
-1.8521232e-06
-1.846500921e-06
)


100
(
8.118933789e-07
7.268834666e-07
5.656066688e-07
4.641078559e-07
4.097434929e-07
3.71466751e-07
3.409413123e-07
3.193982638e-07
3.018457317e-07
2.859666537e-07
2.749253744e-07
2.60349036e-07
2.444381237e-07
2.360145379e-07
2.260408617e-07
2.093533495e-07
2.007643943e-07
1.997639937e-07
1.917101253e-07
1.772637251e-07
1.687678418e-07
1.716057906e-07
1.690593002e-07
1.562834237e-07
1.45395302e-07
1.425924168e-07
1.443047689e-07
1.394393015e-07
1.292825207e-07
1.193785793e-07
1.102338174e-07
1.111832366e-07
1.120844212e-07
1.034163577e-07
9.307307553e-08
7.976541911e-08
7.76862146e-08
8.361774663e-08
7.964150725e-08
6.696748695e-08
5.501821282e-08
4.582934629e-08
4.514557783e-08
4.37245644e-08
3.544784827e-08
2.876919842e-08
2.075196998e-08
5.107587661e-09
2.530950238e-09
8.256981477e-09
4.932396145e-11
-1.44047663e-08
-2.810460954e-08
-3.455018069e-08
-3.2569132e-08
-3.366717048e-08
-4.14889477e-08
-4.930390798e-08
-7.379031752e-08
-8.828330397e-08
-7.953519601e-08
-8.465911809e-08
-9.890602176e-08
-1.103340207e-07
-1.238990396e-07
-1.371172399e-07
-1.502875962e-07
-1.630705474e-07
-1.754646026e-07
-1.863820696e-07
-1.988219022e-07
-2.219555206e-07
-2.490811685e-07
-2.707047245e-07
-2.887091092e-07
-3.054287253e-07
-3.237112233e-07
-3.508153857e-07
-3.781006438e-07
-4.05256498e-07
-4.420677102e-07
-4.88401826e-07
-5.304786863e-07
-5.567222943e-07
-6.041635619e-07
-6.80161919e-07
-7.567795929e-07
-8.305881779e-07
-8.660148957e-07
-9.253851309e-07
-1.059254623e-06
-1.256487378e-06
-1.532100334e-06
-2.103679121e-06
-2.816695001e-06
-2.897426918e-06
-2.220857046e-06
-1.771329336e-06
-1.777173423e-06
-1.752873897e-06
)


100
(
7.975665153e-07
7.148621178e-07
5.572101809e-07
4.576585875e-07
4.031716493e-07
3.665812526e-07
3.386459288e-07
3.161504647e-07
3.008216161e-07
2.851012943e-07
2.725101705e-07
2.623024406e-07
2.471159296e-07
2.330677024e-07
2.263988186e-07
2.175364958e-07
2.019458848e-07
1.931064447e-07
1.938572095e-07
1.886324008e-07
1.753523425e-07
1.63808417e-07
1.665845721e-07
1.680185291e-07
1.56419723e-07
1.461764315e-07
1.371669582e-07
1.379516708e-07
1.395696205e-07
1.319662618e-07
1.224848527e-07
1.097059387e-07
1.043802828e-07
1.089248836e-07
1.079779011e-07
9.752476823e-08
8.504058909e-08
7.596623625e-08
7.872018624e-08
8.201268815e-08
7.209232192e-08
6.023364669e-08
5.084089971e-08
4.196744233e-08
3.817440721e-08
3.83651612e-08
3.403768509e-08
2.3767343e-08
9.507607546e-09
-2.038320809e-09
3.822836614e-09
4.480982657e-09
-1.188842289e-08
-2.483666452e-08
-2.997540552e-08
-3.97965008e-08
-4.223205078e-08
-3.819856177e-08
-5.229192693e-08
-7.242434078e-08
-8.800430377e-08
-8.13057196e-08
-8.438788412e-08
-1.019180655e-07
-1.127793904e-07
-1.294085646e-07
-1.428928441e-07
-1.554990874e-07
-1.678079069e-07
-1.807054434e-07
-2.02479418e-07
-2.210457082e-07
-2.333557795e-07
-2.49002832e-07
-2.666187279e-07
-2.938488226e-07
-3.286849854e-07
-3.612494796e-07
-3.840193075e-07
-3.989332361e-07
-4.349290091e-07
-4.80314453e-07
-5.161694007e-07
-5.573010518e-07
-6.357219764e-07
-7.013595633e-07
-7.30399258e-07
-8.034039918e-07
-8.941283264e-07
-9.744261794e-07
-1.100716536e-06
-1.330280338e-06
-1.672005913e-06
-2.126349686e-06
-2.702943862e-06
-2.796060967e-06
-2.142655736e-06
-1.734109961e-06
-1.724695877e-06
-1.688354816e-06
)


100
(
7.827267275e-07
7.029145011e-07
5.495024622e-07
4.505935498e-07
3.975091689e-07
3.609933438e-07
3.346076173e-07
3.128826123e-07
2.982709303e-07
2.863072652e-07
2.696303554e-07
2.597341237e-07
2.511925697e-07
2.351939264e-07
2.225935249e-07
2.178924552e-07
2.101963787e-07
1.959469713e-07
1.863147255e-07
1.884517999e-07
1.865580646e-07
1.74013578e-07
1.629245665e-07
1.608230468e-07
1.625464125e-07
1.567462726e-07
1.465193534e-07
1.380126479e-07
1.327252648e-07
1.338634205e-07
1.334104817e-07
1.248477741e-07
1.123204075e-07
9.934238469e-08
1.035391874e-07
1.110847691e-07
1.021669499e-07
9.015334563e-08
8.16684001e-08
7.351126473e-08
7.325556927e-08
7.38783988e-08
6.644004483e-08
5.842197566e-08
4.561042226e-08
2.824165975e-08
3.316263612e-08
4.246054008e-08
2.9282761e-08
1.417740303e-08
3.711135416e-09
-4.876769438e-09
-6.129535953e-09
-7.356910699e-09
-1.596075759e-08
-2.808435858e-08
-4.761633378e-08
-4.611930755e-08
-3.458019589e-08
-5.101517781e-08
-7.212678804e-08