/*--------------------------------*- C++ -*----------------------------------*\
| =========                 |                                                 |
| \\      /  F ield         | OpenFOAM: The Open Source CFD Toolbox           |
|  \\    /   O peration     | Version:  2.3.1                                 |
|   \\  /    A nd           | Web:      www.OpenFOAM.org                      |
|    \\/     M anipulation  |                                                 |
\*---------------------------------------------------------------------------*/
FoamFile
{
    version     2.0;
    format      ascii;
    class       dictionary;
    location    "constant";
    object      DPSI22;
}
// * * * * * * * * * * * * * * * * * * * * * * * * * * * * * * * * * * * * * //

DPSI22_table
100
(

100
(
-2.464267814e-06
-2.088548905e-06
-1.517590102e-06
-1.22424955e-06
-1.053557912e-06
-9.276501386e-07
-8.449234135e-07
-7.810113173e-07
-7.292946868e-07
-6.849638267e-07
-6.26781963e-07
-5.713384095e-07
-5.407713142e-07
-5.104462173e-07
-4.824009923e-07
-4.612388349e-07
-4.430011638e-07
-4.255125342e-07
-4.114112146e-07
-3.971672969e-07
-3.82442602e-07
-3.715809818e-07
-3.585395892e-07
-3.351772895e-07
-3.157706976e-07
-3.082011658e-07
-3.005666855e-07
-2.915687836e-07
-2.833451003e-07
-2.771868232e-07
-2.596760627e-07
-2.351940553e-07
-2.230108711e-07
-2.18487439e-07
-2.142698027e-07
-2.094027383e-07
-2.041538222e-07
-1.996749692e-07
-1.926624342e-07
-1.799244603e-07
-1.697846301e-07
-1.658333223e-07
-1.570690452e-07
-1.38290664e-07
-1.249549945e-07
-1.224160693e-07
-1.200808473e-07
-1.117938528e-07
-1.034549915e-07
-1.015154081e-07
-9.719383643e-08
-8.27800877e-08
-7.069376556e-08
-6.899900447e-08
-6.045706621e-08
-4.237656569e-08
-3.16177201e-08
-3.092336727e-08
-2.514679511e-08
-1.036045445e-08
-9.476082837e-10
-8.212762724e-10
7.145518804e-09
2.350743846e-08
3.164771207e-08
3.105304447e-08
4.578968812e-08
6.405023995e-08
6.652313125e-08
7.310528334e-08
9.353486963e-08
1.056765851e-07
1.07545063e-07
1.305159462e-07
1.489652777e-07
1.518649203e-07
1.775884782e-07
1.964761569e-07
2.091116759e-07
2.376221857e-07
2.504461609e-07
2.826762341e-07
3.107012538e-07
3.409725325e-07
3.751911541e-07
4.161188785e-07
4.633030201e-07
5.100772941e-07
5.805350461e-07
6.420015756e-07
7.181909671e-07
8.2673663e-07
9.695048406e-07
1.152983319e-06
1.376591687e-06
1.748728937e-06
2.378254803e-06
3.518977488e-06
1.523492813e-05
2.594039963e-05
)


100
(
-2.381150925e-06
-2.060256959e-06
-1.523011735e-06
-1.217589949e-06
-1.056261516e-06
-9.284676518e-07
-8.469182177e-07
-7.859722589e-07
-7.362377784e-07
-6.968454196e-07
-6.441963309e-07
-5.913386607e-07
-5.525216773e-07
-5.193394889e-07
-4.924401287e-07
-4.706442341e-07
-4.490074241e-07
-4.33515854e-07
-4.221010911e-07
-4.071893517e-07
-3.939003891e-07
-3.844822583e-07
-3.729920578e-07
-3.546226261e-07
-3.378971357e-07
-3.257222253e-07
-3.134223247e-07
-3.009645769e-07
-2.948720148e-07
-2.911081793e-07
-2.801813727e-07
-2.628897603e-07
-2.482650577e-07
-2.37583562e-07
-2.276451166e-07
-2.181084434e-07
-2.11880512e-07
-2.100649724e-07
-2.064324525e-07
-1.976084614e-07
-1.881813797e-07
-1.829882683e-07
-1.772706706e-07
-1.658476456e-07
-1.526830101e-07
-1.437721601e-07
-1.375440155e-07
-1.294798306e-07
-1.203092001e-07
-1.15037755e-07
-1.130985881e-07
-1.077172836e-07
-9.841062005e-08
-9.098325008e-08
-8.526641067e-08
-7.639361912e-08
-6.533003283e-08
-5.669546875e-08
-5.034473816e-08
-4.335071381e-08
-3.431671979e-08
-2.453490898e-08
-1.600825464e-08
-8.658197043e-09
-1.7730078e-09
5.634044304e-09
1.497465656e-08
2.272255115e-08
2.871088964e-08
3.775729693e-08
4.861059528e-08
5.457840297e-08
6.271807317e-08
7.981789263e-08
8.950806636e-08
9.042660361e-08
1.0805995e-07
1.240732507e-07
1.215860408e-07
1.410288599e-07
1.526245348e-07
1.579874386e-07
1.916225289e-07
1.757716027e-07
1.943582699e-07
2.326971708e-07
2.177676656e-07
2.700072918e-07
2.813343313e-07
3.124793166e-07
3.647040954e-07
4.49556921e-07
5.604085154e-07
7.362350809e-07
9.680821258e-07
1.606380997e-06
4.746039552e-06
1.220236873e-05
1.115762024e-05
5.583072427e-06
)


100
(
-2.299406119e-06
-2.030037284e-06
-1.527877643e-06
-1.218362113e-06
-1.05555695e-06
-9.321680833e-07
-8.473291844e-07
-7.885997398e-07
-7.40406087e-07
-7.0425731e-07
-6.593199988e-07
-6.103827472e-07
-5.695580495e-07
-5.316747108e-07
-5.022470777e-07
-4.802979517e-07
-4.592641171e-07
-4.402068421e-07
-4.294339803e-07
-4.192037013e-07
-4.05554501e-07
-3.943459601e-07
-3.857343553e-07
-3.736113461e-07
-3.57206161e-07
-3.427072676e-07
-3.305733023e-07
-3.18429685e-07
-3.070612234e-07
-2.993244617e-07
-2.945344412e-07
-2.859616742e-07
-2.724623967e-07
-2.585813219e-07
-2.474235322e-07
-2.370552436e-07
-2.264904552e-07
-2.177133236e-07
-2.134437699e-07
-2.117030348e-07
-2.065657488e-07
-1.984082813e-07
-1.909126991e-07
-1.863456881e-07
-1.797235998e-07
-1.689848404e-07
-1.585318075e-07
-1.504546491e-07
-1.430684431e-07
-1.35137296e-07
-1.280073057e-07
-1.227042027e-07
-1.199492586e-07
-1.163341276e-07
-1.093268543e-07
-1.006662458e-07
-9.385530903e-08
-8.747341748e-08
-7.990284522e-08
-7.32172133e-08
-6.854733322e-08
-6.190551817e-08
-5.119684e-08
-3.950042221e-08
-3.05763862e-08
-2.480909041e-08
-1.875187903e-08
-1.003427252e-08
-3.58787278e-09
-7.095019804e-10
4.571397687e-09
1.365710986e-08
2.013158151e-08
2.292726907e-08
3.11343877e-08
4.529528787e-08
4.981534906e-08
4.6317625e-08
5.842306339e-08
7.368095802e-08
7.825900094e-08
7.98494919e-08
1.056891322e-07
1.204646619e-07
1.081177951e-07
1.354101783e-07
1.545422514e-07
1.537659899e-07
1.924766692e-07
2.389667569e-07
2.833033553e-07
3.602002796e-07
4.9875775e-07
6.652577585e-07
9.92022455e-07
2.126163394e-06
8.796382439e-06
1.223893395e-05
7.336481467e-06
4.692598908e-06
)


100
(
-2.227476318e-06
-1.997068789e-06
-1.53313078e-06
-1.217213104e-06
-1.048808726e-06
-9.361796365e-07
-8.492424278e-07
-7.908406568e-07
-7.47324697e-07
-7.080408734e-07
-6.717673632e-07
-6.264625578e-07
-5.863328831e-07
-5.494728782e-07
-5.140873718e-07
-4.891269912e-07
-4.699335469e-07
-4.511008294e-07
-4.34868146e-07
-4.269224754e-07
-4.186900417e-07
-4.059906817e-07
-3.944176307e-07
-3.866333089e-07
-3.762407245e-07
-3.612265191e-07
-3.466267594e-07
-3.357300129e-07
-3.25164894e-07
-3.135820025e-07
-3.036946246e-07
-2.988266607e-07
-2.933025716e-07
-2.820010936e-07
-2.688441852e-07
-2.569589843e-07
-2.464752529e-07
-2.362205065e-07
-2.273088506e-07
-2.200104296e-07
-2.160349126e-07
-2.148232682e-07
-2.113750657e-07
-2.043504252e-07
-1.953162279e-07
-1.896423994e-07
-1.848392743e-07
-1.760952065e-07
-1.643275129e-07
-1.571253065e-07
-1.531423168e-07
-1.4685606e-07
-1.396389891e-07
-1.359989152e-07
-1.338257242e-07
-1.269135154e-07
-1.165315277e-07
-1.102857076e-07
-1.073622543e-07
-1.018886409e-07
-9.623066331e-08
-9.305823585e-08
-8.789033257e-08
-7.843592266e-08
-6.743495231e-08
-5.806478425e-08
-5.143231763e-08
-4.658261918e-08
-4.246227614e-08
-3.772825799e-08
-3.275012671e-08
-2.893823303e-08
-2.56996243e-08
-2.043070123e-08
-1.197249248e-08
-4.186464238e-09
-3.121547424e-09
-1.448750009e-09
1.362427727e-08
2.273200816e-08
1.930039592e-08
2.766678994e-08
4.013447144e-08
4.144219878e-08
4.418890535e-08
6.253139699e-08
8.307490001e-08
1.043877196e-07
1.320648125e-07
1.645700761e-07
2.143978569e-07
2.946705071e-07
4.054186033e-07
6.559470733e-07
1.088188284e-06
2.606899596e-06
1.122814429e-05
1.200670799e-05
5.111809081e-06
4.399455774e-06
)


100
(
-2.172124706e-06
-1.961072439e-06
-1.52516521e-06
-1.211233694e-06
-1.046755001e-06
-9.377025681e-07
-8.526039198e-07
-7.909587102e-07
-7.503221173e-07
-7.115467497e-07
-6.79646187e-07
-6.434384043e-07
-6.005671061e-07
-5.649890469e-07
-5.312898014e-07
-4.999563987e-07
-4.78392312e-07
-4.619614147e-07
-4.462001862e-07
-4.327448769e-07
-4.255167638e-07
-4.182251186e-07
-4.06766305e-07
-3.948199389e-07
-3.872812734e-07
-3.78891644e-07
-3.65492695e-07
-3.514726491e-07
-3.40933163e-07
-3.316034685e-07
-3.211265876e-07
-3.113799091e-07
-3.032179929e-07
-2.991091078e-07
-2.931471874e-07
-2.812724953e-07
-2.662888883e-07
-2.555120866e-07
-2.476623358e-07
-2.395255828e-07
-2.325104902e-07
-2.271525651e-07
-2.265576648e-07
-2.24557027e-07
-2.150211626e-07
-2.024457488e-07
-1.997786023e-07
-1.999411341e-07
-1.907387266e-07
-1.786713354e-07
-1.742965351e-07
-1.729453917e-07
-1.662371215e-07
-1.587824359e-07
-1.558552502e-07
-1.523630469e-07
-1.42878241e-07
-1.341286728e-07
-1.307335114e-07
-1.287411408e-07
-1.253546181e-07
-1.218851928e-07
-1.189537585e-07
-1.146436818e-07
-1.079541157e-07
-1.00217874e-07
-9.28980537e-08
-8.576466424e-08
-7.903689739e-08
-7.428289855e-08
-7.150710238e-08
-6.924532867e-08
-6.53957475e-08
-5.929081093e-08
-5.357096094e-08
-5.042726622e-08
-4.562730149e-08
-3.885813899e-08
-3.724013915e-08
-3.897241042e-08
-3.431958579e-08
-2.411739306e-08
-1.914508492e-08
-1.738875718e-08
-7.571369811e-09
-3.426425066e-10
9.47322034e-09
3.604203034e-08
7.160408425e-08
1.052547099e-07
1.435950031e-07
2.339190293e-07
3.545930214e-07
6.077550785e-07
1.194225198e-06
4.00811772e-06
1.18073076e-05
1.091305346e-05
4.61458815e-06
4.213188431e-06
)


100
(
-2.122290712e-06
-1.925950431e-06
-1.511413106e-06
-1.205139168e-06
-1.048580536e-06
-9.377572856e-07
-8.55295417e-07
-7.936538782e-07
-7.512125999e-07
-7.185915118e-07
-6.834460977e-07
-6.527407846e-07
-6.165932299e-07
-5.784971595e-07
-5.464908964e-07
-5.162398925e-07
-4.887299091e-07
-4.699909863e-07
-4.566477643e-07
-4.438303137e-07
-4.320469951e-07
-4.243737392e-07
-4.177196566e-07
-4.077277092e-07
-3.963100956e-07
-3.868896611e-07
-3.800377598e-07
-3.718969236e-07
-3.603974676e-07
-3.472005755e-07
-3.378042797e-07
-3.301515439e-07
-3.211375814e-07
-3.111714994e-07
-3.073625065e-07
-3.03950143e-07
-2.920811283e-07
-2.722817508e-07
-2.620788609e-07
-2.606979777e-07
-2.541406855e-07
-2.440002306e-07
-2.39086428e-07
-2.411455415e-07
-2.374500046e-07
-2.218856713e-07
-2.095698676e-07
-2.13210353e-07
-2.147630362e-07
-2.041690243e-07
-1.951851725e-07
-1.942827585e-07
-1.932080156e-07
-1.877505366e-07
-1.822816544e-07
-1.777314245e-07
-1.715330227e-07
-1.65608938e-07
-1.608693238e-07
-1.559997823e-07
-1.525445528e-07
-1.509134137e-07
-1.483167442e-07
-1.435603726e-07
-1.383946741e-07
-1.337253396e-07
-1.28674615e-07
-1.231492091e-07
-1.183039664e-07
-1.148207309e-07
-1.12036551e-07
-1.092763534e-07
-1.072403796e-07
-1.06189546e-07
-1.012724265e-07
-9.217521817e-08
-8.83005317e-08
-8.995755468e-08
-9.001821857e-08
-8.575600469e-08
-8.411179534e-08
-8.905322567e-08
-8.395259432e-08
-7.540013241e-08
-7.297015988e-08
-5.949486427e-08
-4.056971822e-08
-3.160086898e-08
-8.22417926e-09
4.583025417e-08
9.215539502e-08
1.676481938e-07
3.123127323e-07
5.703879964e-07
1.489358747e-06
5.823086708e-06
1.18237433e-05
9.348885664e-06
4.400004981e-06
4.111932884e-06
)


100
(
-2.069593974e-06
-1.888570667e-06
-1.494208982e-06
-1.204454793e-06
-1.047360051e-06
-9.364226873e-07
-8.553650403e-07
-7.968506273e-07
-7.508472269e-07
-7.208997072e-07
-6.896884086e-07
-6.572871868e-07
-6.276155461e-07
-5.93137811e-07
-5.594080601e-07
-5.309632879e-07
-5.04234708e-07
-4.801683669e-07
-4.637266688e-07
-4.532496684e-07
-4.428951515e-07
-4.318576665e-07
-4.230191587e-07
-4.172715224e-07
-4.09122679e-07
-3.986344161e-07
-3.917763608e-07
-3.876297962e-07
-3.797080685e-07
-3.659117862e-07
-3.506236069e-07
-3.436352772e-07
-3.396105506e-07
-3.29503143e-07
-3.183620347e-07
-3.164723951e-07
-3.134911026e-07
-2.96981321e-07
-2.777856894e-07
-2.733833212e-07
-2.74637317e-07
-2.670431822e-07
-2.56951024e-07
-2.542251059e-07
-2.551576672e-07
-2.447615988e-07
-2.30035196e-07
-2.244387941e-07
-2.27840566e-07
-2.266002137e-07
-2.19877461e-07
-2.164878898e-07
-2.16135567e-07
-2.166503854e-07
-2.142802658e-07
-2.09091733e-07
-2.02983158e-07
-1.968562467e-07
-1.909689551e-07
-1.846050641e-07
-1.781784046e-07
-1.730097028e-07
-1.698938523e-07
-1.690402334e-07
-1.677682991e-07
-1.654370302e-07
-1.641485614e-07
-1.635437381e-07
-1.619332406e-07
-1.587588515e-07
-1.555537252e-07
-1.534099791e-07
-1.505670028e-07
-1.463882247e-07
-1.436526068e-07
-1.427249364e-07
-1.418574897e-07
-1.39067614e-07
-1.380605083e-07
-1.414107373e-07
-1.40685394e-07
-1.396653057e-07
-1.407777949e-07
-1.365382403e-07
-1.299615004e-07
-1.235697573e-07
-1.082057916e-07
-9.051018083e-08
-7.277806517e-08
-3.437901234e-08
2.89195903e-08
1.133392999e-07
2.612514357e-07
5.915039995e-07
1.613816869e-06
7.101767146e-06
1.185516702e-05
8.136444388e-06
4.234968346e-06
4.003095586e-06
)


100
(
-2.017539104e-06
-1.850852989e-06
-1.477561664e-06
-1.201380974e-06
-1.041659245e-06
-9.358745585e-07
-8.554358155e-07
-7.985970711e-07
-7.556060739e-07
-7.200849138e-07
-6.925423674e-07
-6.613421476e-07
-6.332531902e-07
-6.053885883e-07
-5.730725784e-07
-5.431499053e-07
-5.180951047e-07
-4.951839572e-07
-4.741152554e-07
-4.589993831e-07
-4.511281175e-07
-4.430450512e-07
-4.329564187e-07
-4.234376595e-07
-4.190955809e-07
-4.132201493e-07
-4.032024252e-07
-3.978271424e-07
-3.944254444e-07
-3.850475504e-07
-3.661197715e-07
-3.534107608e-07
-3.532381319e-07
-3.498052396e-07
-3.357076164e-07
-3.251638024e-07
-3.266415176e-07
-3.218087421e-07
-3.015624852e-07
-2.848388979e-07
-2.858326909e-07
-2.884914767e-07
-2.804947395e-07
-2.721403347e-07
-2.696018454e-07
-2.64985746e-07
-2.545278362e-07
-2.460827283e-07
-2.433239266e-07
-2.444084706e-07
-2.462612805e-07
-2.451660041e-07
-2.41578604e-07
-2.361882326e-07
-2.314485512e-07
-2.314539095e-07
-2.308958822e-07
-2.260077344e-07
-2.201384354e-07
-2.146355745e-07
-2.096327074e-07
-2.040904926e-07
-1.996197464e-07
-1.985767683e-07
-1.992428322e-07
-2.002694027e-07
-2.008258978e-07
-1.9925328e-07
-1.964336644e-07
-1.946685693e-07
-1.937044074e-07
-1.9295411e-07
-1.939195235e-07
-1.957542741e-07
-1.959270746e-07
-1.93223739e-07
-1.914802857e-07
-1.929933135e-07
-1.930046266e-07
-1.935807138e-07
-1.950218956e-07
-1.935811264e-07
-1.915816069e-07
-1.910680598e-07
-1.92841398e-07
-1.876339397e-07
-1.709859124e-07
-1.522557653e-07
-1.371441647e-07
-1.087110597e-07
-4.468655407e-08
3.975690107e-08
2.046322466e-07
6.513262877e-07
1.958704143e-06
7.787119604e-06
1.152600982e-05
7.364956398e-06
4.127422823e-06
3.919108732e-06
)


100
(
-1.971756192e-06
-1.814743697e-06
-1.458472149e-06
-1.191285554e-06
-1.036057903e-06
-9.337835683e-07
-8.564096406e-07
-7.980418266e-07
-7.574846609e-07
-7.201288259e-07
-6.924743751e-07
-6.666560807e-07
-6.362822549e-07
-6.115172272e-07
-5.858919948e-07
-5.558346621e-07
-5.306217611e-07
-5.100702605e-07
-4.880434394e-07
-4.692899057e-07
-4.568881606e-07
-4.510735161e-07
-4.448667208e-07
-4.356668286e-07
-4.262090322e-07
-4.205754599e-07
-4.157518322e-07
-4.077000227e-07
-4.039082333e-07
-4.002300857e-07
-3.87617004e-07
-3.671947912e-07
-3.587040063e-07
-3.626430797e-07
-3.570681243e-07
-3.428411839e-07
-3.354620978e-07
-3.366213617e-07
-3.255269039e-07
-3.064309507e-07
-2.973462226e-07
-2.997235473e-07
-3.003817817e-07
-2.950796405e-07
-2.901245481e-07
-2.857193967e-07
-2.814986807e-07
-2.757705482e-07
-2.697427876e-07
-2.654411192e-07
-2.622038193e-07
-2.612453936e-07
-2.620194874e-07
-2.597390068e-07
-2.537510513e-07
-2.484658786e-07
-2.459301364e-07
-2.469610729e-07
-2.48170487e-07
-2.468223056e-07
-2.456135758e-07
-2.433122426e-07
-2.389235887e-07
-2.350209772e-07
-2.324613248e-07
-2.315657064e-07
-2.320185417e-07
-2.32204148e-07
-2.310997779e-07
-2.303501797e-07
-2.326321517e-07
-2.36805018e-07
-2.401227313e-07
-2.409550005e-07
-2.416056128e-07
-2.436584628e-07
-2.444482714e-07
-2.458413524e-07
-2.477662587e-07
-2.473358175e-07
-2.457365807e-07
-2.450408805e-07
-2.49558129e-07
-2.509166451e-07
-2.446931718e-07
-2.391502806e-07
-2.374135491e-07
-2.250566143e-07
-1.979811063e-07
-1.651341216e-07
-1.154051822e-07
-2.81980893e-08
1.942331452e-07
8.07808011e-07
2.43843008e-06
8.104215844e-06
1.098640912e-05
6.809487122e-06
4.032292862e-06
3.851570015e-06
)


100
(
-1.933594601e-06
-1.779397112e-06
-1.433717338e-06
-1.176009666e-06
-1.032261691e-06
-9.304319426e-07
-8.556094479e-07
-7.984384717e-07
-7.57899163e-07
-7.250608907e-07
-6.905077374e-07
-6.669182427e-07
-6.427503699e-07
-6.138080858e-07
-5.918817507e-07
-5.694504977e-07
-5.441857591e-07
-5.204344657e-07
-5.013862357e-07
-4.852122438e-07
-4.695750773e-07
-4.564298801e-07
-4.516605158e-07
-4.477290433e-07
-4.387100693e-07
-4.290916516e-07
-4.212764048e-07
-4.173171006e-07
-4.127558328e-07
-4.101931335e-07
-4.062821246e-07
-3.87488461e-07
-3.680862436e-07
-3.675519267e-07
-3.730042288e-07
-3.641231048e-07
-3.507382364e-07
-3.460810454e-07
-3.427892354e-07
-3.307884824e-07
-3.175303302e-07
-3.118938716e-07
-3.140019262e-07
-3.183531325e-07
-3.17355422e-07
-3.126052708e-07
-3.050685618e-07
-2.964672968e-07
-2.918535773e-07
-2.884240998e-07
-2.839732956e-07
-2.808808127e-07
-2.785691946e-07
-2.770036001e-07
-2.765956951e-07
-2.734561384e-07
-2.697027461e-07
-2.700331444e-07
-2.720807292e-07
-2.751555721e-07
-2.785627603e-07
-2.782050705e-07
-2.739163588e-07
-2.69613653e-07
-2.672368263e-07
-2.660843564e-07
-2.66306305e-07
-2.686098181e-07
-2.712534084e-07
-2.726314603e-07
-2.735362011e-07
-2.75538773e-07
-2.802119225e-07
-2.856468434e-07
-2.895080097e-07
-2.938510123e-07
-2.975332767e-07
-2.980372953e-07
-2.971184788e-07
-2.971987199e-07
-3.016836627e-07
-3.057707702e-07
-3.043126181e-07
-3.004900952e-07
-2.990008949e-07
-3.008551398e-07
-3.004654375e-07
-2.844835764e-07
-2.601881138e-07
-2.324944284e-07
-1.810543585e-07
-8.812460548e-08
2.521097989e-07
1.02094936e-06
3.100194851e-06
8.465470437e-06
1.027119769e-05
6.216444273e-06
3.918100433e-06
3.755253581e-06
)


100
(
-1.898616456e-06
-1.745918152e-06
-1.406311352e-06
-1.162905464e-06
-1.026039817e-06
-9.256503727e-07
-8.521817135e-07
-7.997698755e-07
-7.570410169e-07
-7.26253505e-07
-6.949268093e-07
-6.649219072e-07
-6.429060926e-07
-6.196370183e-07
-5.939943478e-07
-5.756366675e-07
-5.572639074e-07
-5.346149908e-07
-5.129163544e-07
-4.979938128e-07
-4.849154741e-07
-4.70811547e-07
-4.584358577e-07
-4.518145042e-07
-4.484264815e-07
-4.415517016e-07
-4.321982386e-07
-4.223872527e-07
-4.181242764e-07
-4.210766452e-07
-4.220727954e-07
-4.069713977e-07
-3.852058133e-07
-3.734102879e-07
-3.760158647e-07
-3.790122158e-07
-3.717086393e-07
-3.631112594e-07
-3.571076251e-07
-3.517787847e-07
-3.456417793e-07
-3.394770335e-07
-3.338255983e-07
-3.285430187e-07
-3.28477605e-07
-3.311175315e-07
-3.285836194e-07
-3.214193243e-07
-3.132769538e-07
-3.070142141e-07
-3.05557854e-07
-3.048586607e-07
-3.021636756e-07
-3.005331768e-07
-2.996835058e-07
-2.98710007e-07
-2.991631305e-07
-2.99303982e-07
-2.986302099e-07
-2.991653754e-07
-3.010613889e-07
-3.04152011e-07
-3.057595579e-07
-3.039892352e-07
-3.030422981e-07
-3.06411547e-07
-3.102816651e-07
-3.11594101e-07
-3.111703472e-07
-3.107605362e-07
-3.129094993e-07
-3.167217116e-07
-3.22791323e-07
-3.319562802e-07
-3.386881041e-07
-3.417757498e-07
-3.433238162e-07
-3.448921902e-07
-3.493110119e-07
-3.551861089e-07
-3.582661616e-07
-3.580533503e-07
-3.57135782e-07
-3.61063829e-07
-3.639724104e-07
-3.573708592e-07
-3.531949991e-07
-3.446460333e-07
-3.236279173e-07
-2.954803081e-07
-2.402997771e-07
-1.093532582e-07
3.551990573e-07
1.115175771e-06
4.052637704e-06
9.134264169e-06
9.343699605e-06
5.493956152e-06
3.811186599e-06
3.71337922e-06
)


100
(
-1.860845936e-06
-1.711825491e-06
-1.379672909e-06
-1.150693345e-06
-1.016414632e-06
-9.20252231e-07
-8.477526041e-07
-7.983908992e-07
-7.597857208e-07
-7.25603457e-07
-6.971351332e-07
-6.667240103e-07
-6.41012939e-07
-6.217022631e-07
-6.008542388e-07
-5.779372686e-07
-5.62625921e-07
-5.476216599e-07
-5.27795322e-07
-5.080150551e-07
-4.961162541e-07
-4.860605365e-07
-4.721919664e-07
-4.596737095e-07
-4.513831341e-07
-4.490262696e-07
-4.448465078e-07
-4.367547896e-07
-4.282938083e-07
-4.232536535e-07
-4.213575302e-07
-4.252190963e-07
-4.12959733e-07
-3.871642782e-07
-3.783530551e-07
-3.832686614e-07
-3.872481994e-07
-3.866082323e-07
-3.828732525e-07
-3.743253699e-07
-3.661268865e-07
-3.603949939e-07
-3.538073565e-07
-3.472961642e-07
-3.418233308e-07
-3.38235516e-07
-3.402434286e-07
-3.428155089e-07
-3.381671085e-07
-3.317367008e-07
-3.281047529e-07
-3.259281116e-07
-3.278012341e-07
-3.302413431e-07
-3.293153353e-07
-3.27409808e-07
-3.239164408e-07
-3.217174043e-07
-3.239480661e-07
-3.260460487e-07
-3.272673338e-07
-3.302325289e-07
-3.34585653e-07
-3.401820654e-07
-3.449080021e-07
-3.469937404e-07
-3.482928567e-07
-3.505096809e-07
-3.5163942e-07
-3.508113925e-07
-3.5431656e-07
-3.631186959e-07
-3.709413224e-07
-3.755239355e-07
-3.786748381e-07
-3.815081504e-07
-3.86751714e-07
-3.972405955e-07
-4.067593232e-07
-4.095326149e-07
-4.097277458e-07
-4.130902297e-07
-4.206609703e-07
-4.223817735e-07
-4.180586641e-07
-4.151067646e-07
-4.139610857e-07
-4.020895574e-07
-3.84398297e-07
-3.558522471e-07
-2.883934368e-07
-1.161120435e-07
3.757479019e-07
1.36247285e-06
5.256200826e-06
9.744781642e-06
8.304783617e-06
4.707753804e-06
3.703957065e-06
3.677181773e-06
)


100
(
-1.820572575e-06
-1.677439086e-06
-1.357184398e-06
-1.134587251e-06
-1.003156348e-06
-9.126866143e-07
-8.44721375e-07
-7.938760306e-07
-7.590413185e-07
-7.252700908e-07
-6.96966825e-07
-6.703689832e-07
-6.423136283e-07
-6.206387974e-07
-6.036061882e-07
-5.849270291e-07
-5.645430354e-07
-5.515631289e-07
-5.397424357e-07
-5.232415377e-07
-5.063764594e-07
-4.945400009e-07
-4.852526759e-07
-4.731540237e-07
-4.611407158e-07
-4.515446268e-07
-4.495425696e-07
-4.483168548e-07
-4.412511625e-07
-4.341571776e-07
-4.280904567e-07
-4.263373547e-07
-4.217316611e-07
-4.073200877e-07
-3.979295592e-07
-3.975503368e-07
-3.982215624e-07
-4.015963275e-07
-4.020297163e-07
-3.955523985e-07
-3.862694362e-07
-3.759081644e-07
-3.703254813e-07
-3.672962591e-07
-3.616439384e-07
-3.563249665e-07
-3.536213443e-07
-3.523901843e-07
-3.541428711e-07
-3.566452182e-07
-3.581969722e-07
-3.588154339e-07
-3.555958586e-07
-3.500894685e-07
-3.502289364e-07
-3.52539735e-07
-3.504614095e-07
-3.481887755e-07
-3.481037854e-07
-3.50326993e-07
-3.568517157e-07
-3.651908206e-07
-3.707048988e-07
-3.730668636e-07
-3.756080111e-07
-3.803071533e-07
-3.836691275e-07
-3.865739592e-07
-3.914507034e-07
-3.986230389e-07
-4.049382143e-07
-4.07689816e-07
-4.096012018e-07
-4.122661574e-07
-4.166870822e-07
-4.261543125e-07
-4.375216127e-07
-4.467844769e-07
-4.533966039e-07
-4.574291703e-07
-4.650939315e-07
-4.735726712e-07
-4.766444396e-07
-4.754503092e-07
-4.786867916e-07
-4.783237387e-07
-4.691431415e-07
-4.611997071e-07
-4.455050512e-07
-4.100825098e-07
-3.279655189e-07
-1.15119004e-07
4.184385077e-07
1.905979129e-06
6.247726317e-06
9.765644312e-06
7.389575826e-06
4.159295185e-06
3.594167119e-06
3.59169463e-06
)


100
(
-1.783747771e-06
-1.645125487e-06
-1.332742679e-06
-1.114360077e-06
-9.908645463e-07
-9.03286853e-07
-8.386090845e-07
-7.889768419e-07
-7.555421889e-07
-7.274291038e-07
-6.950333506e-07
-6.711593007e-07
-6.474377817e-07
-6.207623994e-07
-6.018247345e-07
-5.875448628e-07
-5.713451021e-07
-5.533097787e-07
-5.420803028e-07
-5.33791344e-07
-5.203693929e-07
-5.047927133e-07
-4.922922547e-07
-4.840708873e-07
-4.741753739e-07
-4.63392443e-07
-4.546730193e-07
-4.492704828e-07
-4.488245978e-07
-4.460632338e-07
-4.399160295e-07
-4.337100813e-07
-4.26120237e-07
-4.230099654e-07
-4.210232974e-07
-4.156440525e-07
-4.114857458e-07
-4.073163308e-07
-4.058284257e-07
-4.083993987e-07
-4.064312702e-07
-3.9797024e-07
-3.887946653e-07
-3.81540371e-07
-3.7876966e-07
-3.771264364e-07
-3.734876923e-07
-3.724619445e-07
-3.752289745e-07
-3.777070008e-07
-3.80885258e-07
-3.835431703e-07
-3.816183373e-07
-3.761766037e-07
-3.709876982e-07
-3.694584922e-07
-3.729812244e-07
-3.751718187e-07
-3.772056394e-07
-3.843929664e-07
-3.901834986e-07
-3.939297141e-07
-3.991379063e-07
-4.027327139e-07
-4.048968509e-07
-4.090133595e-07
-4.154375123e-07
-4.254060484e-07
-4.351351408e-07
-4.401669612e-07
-4.427879485e-07
-4.447214572e-07
-4.474846242e-07
-4.538222622e-07
-4.659421285e-07
-4.770583793e-07
-4.814052829e-07
-4.842352735e-07
-4.932138288e-07
-5.101918858e-07
-5.222578505e-07
-5.244585346e-07
-5.256313438e-07
-5.337358809e-07
-5.395618863e-07
-5.333902802e-07
-5.313151184e-07
-5.256887812e-07
-4.964592641e-07
-4.530312574e-07
-3.578630377e-07
-8.998624737e-08
5.604338194e-07
2.346720565e-06
6.720119556e-06
9.475839604e-06
6.722360671e-06
3.881844647e-06
3.563927295e-06
3.588730088e-06
)


100
(
-1.750591229e-06
-1.61391879e-06
-1.306327089e-06
-1.094483693e-06
-9.776249777e-07
-8.925265476e-07
-8.296290207e-07
-7.85300032e-07
-7.495438714e-07
-7.247072593e-07
-6.98415551e-07
-6.698214892e-07
-6.473610715e-07
-6.24808116e-07
-6.009922369e-07
-5.849282817e-07
-5.734522221e-07
-5.595516058e-07
-5.441956479e-07
-5.345347021e-07
-5.287435652e-07
-5.178772453e-07
-5.032902327e-07
-4.896004528e-07
-4.832059547e-07
-4.768550618e-07
-4.66033534e-07
-4.574107655e-07
-4.508804923e-07
-4.49885345e-07
-4.506215305e-07
-4.478335477e-07
-4.434904533e-07
-4.359333132e-07
-4.276218887e-07
-4.257436872e-07
-4.247761252e-07
-4.204804483e-07
-4.15678662e-07
-4.116202373e-07
-4.12662023e-07
-4.149699768e-07
-4.098677858e-07
-4.021557006e-07
-3.970604364e-07
-3.934535358e-07
-3.951123137e-07
-3.988196445e-07
-3.993669818e-07
-3.994957548e-07
-3.992014301e-07
-3.992099305e-07
-4.026555113e-07
-4.031489648e-07
-3.97021868e-07
-3.931006488e-07
-3.94508236e-07
-4.011520785e-07
-4.111402077e-07
-4.173336606e-07
-4.193295023e-07
-4.198480943e-07
-4.230736593e-07
-4.295853794e-07
-4.343727771e-07
-4.41235666e-07
-4.526136351e-07
-4.619912826e-07
-4.676088232e-07
-4.717852108e-07
-4.751596889e-07
-4.791542358e-07
-4.888325839e-07
-5.021785147e-07
-5.117617396e-07
-5.163986871e-07
-5.187234802e-07
-5.255414139e-07
-5.434508359e-07
-5.612809539e-07
-5.657872684e-07
-5.671628131e-07
-5.799431693e-07
-5.909772861e-07
-5.908334585e-07
-5.915082009e-07
-5.913781837e-07
-5.7396925e-07
-5.451494416e-07
-4.998213657e-07
-3.785985308e-07
-7.634430973e-08
6.167198454e-07
2.650080237e-06
6.911013942e-06
9.09833541e-06
6.316711189e-06
3.731358455e-06
3.484410752e-06
3.520328921e-06
)


100
(
-1.719142266e-06
-1.583989981e-06
-1.279886897e-06
-1.077246575e-06
-9.62194417e-07
-8.806280699e-07
-8.191310291e-07
-7.781509e-07
-7.465405864e-07
-7.196547366e-07
-6.976392419e-07
-6.717168033e-07
-6.455046715e-07
-6.250247202e-07
-6.048343448e-07
-5.836973518e-07
-5.697357087e-07
-5.610355993e-07
-5.499917006e-07
-5.372100761e-07
-5.279136726e-07
-5.23717228e-07
-5.154101096e-07
-5.025767478e-07
-4.905790403e-07
-4.82058149e-07
-4.764797308e-07
-4.689215719e-07
-4.619544431e-07
-4.573291924e-07
-4.541410985e-07
-4.56697063e-07
-4.57112329e-07
-4.505651515e-07
-4.41880355e-07
-4.321514227e-07
-4.28853498e-07
-4.307737087e-07
-4.288038916e-07
-4.243077115e-07
-4.21101917e-07
-4.18887356e-07
-4.20304698e-07
-4.212468373e-07
-4.198584492e-07
-4.202018606e-07
-4.189941561e-07
-4.148001823e-07
-4.161387772e-07
-4.203125581e-07
-4.208300033e-07
-4.207593053e-07
-4.2123247e-07
-4.214808759e-07
-4.224003303e-07
-4.237822875e-07
-4.268919604e-07
-4.308998254e-07
-4.352812652e-07
-4.42132076e-07
-4.473707668e-07
-4.485882997e-07
-4.503010288e-07
-4.556096447e-07
-4.662628882e-07
-4.782506245e-07
-4.858508696e-07
-4.910547754e-07
-4.957390209e-07
-5.003879949e-07
-5.060808667e-07
-5.183636414e-07
-5.322782469e-07
-5.411524437e-07
-5.476676139e-07
-5.525825076e-07
-5.605744578e-07
-5.7608785e-07
-5.916363094e-07
-5.99292848e-07
-6.034709035e-07
-6.170395886e-07
-6.339337047e-07
-6.367772916e-07
-6.420438593e-07
-6.49640023e-07
-6.441852087e-07
-6.281059143e-07
-5.922364954e-07
-5.400463781e-07
-4.343659481e-07
-7.617992078e-08
6.407870888e-07
2.958622399e-06
7.010203713e-06
8.658994728e-06
6.034083821e-06
3.624826778e-06
3.406951517e-06
3.459160487e-06
)


100
(
-1.683663318e-06
-1.552819404e-06
-1.256353363e-06
-1.059176224e-06
-9.450909397e-07
-8.672378659e-07
-8.101612471e-07
-7.68059815e-07
-7.405693812e-07
-7.152613715e-07
-6.935671443e-07
-6.719773712e-07
-6.46632546e-07
-6.232389567e-07
-6.051455901e-07
-5.874375561e-07
-5.686957678e-07
-5.562180641e-07
-5.504802344e-07
-5.427062524e-07
-5.318066081e-07
-5.214820151e-07
-5.190482491e-07
-5.146288828e-07
-5.023907788e-07
-4.909472985e-07
-4.805319229e-07
-4.772521565e-07
-4.761126068e-07
-4.708047082e-07
-4.658711739e-07
-4.606769167e-07
-4.587917169e-07
-4.601665861e-07
-4.568414556e-07
-4.485471646e-07
-4.393187213e-07
-4.325039692e-07
-4.338750614e-07
-4.368157794e-07
-4.339938114e-07
-4.31721225e-07
-4.321154807e-07
-4.337879626e-07
-4.375422164e-07
-4.399521531e-07
-4.386921654e-07
-4.361815291e-07
-4.33445255e-07
-4.330940034e-07
-4.387888877e-07
-4.431089458e-07
-4.43292253e-07
-4.452611437e-07
-4.501027303e-07
-4.533711949e-07
-4.554838448e-07
-4.577904927e-07
-4.606912837e-07
-4.662305046e-07
-4.727313928e-07
-4.776274741e-07
-4.816545087e-07
-4.907453355e-07
-5.008554063e-07
-5.068059621e-07
-5.121986755e-07
-5.17768688e-07
-5.23263448e-07
-5.309873092e-07
-5.451706144e-07
-5.594018455e-07
-5.670053456e-07
-5.727181101e-07
-5.79726923e-07
-5.916125628e-07
-6.083425203e-07
-6.230715451e-07
-6.314164308e-07
-6.356271633e-07
-6.504091595e-07
-6.691090393e-07
-6.752221014e-07
-6.807125943e-07
-7.015026687e-07
-7.056805803e-07
-6.822739974e-07
-6.651390068e-07
-6.433698424e-07
-5.839644938e-07
-4.491301048e-07
-4.292870787e-08
7.951901119e-07
3.272741312e-06
6.981358959e-06
8.190744715e-06
5.727493536e-06
3.525944676e-06
3.360430679e-06
3.448795319e-06
)


100
(
-1.646242573e-06
-1.521658609e-06
-1.234584757e-06
-1.039687007e-06
-9.293308467e-07
-8.523974828e-07
-7.983177154e-07
-7.57580293e-07
-7.321270719e-07
-7.122404847e-07
-6.87677095e-07
-6.683073169e-07
-6.483654184e-07
-6.236928826e-07
-6.027985342e-07
-5.875371822e-07
-5.721977125e-07
-5.560685656e-07
-5.448121365e-07
-5.416343603e-07
-5.369689007e-07
-5.278990566e-07
-5.190749731e-07
-5.138411162e-07
-5.100958765e-07
-5.018891548e-07
-4.933407849e-07
-4.873498905e-07
-4.821891213e-07
-4.797618919e-07
-4.769334653e-07
-4.723132824e-07
-4.665621961e-07