/*--------------------------------*- C++ -*----------------------------------*\
| =========                 |                                                 |
| \\      /  F ield         | OpenFOAM: The Open Source CFD Toolbox           |
|  \\    /   O peration     | Version:  2.3.1                                 |
|   \\  /    A nd           | Web:      www.OpenFOAM.org                      |
|    \\/     M anipulation  |                                                 |
\*---------------------------------------------------------------------------*/
FoamFile
{
    version     2.0;
    format      ascii;
    class       dictionary;
    location    "constant";
    object      DPSI21;
}
// * * * * * * * * * * * * * * * * * * * * * * * * * * * * * * * * * * * * * //

DPSI21_table
100
(

100
(
2.892211835e-06
2.415749363e-06
1.705415833e-06
1.363315164e-06
1.178844503e-06
1.041193983e-06
9.393433743e-07
8.643780298e-07
8.100894994e-07
7.63869279e-07
7.230358919e-07
6.823458619e-07
6.47372075e-07
6.156484348e-07
5.850816748e-07
5.594305644e-07
5.373335408e-07
5.158006489e-07
4.986483258e-07
4.850228222e-07
4.716252059e-07
4.592719077e-07
4.480930095e-07
4.37221689e-07
4.258558988e-07
4.157667484e-07
4.066614051e-07
3.97355894e-07
3.876790544e-07
3.79112654e-07
3.713965348e-07
3.634891358e-07
3.557647924e-07
3.486363227e-07
3.419989703e-07
3.35035437e-07
3.270730723e-07
3.19721955e-07
3.128581125e-07
3.059373703e-07
2.985487479e-07
2.918514763e-07
2.857630164e-07
2.798837496e-07
2.739388911e-07
2.686197722e-07
2.638617963e-07
2.595294734e-07
2.541466731e-07
2.493439813e-07
2.450517338e-07
2.409836779e-07
2.363671322e-07
2.320244616e-07
2.279185609e-07
2.237819719e-07
2.195551366e-07
2.155904841e-07
2.118654409e-07
2.079658704e-07
2.036484653e-07
1.995733298e-07
1.957442096e-07
1.916638744e-07
1.873352936e-07
1.832689039e-07
1.794749991e-07
1.751836259e-07
1.709791343e-07
1.670391193e-07
1.630526063e-07
1.58789921e-07
1.547814633e-07
1.509131595e-07
1.466615193e-07
1.426601177e-07
1.387619203e-07
1.345371301e-07
1.305044296e-07
1.263475887e-07
1.220831553e-07
1.17980068e-07
1.135537423e-07
1.093277615e-07
1.04862839e-07
1.005370753e-07
9.600507046e-08
9.156833281e-08
8.701100023e-08
8.243843743e-08
7.78612055e-08
7.323980355e-08
6.855140207e-08
6.380201018e-08
5.898694436e-08
5.412754671e-08
4.913632389e-08
4.402771578e-08
3.879424482e-08
3.549772516e-08
)


100
(
2.859233034e-06
2.394592053e-06
1.693346576e-06
1.364214583e-06
1.188129749e-06
1.039065319e-06
9.46887622e-07
8.748529902e-07
8.179065308e-07
7.800521376e-07
7.299892521e-07
6.939964509e-07
6.588417324e-07
6.21189249e-07
5.999437835e-07
5.760692074e-07
5.405972266e-07
5.28174996e-07
5.204334511e-07
4.930904485e-07
4.801443382e-07
4.785974677e-07
4.658439454e-07
4.441969081e-07
4.398625576e-07
4.381590832e-07
4.220962048e-07
4.030748071e-07
4.028633032e-07
4.043524456e-07
3.886371279e-07
3.738012053e-07
3.717741379e-07
3.705857713e-07
3.595735557e-07
3.46228146e-07
3.394071836e-07
3.422701202e-07
3.363820642e-07
3.217399878e-07
3.114939359e-07
3.122833813e-07
3.095587771e-07
2.981209592e-07
2.885244461e-07
2.878604582e-07
2.871472922e-07
2.786389819e-07
2.69129974e-07
2.660658138e-07
2.693703397e-07
2.650728527e-07
2.551065591e-07
2.505870285e-07
2.514945199e-07
2.479409629e-07
2.399088244e-07
2.357041248e-07
2.343811246e-07
2.337655858e-07
2.229120595e-07
2.139860314e-07
2.217906868e-07
2.216998744e-07
2.050278068e-07
1.973553952e-07
2.103429204e-07
2.029872606e-07
1.858565096e-07
1.896034478e-07
1.936688702e-07
1.806426804e-07
1.714977275e-07
1.811744796e-07
1.749862814e-07
1.58322848e-07
1.651853012e-07
1.652412942e-07
1.485160463e-07
1.533876784e-07
1.498847299e-07
1.388780413e-07
1.427802133e-07
1.325531538e-07
1.290722443e-07
1.287404342e-07
1.190444887e-07
1.175497402e-07
1.116692228e-07
1.062820235e-07
1.0216226e-07
9.642219732e-08
9.078100429e-08
8.488412353e-08
7.892470846e-08
7.277964635e-08
6.659337625e-08
5.950627158e-08
5.171088047e-08
4.738612969e-08
)


100
(
2.823894187e-06
2.373732954e-06
1.68117713e-06
1.373143235e-06
1.194454562e-06
1.049723806e-06
9.496561787e-07
8.812458305e-07
8.226848582e-07
7.855127747e-07
7.450256188e-07
7.017598683e-07
6.749815915e-07
6.333111653e-07
6.037206049e-07
5.911570536e-07
5.643231927e-07
5.304467973e-07
5.264384684e-07
5.217755854e-07
4.945775301e-07
4.808632492e-07
4.818744831e-07
4.721057901e-07
4.50369263e-07
4.427071099e-07
4.424766968e-07
4.313381528e-07
4.139188404e-07
4.056705265e-07
4.086934034e-07
4.022994884e-07
3.867015094e-07
3.772453335e-07
3.770940866e-07
3.730266853e-07
3.609429794e-07
3.48157922e-07
3.443896168e-07
3.475723783e-07
3.401665111e-07
3.26809943e-07
3.160209305e-07
3.181260901e-07
3.180031159e-07
3.064554772e-07
2.978404894e-07
2.957864261e-07
2.959936669e-07
2.900816522e-07
2.825718677e-07
2.74606024e-07
2.776801882e-07
2.799950438e-07
2.728268933e-07
2.588720172e-07
2.597460932e-07
2.646879009e-07
2.560724109e-07
2.447410759e-07
2.479293707e-07
2.445050598e-07
2.289049672e-07
2.334353311e-07
2.382851695e-07
2.255762651e-07
2.113566126e-07
2.228420572e-07
2.20728191e-07
2.051866021e-07
2.017397172e-07
2.064864066e-07
2.033307721e-07
1.900751134e-07
1.892202321e-07
1.960225637e-07
1.852297597e-07
1.704433987e-07
1.774952736e-07
1.725035079e-07
1.678237311e-07
1.603331882e-07
1.580137314e-07
1.574983996e-07
1.437697296e-07
1.442457528e-07
1.397215394e-07
1.314346057e-07
1.281031341e-07
1.225188396e-07
1.159809342e-07
1.096731522e-07
1.035997615e-07
9.693952173e-08
9.010885391e-08
8.302318134e-08
7.542564814e-08
6.935539931e-08
6.186314513e-08
5.568877838e-08
)


100
(
2.78821024e-06
2.350092895e-06
1.682140224e-06
1.375012436e-06
1.184885135e-06
1.059668015e-06
9.541573468e-07
8.87564763e-07
8.408218438e-07
7.901668015e-07
7.581015683e-07
7.088992652e-07
6.805053688e-07
6.578631693e-07
6.131780503e-07
5.918588816e-07
5.827772974e-07
5.567421124e-07
5.254023932e-07
5.254242707e-07
5.251103603e-07
4.99804251e-07
4.816252227e-07
4.833874436e-07
4.796282631e-07
4.589042544e-07
4.449980503e-07
4.456641449e-07
4.420802115e-07
4.263340205e-07
4.106330202e-07
4.113379953e-07
4.140133984e-07
4.008715421e-07
3.876059701e-07
3.818178471e-07
3.817355479e-07
3.752334428e-07
3.634508717e-07
3.515162729e-07
3.4697466e-07
3.515219434e-07
3.472821504e-07
3.369539628e-07
3.21972515e-07
3.232674479e-07
3.278327134e-07
3.190898758e-07
3.00593278e-07
3.013481496e-07
3.110568977e-07
3.02396252e-07
2.864144127e-07
2.849655102e-07
2.97489003e-07
2.927641988e-07
2.687696289e-07
2.65132509e-07
2.834666868e-07
2.734998057e-07
2.540076344e-07
2.601671951e-07
2.613333688e-07
2.480715833e-07
2.451310433e-07
2.478136381e-07
2.428172223e-07
2.323648862e-07
2.287922736e-07
2.304263801e-07
2.287596703e-07
2.215197339e-07
2.156405394e-07
2.089840807e-07
2.068643696e-07
2.136257333e-07
2.00797834e-07
1.820262864e-07
1.982407319e-07
1.944785511e-07
1.733182914e-07
1.791537868e-07
1.750526502e-07
1.644089752e-07
1.622221001e-07
1.579102433e-07
1.521974596e-07
1.454887302e-07
1.39108997e-07
1.331153994e-07
1.269692242e-07
1.202522255e-07
1.128473242e-07
1.061578435e-07
9.945621706e-08
9.234150797e-08
8.109686974e-08
7.507352109e-08
7.196042541e-08
6.520259741e-08
)


100
(
2.761865986e-06
2.330069099e-06
1.668564523e-06
1.364118209e-06
1.191926849e-06
1.063677205e-06
9.630514584e-07
8.887487138e-07
8.458164441e-07
7.958199494e-07
7.623966338e-07
7.345775226e-07
6.837191359e-07
6.618813898e-07
6.398060078e-07
5.98490681e-07
5.818325393e-07
5.760737917e-07
5.535810262e-07
5.259155458e-07
5.2441296e-07
5.263838992e-07
5.063188714e-07
4.841329682e-07
4.831758022e-07
4.847499457e-07
4.680049483e-07
4.509442358e-07
4.474619532e-07
4.48651459e-07
4.381802523e-07
4.238932438e-07
4.109961128e-07
4.163794159e-07
4.181371347e-07
4.049302775e-07
3.863479884e-07
3.855757263e-07
3.900348955e-07
3.76835556e-07
3.651091465e-07
3.526763756e-07
3.584784623e-07
3.635108153e-07
3.497675563e-07
3.204351687e-07
3.291856688e-07
3.494484714e-07
3.305161992e-07
3.059094542e-07
3.11605616e-07
3.28527257e-07
3.147846114e-07
2.960918595e-07
3.00273757e-07
3.152367502e-07
2.98108737e-07
2.786042392e-07
2.834841181e-07
2.91716537e-07
2.856228997e-07
2.720680612e-07
2.698980633e-07
2.731406488e-07
2.697947068e-07
2.627937001e-07
2.535945312e-07
2.510076619e-07
2.515444469e-07
2.447971255e-07
2.382598248e-07
2.309823781e-07
2.316430697e-07
2.375963748e-07
2.216521761e-07
2.036046413e-07
2.167131326e-07
2.181801275e-07
2.011898065e-07
1.952381392e-07
1.931174384e-07
1.931171789e-07
1.880141232e-07
1.785255681e-07
1.744836517e-07
1.675383916e-07
1.604520564e-07
1.554823608e-07
1.504999189e-07
1.431031716e-07
1.336527897e-07
1.28923438e-07
1.219111452e-07
1.140410316e-07
1.071746861e-07
9.931983203e-08
8.931144793e-08
8.046795094e-08
7.727153665e-08
7.486309593e-08
)


100
(
2.732218523e-06
2.308925969e-06
1.655565899e-06
1.354405734e-06
1.197247211e-06
1.065087464e-06
9.699315979e-07
8.970316774e-07
8.488117398e-07
8.162839348e-07
7.633547342e-07
7.368519168e-07
7.067868127e-07
6.634594514e-07
6.457361115e-07
6.242818088e-07
5.874693275e-07
5.732246521e-07
5.711597408e-07
5.535763248e-07
5.288015421e-07
5.227418212e-07
5.262857652e-07
5.126732186e-07
4.903982892e-07
4.799338079e-07
4.824927913e-07
4.779609154e-07
4.648931018e-07
4.508517523e-07
4.51741554e-07
4.516879787e-07
4.381336905e-07
4.150443027e-07
4.192705932e-07
4.304150545e-07
4.197385485e-07
3.836969342e-07
3.817976311e-07
4.032933088e-07
3.897114187e-07
3.672621073e-07
3.557811051e-07
3.739893994e-07
3.812988865e-07
3.503558635e-07
3.184516211e-07
3.474697144e-07
3.66567611e-07
3.350490638e-07
3.156839321e-07
3.276862676e-07
3.369497053e-07
3.233491629e-07
3.114755792e-07
3.141989116e-07
3.11444641e-07
3.073383049e-07
3.081598675e-07
2.98198493e-07
2.915736254e-07
2.970223696e-07
2.971613494e-07
2.848565446e-07
2.728718425e-07
2.713468998e-07
2.757421757e-07
2.692472037e-07
2.599476633e-07
2.526678033e-07
2.52592556e-07
2.537715821e-07
2.470809963e-07
2.340854318e-07
2.378872447e-07
2.342338823e-07
2.194242045e-07
2.167821837e-07
2.139132757e-07
2.169978501e-07
2.113757308e-07
1.952757185e-07
1.92265905e-07
1.919149554e-07
1.827294371e-07
1.785267328e-07
1.713676583e-07
1.636810433e-07
1.558268512e-07
1.498982831e-07
1.448702581e-07
1.363995564e-07
1.284397845e-07
1.212661394e-07
1.131664471e-07
1.037774941e-07
9.412650504e-08
8.6518577e-08
8.483496281e-08
8.456758312e-08
)


100
(
2.697634195e-06
2.286357727e-06
1.641837925e-06
1.358556325e-06
1.196992267e-06
1.06523559e-06
9.720134046e-07
9.059068697e-07
8.473110638e-07
8.180856361e-07
7.828590372e-07
7.368034659e-07
7.148909249e-07
6.812352597e-07
6.454187535e-07
6.317378477e-07
6.12018121e-07
5.794313437e-07
5.660166323e-07
5.676945208e-07
5.554879129e-07
5.323629261e-07
5.19795517e-07
5.246933127e-07
5.186860919e-07
4.950341055e-07
4.85085371e-07
4.89733412e-07
4.860160902e-07
4.692237589e-07
4.472051728e-07
4.533212862e-07
4.621824815e-07
4.417992979e-07
4.148242407e-07
4.264862997e-07
4.447948768e-07
4.192596146e-07
3.812729898e-07
3.92529802e-07
4.156735024e-07
3.951679141e-07
3.694356642e-07
3.662556407e-07
3.918900362e-07
3.788819921e-07
3.485469203e-07
3.382898355e-07
3.603743403e-07
3.644436978e-07
3.387122348e-07
3.338991314e-07
3.335032642e-07
3.426798547e-07
3.41553805e-07
3.322341214e-07
3.228710647e-07
3.164417429e-07
3.192152741e-07
3.191071246e-07
3.100141673e-07
3.002651067e-07
2.900558234e-07
2.961348142e-07
2.995196009e-07
2.856653333e-07
2.818691645e-07
2.746363733e-07
2.734737324e-07
2.778579802e-07
2.690018746e-07
2.549890669e-07
2.504700087e-07
2.529591873e-07
2.434807405e-07
2.393766591e-07
2.369374578e-07
2.332737111e-07
2.295639742e-07
2.160963081e-07
2.122166607e-07
2.114530551e-07
2.040097794e-07
1.978176595e-07
1.917170678e-07
1.836092603e-07
1.782762813e-07
1.735374529e-07
1.647519754e-07
1.561861979e-07
1.506914196e-07
1.438626828e-07
1.350686054e-07
1.27565021e-07
1.200550941e-07
1.046923397e-07
9.466606529e-08
9.372711313e-08
9.381525776e-08
9.490313915e-08
)


100
(
2.658039364e-06
2.262754782e-06
1.634979121e-06
1.358290578e-06
1.188785472e-06
1.068782954e-06
9.720650099e-07
9.092219755e-07
8.63504777e-07
8.161055688e-07
7.904420266e-07
7.466730219e-07
7.13153177e-07
6.955180696e-07
6.597090607e-07
6.29392403e-07
6.196103101e-07
6.027246938e-07
5.745121324e-07
5.60428969e-07
5.645349817e-07
5.578364528e-07
5.357700259e-07
5.159997995e-07
5.218966316e-07
5.235650579e-07
4.975986989e-07
4.897794704e-07
4.958419514e-07
4.942500563e-07
4.617025346e-07
4.433725806e-07
4.674179187e-07
4.731989717e-07
4.386188877e-07
4.132469939e-07
4.40475908e-07
4.54713681e-07
4.149643092e-07
3.816719218e-07
4.037149505e-07
4.23003387e-07
3.972575516e-07
3.747300062e-07
3.812996532e-07
3.894216705e-07
3.735973052e-07
3.58850995e-07
3.551927347e-07
3.588048108e-07
3.67282438e-07
3.647677956e-07
3.5731131e-07
3.451784225e-07
3.293758183e-07
3.400733137e-07
3.49461518e-07
3.350485957e-07
3.242523447e-07
3.16107789e-07
3.203766565e-07
3.198805334e-07
3.074292749e-07
3.050961598e-07
3.000551021e-07
2.933679226e-07
2.981878621e-07
3.004787189e-07
2.831111839e-07
2.658217523e-07
2.709625554e-07
2.722981461e-07
2.651143212e-07
2.617395611e-07
2.527459065e-07
2.541661928e-07
2.495401948e-07
2.320245481e-07
2.290813873e-07
2.312701026e-07
2.258401599e-07
2.179806487e-07
2.115162902e-07
2.037827164e-07
1.965679753e-07
1.918015462e-07
1.85037695e-07
1.791176203e-07
1.71382698e-07
1.610865645e-07
1.567106882e-07
1.505461652e-07
1.41741022e-07
1.335246392e-07
1.250204486e-07
1.09654605e-07
9.809367415e-08
9.736811958e-08
1.022770968e-07
1.068346952e-07
)


100
(
2.61923699e-06
2.239961478e-06
1.628275136e-06
1.350924916e-06
1.186256702e-06
1.067907164e-06
9.770693684e-07
9.078563545e-07
8.670688505e-07
8.187686013e-07
7.881662364e-07
7.660991242e-07
7.154614731e-07
6.919213216e-07
6.782581053e-07
6.423074545e-07
6.15065158e-07
6.082265382e-07
5.967241114e-07
5.73099398e-07
5.552176049e-07
5.605139899e-07
5.602649778e-07
5.388209485e-07
5.172429729e-07
5.171277534e-07
5.220323701e-07
5.009179411e-07
4.946628221e-07
5.038463347e-07
4.957486067e-07
4.546363344e-07
4.462366508e-07
4.805103435e-07
4.728989309e-07
4.355640092e-07
4.220635308e-07
4.550924024e-07
4.483203308e-07
4.088364984e-07
3.954903941e-07
4.121774359e-07
4.190058606e-07
3.968023772e-07
3.863920772e-07
3.824012627e-07
3.880665772e-07
3.882106919e-07
3.802654975e-07
3.727514771e-07
3.609521984e-07
3.569104513e-07
3.672650733e-07
3.702677134e-07
3.551463137e-07
3.415343124e-07
3.333093886e-07
3.383931794e-07
3.449502294e-07
3.338407801e-07
3.30090123e-07
3.258081831e-07
3.169103851e-07
3.183956376e-07
3.176323134e-07
3.063303879e-07
2.934015111e-07
2.913355207e-07
2.964384159e-07
2.879130269e-07
2.827867037e-07
2.747920436e-07
2.702242211e-07
2.802953956e-07
2.650178515e-07
2.448513338e-07
2.470723911e-07
2.514961116e-07
2.452539596e-07
2.362751508e-07
2.297387456e-07
2.224214939e-07
2.165758482e-07
2.123311561e-07
2.06354551e-07
1.980526494e-07
1.917283835e-07
1.836199855e-07
1.756078726e-07
1.719101349e-07
1.637091188e-07
1.54237851e-07
1.451198196e-07
1.373995852e-07
1.294240424e-07
1.132231703e-07
9.978873567e-08
1.010968956e-07
1.112574719e-07
1.168101178e-07
)


100
(
2.587365743e-06
2.216844309e-06
1.613373997e-06
1.336806225e-06
1.188046771e-06
1.064948139e-06
9.778227551e-07
9.101879636e-07
8.667124859e-07
8.364512142e-07
7.820771978e-07
7.623416147e-07
7.413545168e-07
6.891939448e-07
6.729228182e-07
6.628618167e-07
6.280181465e-07
6.022619078e-07
5.997653615e-07
5.940967486e-07
5.730962062e-07
5.494729892e-07
5.549809891e-07
5.622338484e-07
5.418236931e-07
5.216246651e-07
5.108910109e-07
5.168236891e-07
5.059405826e-07
5.018921924e-07
5.151275302e-07
4.863901628e-07
4.46610662e-07
4.587618601e-07
4.910922135e-07
4.683905753e-07
4.327164205e-07
4.351669391e-07
4.525306793e-07
4.393126933e-07
4.135626988e-07
4.038025956e-07
4.081043467e-07
4.221836559e-07
4.164704108e-07
4.05053796e-07
3.918102268e-07
3.776643166e-07
3.844248091e-07
3.901070213e-07
3.800282208e-07
3.709499367e-07
3.617093736e-07
3.573858028e-07
3.684617231e-07
3.659261355e-07
3.495376731e-07
3.472907494e-07
3.415233731e-07
3.365800198e-07
3.444854686e-07
3.463266057e-07
3.295358129e-07
3.12648278e-07
3.117964845e-07
3.178561222e-07
3.100285583e-07
3.02457755e-07
3.006414148e-07
2.91902589e-07
2.950297036e-07
2.938737956e-07
2.753022854e-07
2.631325418e-07
2.677031131e-07
2.707271113e-07
2.61780099e-07
2.539618947e-07
2.480119937e-07
2.401374471e-07
2.333596541e-07
2.319613839e-07
2.284924209e-07
2.177295066e-07
2.086864105e-07
2.02945988e-07
1.930411888e-07
1.880975341e-07
1.842050561e-07
1.750414818e-07
1.690043728e-07
1.621122232e-07
1.516600796e-07
1.465842894e-07
1.334198484e-07
1.108378143e-07
1.031860488e-07
1.063521707e-07
1.179243343e-07
1.265798582e-07
)


100
(
2.553005377e-06
2.192216394e-06
1.597893723e-06
1.33274858e-06
1.185397435e-06
1.062230126e-06
9.754365736e-07
9.165737202e-07
8.627202136e-07
8.348348262e-07
8.015187907e-07
7.547130994e-07
7.385309876e-07
7.146263617e-07
6.671923771e-07
6.559140658e-07
6.495277742e-07
6.180729668e-07
5.912663907e-07
5.917838729e-07
5.933581111e-07
5.733072761e-07
5.50427481e-07
5.477391045e-07
5.564118746e-07
5.454468051e-07
5.260534182e-07
5.063430563e-07
5.107676656e-07
5.09580557e-07
5.117414155e-07
5.14880755e-07
4.784959626e-07
4.511199115e-07
4.701485593e-07
4.850249372e-07
4.621640003e-07
4.423010345e-07
4.375278632e-07
4.412495457e-07
4.424995995e-07
4.35773146e-07
4.258919325e-07
4.075036128e-07
4.05464317e-07
4.180555459e-07
4.146254409e-07
3.989836151e-07
3.841933272e-07
3.749724999e-07
3.844053631e-07
3.912610407e-07
3.787162274e-07
3.700680117e-07
3.655326169e-07
3.579190634e-07
3.636775161e-07
3.695223268e-07
3.594960664e-07
3.477770076e-07
3.321476976e-07
3.339660124e-07
3.460880987e-07
3.343707401e-07
3.156313006e-07
3.186388555e-07
3.1766468e-07
3.171163316e-07
3.214562426e-07
2.99551661e-07
2.77055568e-07
2.879821306e-07
2.927268607e-07
2.835841286e-07
2.776565876e-07
2.705650149e-07
2.658881996e-07
2.568740678e-07
2.508040434e-07
2.507183129e-07
2.468474249e-07
2.37661554e-07
2.287613103e-07
2.212863026e-07
2.138026241e-07
2.094610715e-07
2.057521844e-07
1.952939819e-07
1.858814445e-07
1.808314928e-07
1.740016684e-07
1.648634998e-07
1.58475074e-07
1.50310421e-07
1.337739024e-07
1.165594138e-07
1.045836329e-07
1.069622542e-07
1.248144794e-07
1.341359178e-07
)


100
(
2.515919241e-06
2.166006362e-06
1.582476811e-06
1.330085463e-06
1.179795143e-06
1.062421415e-06
9.707463071e-07
9.147429988e-07
8.738408245e-07
8.30332552e-07
8.059365537e-07
7.662835956e-07
7.298685741e-07
7.176676754e-07
6.924795221e-07
6.473192644e-07
6.393087183e-07
6.386343696e-07
6.113837243e-07
5.821356438e-07
5.844946769e-07
5.926581209e-07
5.730729419e-07
5.519092495e-07
5.396031754e-07
5.491794421e-07
5.491987616e-07
5.296449143e-07
5.117034848e-07
5.007068879e-07
5.033320475e-07
5.276097746e-07
5.0679011e-07
4.688480082e-07
4.619545385e-07
4.680005431e-07
4.750570599e-07
4.684006407e-07
4.619958119e-07
4.449847209e-07
4.375291513e-07
4.430440345e-07
4.395397074e-07
4.29072357e-07
4.145988833e-07
3.979335141e-07
4.038034516e-07
4.198722364e-07
4.076816504e-07
3.90026295e-07
3.842164472e-07
3.747122349e-07
3.816407201e-07
3.928963502e-07
3.864760355e-07
3.802961387e-07
3.627199641e-07
3.455768512e-07
3.618205622e-07
3.698890276e-07
3.515951982e-07
3.377679184e-07
3.309926845e-07
3.347905945e-07
3.44016066e-07
3.42373199e-07
3.226069198e-07
2.990756792e-07
3.165540159e-07
3.181443644e-07
2.933493205e-07
2.946841431e-07
2.927236347e-07
2.864971796e-07
2.788891534e-07
2.715334766e-07
2.718776059e-07
2.734373483e-07
2.665013136e-07
2.551827268e-07
2.444545833e-07
2.362360645e-07
2.324663961e-07
2.31533474e-07
2.242473717e-07
2.148460857e-07
2.043144712e-07
1.985271793e-07
1.950013822e-07
1.845884221e-07
1.792638844e-07
1.720257472e-07
1.621614348e-07
1.508055201e-07
1.246434939e-07
1.15761875e-07
1.176588549e-07
1.151904114e-07
1.323175986e-07
1.436895719e-07
)


100
(
2.475318647e-06
2.138683416e-06
1.576160258e-06
1.323170576e-06
1.169472181e-06
1.059547582e-06
9.745958535e-07
9.092426913e-07
8.739316356e-07
8.309574266e-07
8.00802179e-07
7.799108598e-07
7.357432617e-07
7.06898802e-07
6.97774061e-07
6.730474483e-07
6.306100764e-07
6.239179788e-07
6.289680264e-07
6.066438939e-07
5.79823194e-07
5.767913558e-07
5.856411022e-07
5.731786552e-07
5.530953597e-07
5.329543713e-07
5.39724831e-07
5.49279594e-07
5.332910286e-07
5.165100976e-07
4.983666344e-07
4.981091557e-07
5.154195865e-07
4.988641669e-07
4.762873225e-07
4.772153237e-07
4.677914998e-07
4.738411825e-07
4.795175544e-07
4.643451665e-07
4.477641088e-07
4.279850211e-07
4.308652413e-07
4.418623843e-07
4.341427195e-07
4.193985482e-07
4.074974278e-07
3.963615394e-07
3.991988902e-07
4.051119233e-07
4.045691103e-07
4.043928878e-07
3.943006862e-07
3.686618208e-07
3.75235905e-07
3.973055715e-07
3.837810427e-07
3.652130389e-07
3.533292196e-07
3.43775743e-07
3.542926636e-07
3.689768985e-07
3.632396674e-07
3.441771507e-07
3.165471745e-07
3.339593231e-07
3.470481383e-07
3.198654096e-07
3.063769944e-07
3.084342275e-07
3.121140971e-07
3.07159019e-07
2.990160099e-07
2.924995822e-07
2.889758986e-07
2.833530231e-07
2.726912271e-07
2.670848223e-07
2.627339433e-07
2.526973841e-07
2.530366435e-07
2.542128853e-07
2.44684653e-07
2.283873872e-07
2.165170348e-07
2.203598357e-07
2.18611674e-07
2.038337681e-07
1.929494121e-07
1.876222789e-07
1.823534278e-07
1.741659893e-07
1.62528718e-07
1.528611713e-07
1.308228036e-07
1.067984352e-07
1.22854196e-07
1.345808036e-07
1.402870826e-07
1.53759465e-07
)


100
(
2.436651049e-06
2.114228337e-06
1.563100974e-06
1.308622152e-06
1.16674264e-06
1.053494329e-06
9.72076024e-07
9.068348314e-07
8.68723293e-07
8.433862291e-07
7.93127818e-07
7.737366289e-07
7.553793643e-07
7.077127417e-07
6.846569338e-07
6.795084417e-07
6.568021778e-07
6.173220405e-07
6.098170953e-07
6.201029577e-07
6.036846438e-07
5.781095275e-07
5.675446732e-07
5.76940248e-07
5.732755363e-07
5.53306914e-07
5.351673567e-07
5.273760439e-07
5.377101113e-07
5.369658096e-07
5.19549015e-07
5.04326674e-07
4.882740625e-07
4.974839623e-07
5.080446869e-07
4.955839981e-07
4.838519888e-07
4.637584443e-07
4.545914895e-07
4.689290935e-07
4.714134603e-07
4.515678955e-07
4.330816829e-07
4.216545873e-07
4.275370811e-07
4.347898984e-07
4.225685434e-07
4.108858611e-07
4.09053713e-07
3.988967163e-07
3.981657705e-07
4.115242198e-07
4.109932038e-07
3.939615573e-07
3.733059609e-07
3.604846758e-07
3.814218228e-07
3.867194774e-07
3.635556545e-07
3.721301274e-07
3.63378268e-07
3.453514663e-07
3.620359958e-07
3.683166699e-07
3.396364916e-07
3.175306618e-07
3.183652613e-07
3.305890156e-07
3.332249343e-07
3.230131278e-07
3.136905542e-07
3.087070754e-07
3.023570596e-07
2.939149286e-07
2.892269924e-07
2.813760757e-07
2.78441042e-07
2.75525069e-07
2.715076513e-07
2.7086935e-07
2.588220574e-07
2.438856855e-07
2.318403346e-07
2.378387157e-07
2.452808283e-07
2.232107022e-07
2.070202267e-07
2.055461082e-07
2.025914272e-07
1.983317993e-07
1.888264642e-07
1.774222937e-07
1.764269569e-07
1.5558137e-07
1.190622266e-07
1.088819295e-07
1.240130105e-07
1.338011057e-07
1.482128318e-07
1.652766075e-07
)


100
(
2.400711136e-06
2.087400791e-06
1.546523098e-06
1.297690177e-06
1.160758848e-06
1.048255279e-06
9.669282461e-07
9.117966498e-07
8.600901714e-07
8.367916958e-07
8.100833178e-07
7.639725003e-07
7.468572748e-07
7.274060706e-07
6.826767374e-07
6.634811988e-07
6.628642433e-07
6.427257089e-07
6.076421747e-07
5.980783745e-07
6.110209972e-07
6.01318829e-07
5.764831444e-07
5.563906341e-07
5.662187299e-07
5.730145724e-07
5.530094028e-07
5.366167571e-07
5.199933755e-07
5.231068208e-07
5.320737516e-07
5.249870071e-07
5.141901434e-07
4.978258694e-07
4.830865111e-07
4.932263208e-07
5.002764213e-07
4.860468092e-07
4.670075934e-07
4.468037573e-07
4.507642221e-07
4.676397791e-07
4.566846973e-07
4.357820945e-07
4.264171862e-07
4.14915346e-07
4.201862561e-07
4.320036927e-07
4.261093066e-07
4.172038069e-07
4.012785326e-07
3.80680156e-07
3.990421e-07
4.195452914e-07
3.942815108e-07
3.738098941e-07
3.66823879e-07
3.636038394e-07
3.840520642e-07
3.931818415e-07
3.826428722e-07
3.547467467e-07
3.240832872e-07
3.54420754e-07
3.624840957e-07
3.353012573e-07
3.357630733e-07
3.300129034e-07
3.248735651e-07
3.207015017e-07
3.104869831e-07
3.029436261e-07
3.086688896e-07
3.120451917e-07
3.030988058e-07
2.940925184e-07
2.824508008e-07
2.72579392e-07
2.673296749e-07
2.587447671e-07
2.614500061e-07
2.615010899e-07
2.551547164e-07
2.421011996e-07
2.194732337e-07
2.244836691e-07
2.293384498e-07
2.165794985e-07
2.027784511e-07
1.957279757e-07
1.898250901e-07
1.919223444e-07
1.754961568e-07
1.366727822e-07
1.280313932e-07
1.262635723e-07
1.25274705e-07
1.345661747e-07
1.568424438e-07
1.73737994e-07
)


100
(
2.363617996e-06
2.059468437e-06
1.528772913e-06
1.291887929e-06
1.152158046e-06
1.043592489e-06
9.591670499e-07
9.066212055e-07
8.675764962e-07
8.279900501e-07
8.081781264e-07
7.75306192e-07
7.352072405e-07
7.214457386e-07
7.02976275e-07
6.612810679e-07
6.434210737e-07
6.472425983e-07
6.319079283e-07
6.014008655e-07
5.866311634e-07
6.003870337e-07
5.992665072e-07
5.744179673e-07
5.551505185e-07
5.529565229e-07
5.60605015e-07
5.528328161e-07
5.36359769e-07
5.231410705e-07
5.108625382e-07
5.223194998e-07
5.311339102e-07
5.164373308e-07
5.002051017e-07
4.76227993e-07
4.762304258e-07
4.940976146e-07
4.896748692e-07
4.692371193e-07
4.521453219e-07
4.387655027e-07
4.452174512e-07
4.511927905e-07
4.420630433e-07
4.392589975e-07
4.327852517e-07
4.07493522e-07
4.10709232e-07
4.306687081e-07
4.21114247e-07
4.036342185e-07
3.884684988e-07
3.828127852e-07
3.933301569e-07
3.986015806e-07
3.934671551e-07
3.925769e-07
3.662423089e-07
3.603762036e-07
3.886001309e-07
3.777738206e-07
3.479247583e-07
3.341238531e-07
3.358499426e-07
3.474025852e-07
3.484707293e-07
3.403993737e-07
3.306851543e-07
3.284308086e-07
3.250225714e-07
3.153698059e-07
3.053740869e-07
2.990029816e-07
2.93438467e-07
2.823141376e-07
2.854786581e-07
2.941438835e-07
2.884869658e-07
2.740841019e-07
2.545351658e-07
2.456730741e-07
2.470786298e-07
2.524556425e-07
2.461802367e-07
2.27517136e-07
2.20076113e-07
2.177232323e-07
2.123207737e-07
1.982466727e-07
1.885214091e-07
1.813977513e-07
1.788843278e-07
1.608677111e-07
1.302292831e-07
1.258760685e-07
1.273049038e-07
1.346306688e-07
1.655802512e-07
1.863853913e-07
)


100
(
2.324574862e-06
2.030599697e-06
1.515559413e-06
1.282834554e-06
1.140235775e-06
1.037033941e-06
9.599132453e-07
8.984781283e-07
8.656904584e-07
8.27728723e-07
7.984022417e-07
7.799033945e-07
7.4245181e-07
7.081830294e-07
6.986457729e-07
6.819244648e-07
6.435105108e-07
6.246470277e-07
6.327915796e-07
6.246252478e-07
5.973383813e-07
5.740087006e-07
5.875946484e-07
5.965948494e-07
5.722466092e-07
5.547118462e-07
5.379395677e-07
5.451573075e-07
5.545636374e-07
5.418072969e-07
5.289036869e-07
5.093521615e-07
5.050071603e-07
5.202456775e-07
5.203196264e-07
5.013064243e-07
4.794834993e-07
4.629295841e-07
4.738727555e-07
4.874311582e-07
4.710694543e-07
4.53179751e-07
4.427888869e-07
4.34917114e-07
4.39854115e-07
4.496432891e-07
4.456289834e-07
4.317891803e-07
4.105946311e-07
3.930661849e-07
4.140189848e-07
4.263182795e-07
4.038539019e-07
3.909929062e-07
3.962518498e-07
3.892356048e-07
3.911296647e-07
4.033401785e-07
3.869991332e-07
3.653427222e-07
3.497930732e-07
3.703405111e-07
3.724761796e-07
3.560510471e-07
3.56340244e-07
3.452295232e-07
3.41136984e-07
3.364826795e-07
3.278070631e-07
3.200794719e-07
3.149539747e-07
3.201246705e-07
3.20498345e-07
3.110649174e-07
3.055010973e-07
2.992267502e-07
2.924825648e-07
2.788700829e-07
2.6329428e-07
2.662959328e-07
2.788880849e-07
2.79822285e-07
2.550946643e-07
2.27657904e-07
2.295185921e-07
2.414240947e-07
2.349896265e-07
2.203744679e-07
2.141531052e-07
2.126605343e-07
2.141356194e-07
1.913236161e-07
1.68368144e-07
1.626098978e-07
1.217789306e-07
1.045549762e-07
1.297899967e-07
1.43556597e-07
1.737266634e-07
1.991717351e-07
)


100
(
2.283776336e-06
2.00213663e-06
1.503161586e-06
1.270893903e-06
1.134422602e-06
1.027352561e-06
9.533224929e-07
8.932516862e-07
8.583659024e-07
8.358685174e-07
7.893941449e-07
7.688001684e-07
7.546546512e-07
7.126824262e-07
6.827778414e-07
6.7796121e-07
6.632775013e-07
6.293225604e-07
6.080934535e-07
6.195200442e-07
6.197236645e-07
5.933729631e-07
5.721514321e-07
5.721228398e-07
5.809623588e-07
5.705015317e-07
5.526017641e-07
5.411195151e-07
5.349471647e-07
5.414891209e-07
5.432027245e-07
5.2960532e-07
5.110901184e-07
4.88742237e-07
5.03220884e-07
5.22438582e-07
5.025386647e-07
4.801888228e-07
4.671862118e-07
4.527356988e-07
4.603022527e-07
4.735811993e-07
4.674406604e-07
4.600087156e-07
4.405161349e-07
4.092417228e-07
4.28316529e-07
4.557990437e-07
4.336202139e-07
4.11323666e-07
3.991195675e-07
3.910046977e-07
4.060794619e-07
4.226550457e-07
4.166101029e-07
4.001688347e-07
3.701495058e-07
3.780631186e-07
4.047200084e-07
3.85431964e-07
3.622363862e-07
3.582387865e-07
3.598347006e-07
3.602352447e-07
3.584665347e-07
3.541781938e-07
3.433316726e-07
3.415935394e-07
3.416257727e-07
3.331714396e-07
3.230329917e-07
3.155831344e-07
3.095806954e-07
3.011333153e-07
2.9319763e-07
3.022898943e-07
3.093450007e-07
2.982572538e-07
2.822387755e-07
2.682879187e-07
2.590391768e-07
2.590991098e-07
2.650782182e-07
2.573789867e-07
2.428042362e-07
2.316600412e-07
2.299957765e-07
2.243605567e-07
2.124530347e-07
2.115383145e-07
2.087840875e-07
1.993428114e-07
1.787549944e-07
1.374917848e-07
1.25770808e-07
1.284226359e-07
1.32974941e-07
1.494940603e-07
1.810784581e-07
2.090834547e-07
)


100
(
2.246466986e-06
1.973940521e-06
1.485856241e-06
1.255648447e-06
1.126713511e-06
1.021104329e-06
9.449930633e-07
8.94992976e-07
8.483288112e-07
8.275301034e-07
8.028581565e-07
7.553154182e-07
7.405143253e-07
7.291617244e-07
6.868536722e-07
6.587086477e-07
6.582331008e-07
6.479152491e-07
6.183149824e-07
5.93224969e-07
6.060749362e-07
6.144090262e-07
5.893066559e-07
5.703156282e-07
5.54291896e-07
5.632754597e-07