/*--------------------------------*- C++ -*----------------------------------*\
| =========                 |                                                 |
| \\      /  F ield         | OpenFOAM: The Open Source CFD Toolbox           |
|  \\    /   O peration     | Version:  2.3.1                                 |
|   \\  /    A nd           | Web:      www.OpenFOAM.org                      |
|    \\/     M anipulation  |                                                 |
\*---------------------------------------------------------------------------*/
FoamFile
{
    version     2.0;
    format      ascii;
    class       dictionary;
    location    "constant";
    object      DPSI13;
}
// * * * * * * * * * * * * * * * * * * * * * * * * * * * * * * * * * * * * * //

DPSI13_table
100
(

100
(
2.568003121e-10
4.041909373e-10
4.316623749e-10
4.189039492e-10
3.869202736e-10
3.159939199e-10
2.904840884e-10
2.270381071e-10
1.920674265e-10
1.244675472e-10
1.036214017e-10
2.376712552e-11
-4.011995717e-13
-1.879234357e-11
-7.423102041e-11
-9.278132217e-11
-1.014727368e-10
-1.55162717e-10
-1.753375603e-10
-1.805672054e-10
-2.146590263e-10
-2.404606064e-10
-2.50529037e-10
-2.633795909e-10
-2.97039473e-10
-3.116063645e-10
-3.180515514e-10
-3.326224749e-10
-3.61495384e-10
-3.712338947e-10
-3.77034989e-10
-3.883917552e-10
-4.047927382e-10
-4.112455741e-10
-4.155841257e-10
-4.270433988e-10
-4.56456286e-10
-4.76318198e-10
-4.848995776e-10
-4.942846503e-10
-5.09847829e-10
-5.273148107e-10
-5.331200413e-10
-5.363431206e-10
-5.387873111e-10
-5.478721442e-10
-5.499128071e-10
-5.535657989e-10
-5.61829571e-10
-5.826632252e-10
-6.080659585e-10
-6.310698689e-10
-6.441265654e-10
-6.578716736e-10
-6.721250805e-10
-6.708309661e-10
-6.685576578e-10
-6.98902961e-10
-8.264768354e-10
-1.195444685e-09
-1.753200516e-09
-1.682948653e-09
-1.286184744e-09
-1.388522621e-09
-1.800824437e-09
-1.720669439e-09
-1.4285982e-09
-1.680234168e-09
-1.909773103e-09
-1.712878049e-09
-1.592907446e-09
-1.859642961e-09
-1.862840344e-09
-1.688095831e-09
-2.242796691e-09
-2.609452363e-09
-1.937898468e-09
-2.220460873e-09
-2.495120275e-09
-1.850588424e-09
-2.300291165e-09
-2.118169264e-09
-1.969987484e-09
-2.46218835e-09
-1.908446998e-09
-2.195350688e-09
-2.359003783e-09
-2.033784535e-09
-2.498025924e-09
-2.193179111e-09
-2.448313308e-09
-2.421068279e-09
-2.803290373e-09
-2.844935331e-09
-3.216227566e-09
-3.151755807e-09
-3.276044877e-09
-3.124387788e-09
-1.785665547e-09
-8.188660647e-10
)


100
(
2.566220263e-10
4.060996763e-10
4.417593472e-10
4.370536645e-10
4.002780015e-10
3.458082035e-10
3.060844686e-10
2.595044907e-10
2.159730536e-10
1.617755819e-10
1.313983108e-10
6.323563683e-11
3.027938573e-11
5.957988068e-12
-4.194281395e-11
-6.792739998e-11
-8.374593299e-11
-1.30623172e-10
-1.600343028e-10
-1.753712596e-10
-2.072317764e-10
-2.376465369e-10
-2.58231909e-10
-2.757203328e-10
-3.059534623e-10
-3.306533331e-10
-3.487343937e-10
-3.679627717e-10
-3.928401269e-10
-4.132434132e-10
-4.307265845e-10
-4.467582308e-10
-4.654080501e-10
-4.837655358e-10
-5.02668418e-10
-5.189968702e-10
-5.419265148e-10
-5.617756452e-10
-5.881251096e-10
-6.145362722e-10
-6.393873144e-10
-6.680493223e-10
-7.027501064e-10
-7.483882223e-10
-7.700165085e-10
-7.818839924e-10
-7.932817727e-10
-8.186203587e-10
-8.386520415e-10
-8.487185313e-10
-8.74531639e-10
-9.388743452e-10
-1.053470369e-09
-1.132682867e-09
-1.213341934e-09
-1.295987307e-09
-1.422847048e-09
-1.481859095e-09
-1.561784489e-09
-1.714698609e-09
-2.093696028e-09
-2.514948955e-09
-2.62254288e-09
-2.479481649e-09
-2.422642199e-09
-2.559677154e-09
-2.595935662e-09
-2.550041088e-09
-2.561892774e-09
-2.593934014e-09
-2.551830851e-09
-2.502883567e-09
-2.517321005e-09
-2.495128617e-09
-2.588965089e-09
-3.108929111e-09
-3.76993042e-09
-3.665485769e-09
-3.617766015e-09
-3.724011489e-09
-3.706126467e-09
-4.21945402e-09
-3.954696486e-09
-4.718828215e-09
-4.768723278e-09
-4.647522339e-09
-5.097858082e-09
-5.144871102e-09
-5.336884383e-09
-5.916261082e-09
-6.416981552e-09
-6.846740155e-09
-7.393819613e-09
-8.653267685e-09
-8.684880728e-09
-9.124029299e-09
-9.550403217e-09
-7.427168231e-09
-4.274511019e-09
-2.24350991e-09
)


100
(
2.564487897e-10
4.040172016e-10
4.56815987e-10
4.50203064e-10
4.267344211e-10
3.969946265e-10
3.406600057e-10
3.142162329e-10
2.618100861e-10
2.167470572e-10
1.795234697e-10
1.228833039e-10
8.135587115e-11
4.564285704e-11
4.198309404e-12
-3.227324751e-11
-6.149146603e-11
-9.978254838e-11
-1.406770308e-10
-1.775766364e-10
-2.112322375e-10
-2.475986256e-10
-2.845913252e-10
-3.21743702e-10
-3.515610036e-10
-3.859501449e-10
-4.252412611e-10
-4.723327088e-10
-5.074449644e-10
-5.416908367e-10
-5.730970895e-10
-6.201328819e-10
-6.602413397e-10
-7.063275845e-10
-7.586501728e-10
-8.251512695e-10
-8.906228585e-10
-9.374558546e-10
-9.861584239e-10
-1.047066287e-09
-1.144354314e-09
-1.255826473e-09
-1.364565258e-09
-1.506063051e-09
-1.668653504e-09
-1.888594183e-09
-2.025212071e-09
-2.170557783e-09
-2.313005271e-09
-2.548054095e-09
-2.662160152e-09
-2.801395412e-09
-2.939080569e-09
-3.136939641e-09
-3.229298324e-09
-3.309415845e-09
-3.411685579e-09
-3.58273829e-09
-3.576086139e-09
-3.372557215e-09
-3.144257275e-09
-3.419761646e-09
-3.928778253e-09
-3.974363294e-09
-3.672990952e-09
-3.654876217e-09
-3.846480538e-09
-3.72073373e-09
-3.665459166e-09
-4.085337881e-09
-4.528182007e-09
-4.816589667e-09
-5.387817659e-09
-6.181446215e-09
-5.912022328e-09
-6.174439304e-09
-8.114399461e-09
-7.69975442e-09
-7.222256861e-09
-9.308145006e-09
-9.134394655e-09
-9.227868892e-09
-1.029647431e-08
-9.974630963e-09
-1.066622343e-08
-1.134251428e-08
-1.226320189e-08
-1.377450957e-08
-1.440323621e-08
-1.631170782e-08
-1.787684778e-08
-1.932184139e-08
-2.107269618e-08
-2.212232725e-08
-2.39503662e-08
-2.603012351e-08
-2.6501943e-08
-1.772211776e-08
-1.100440026e-08
-6.569799553e-09
)


100
(
2.563361279e-10
3.865490588e-10
4.524388208e-10
4.551930016e-10
4.575498988e-10
4.23508078e-10
3.830299073e-10
3.426698417e-10
3.055180929e-10
2.499666077e-10
2.153942327e-10
1.586336941e-10
1.081017843e-10
6.628415196e-11
1.96515313e-11
-2.51992293e-11
-6.853742924e-11
-1.141330885e-10
-1.616882233e-10
-2.131300024e-10
-2.730438437e-10
-3.266673804e-10
-3.804643139e-10
-4.41857042e-10
-5.173900915e-10
-5.749024642e-10
-6.349015001e-10
-7.180862024e-10
-8.363677698e-10
-9.409648386e-10
-1.022032392e-09
-1.106119523e-09
-1.216475278e-09
-1.379043922e-09
-1.493407957e-09
-1.642754195e-09
-1.827623483e-09
-2.111439042e-09
-2.291160193e-09
-2.489162152e-09
-2.707640615e-09
-2.948813043e-09
-3.20457966e-09
-3.33914921e-09
-3.523325406e-09
-3.780942865e-09
-4.163365323e-09
-4.288978049e-09
-4.440469465e-09
-4.675377918e-09
-4.970726167e-09
-5.057351542e-09
-5.072380519e-09
-5.185684707e-09
-5.303435385e-09
-5.303953589e-09
-5.23325218e-09
-5.407588294e-09
-5.541194695e-09
-5.493907197e-09
-5.09276746e-09
-4.712349634e-09
-4.83702689e-09
-5.432171743e-09
-5.977424268e-09
-6.352697817e-09
-6.830439983e-09
-7.365923923e-09
-7.836081908e-09
-8.350091696e-09
-8.890858833e-09
-9.436449177e-09
-1.029265045e-08
-1.216117573e-08
-1.412121447e-08
-1.346924687e-08
-1.272416672e-08
-1.450327803e-08
-1.528773288e-08
-1.560433289e-08
-1.639729644e-08
-1.684598012e-08
-1.941356028e-08
-2.080427196e-08
-2.267967413e-08
-2.457553412e-08
-2.572391978e-08
-2.859222529e-08
-3.190453712e-08
-3.670218194e-08
-3.79326418e-08
-4.052539205e-08
-4.459970653e-08
-4.73204162e-08
-5.247427417e-08
-5.70997279e-08
-5.522997658e-08
-3.455466937e-08
-2.265029935e-08
-1.424958315e-08
)


100
(
2.563120496e-10
3.71174517e-10
4.430383711e-10
4.725770504e-10
4.830170918e-10
4.402498831e-10
4.20543271e-10
3.643795087e-10
3.364192453e-10
2.815629816e-10
2.330702142e-10
1.839888145e-10
1.219938129e-10
6.921086387e-11
1.436639611e-11
-4.220574489e-11
-1.013727765e-10
-1.72931459e-10
-2.473057949e-10
-3.196163343e-10
-4.079050603e-10
-5.210718589e-10
-6.342716803e-10
-7.405865388e-10
-8.73672e-10
-1.037914483e-09
-1.198378126e-09
-1.333215134e-09
-1.515294701e-09
-1.756663829e-09
-2.048055955e-09
-2.240463165e-09
-2.448783436e-09
-2.682055207e-09
-3.02923593e-09
-3.18712064e-09
-3.374991233e-09
-3.612803615e-09
-4.114818469e-09
-4.33461113e-09
-4.530420687e-09
-4.715006869e-09
-5.04491726e-09
-5.226028196e-09
-5.246871184e-09
-5.222165661e-09
-5.52983934e-09
-5.821386295e-09
-5.802948184e-09
-5.73082922e-09
-5.935975389e-09
-6.122325333e-09
-6.19134383e-09
-6.198274806e-09
-6.371415411e-09
-6.567824539e-09
-6.719080649e-09
-6.99605554e-09
-7.60472936e-09
-8.415551456e-09
-9.169045542e-09
-9.666038026e-09
-1.000759703e-08
-1.056562799e-08
-1.128475881e-08
-1.203791608e-08
-1.271907828e-08
-1.335736179e-08
-1.383221278e-08
-1.411048863e-08
-1.461661909e-08
-1.54744748e-08
-1.650825925e-08
-1.75802702e-08
-1.952985913e-08
-2.145195457e-08
-2.061119584e-08
-2.215195253e-08
-2.445733659e-08
-2.577707913e-08
-2.918504153e-08
-3.259212554e-08
-3.46837577e-08
-3.785083857e-08
-4.182374411e-08
-4.617554026e-08
-4.933151378e-08
-5.301777073e-08
-6.1219851e-08
-6.490304671e-08
-6.837742615e-08
-7.63816093e-08
-8.153325043e-08
-9.033456901e-08
-9.80113929e-08
-1.048060592e-07
-9.075643446e-08
-6.094368334e-08
-4.145614267e-08
-2.596890807e-08
)


100
(
2.376484747e-10
3.676438073e-10
4.466921761e-10
4.875188439e-10
4.874764629e-10
4.686733173e-10
4.407426905e-10
3.988166308e-10
3.520134028e-10
3.104741035e-10
2.466539158e-10
1.919228011e-10
1.265641498e-10
5.560721964e-11
-1.743330576e-11
-9.837271766e-11
-1.80460856e-10
-2.83312242e-10
-4.201003927e-10
-5.63879551e-10
-6.972521579e-10
-8.649639932e-10
-1.082780164e-09
-1.327554285e-09
-1.526184456e-09
-1.78615225e-09
-2.1025465e-09
-2.36765757e-09
-2.551670519e-09
-2.790764265e-09
-3.148155511e-09
-3.58185825e-09
-3.806390744e-09
-3.985864604e-09
-4.308823773e-09
-4.690307399e-09
-4.769029774e-09
-4.760556675e-09
-5.035702264e-09
-5.43507782e-09
-5.512294354e-09
-5.552086374e-09
-5.658486901e-09
-5.964970947e-09
-6.10842935e-09
-6.03192192e-09
-6.052826921e-09
-6.411101465e-09
-6.800173632e-09
-6.833499202e-09
-6.954874733e-09
-7.30876397e-09
-7.828315307e-09
-8.43918725e-09
-9.061718809e-09
-9.905985288e-09
-1.080396385e-08
-1.157994099e-08
-1.232565591e-08
-1.316214901e-08
-1.419551758e-08
-1.513712777e-08
-1.587389957e-08
-1.656167387e-08
-1.703264028e-08
-1.745833464e-08
-1.810459464e-08
-1.935200782e-08
-2.119488062e-08
-2.281078375e-08
-2.448759058e-08
-2.615997542e-08
-2.747811093e-08
-2.772972169e-08
-2.769656233e-08
-3.050646004e-08
-3.449732602e-08
-3.739471323e-08
-4.153411688e-08
-4.584859561e-08
-4.978545361e-08
-5.377579914e-08
-5.833949286e-08
-6.368284416e-08
-6.917800929e-08
-7.487206376e-08
-8.196347252e-08
-8.801733792e-08
-9.528762443e-08
-1.000222535e-07
-1.073229998e-07
-1.145279553e-07
-1.215430888e-07
-1.302971289e-07
-1.388262264e-07
-1.457867944e-07
-1.209085358e-07
-9.59018906e-08
-7.11687894e-08
-4.235345949e-08
)


100
(
2.065079416e-10
3.607793299e-10
4.483834721e-10
4.902976958e-10
4.889867098e-10
4.947735464e-10
4.539080645e-10
4.291314659e-10
3.705632477e-10
3.23761602e-10
2.633972638e-10
1.893918958e-10
1.079601681e-10
1.639095336e-11
-8.272072052e-11
-2.024111027e-10
-3.371815559e-10
-4.757973726e-10
-6.673278295e-10
-9.111222507e-10
-1.177387874e-09
-1.396761142e-09
-1.663735967e-09
-2.003170748e-09
-2.402083964e-09
-2.651146977e-09
-2.951078879e-09
-3.327321293e-09
-3.581364846e-09
-3.733754261e-09
-3.86014383e-09
-4.334947366e-09
-4.665949317e-09
-4.789889397e-09
-4.789748043e-09
-5.221862755e-09
-5.543459077e-09
-5.566621655e-09
-5.366636194e-09
-5.739208838e-09
-6.108830924e-09
-6.177261348e-09
-6.102607886e-09
-6.308044524e-09
-6.698922965e-09
-6.979390806e-09
-7.071495827e-09
-7.352396703e-09
-8.15067164e-09
-9.077369278e-09
-9.945032547e-09
-1.073188341e-08
-1.173548157e-08
-1.277868523e-08
-1.391920443e-08
-1.51195108e-08
-1.602655192e-08
-1.673965214e-08
-1.725341748e-08
-1.763071771e-08
-1.817695966e-08
-1.875707159e-08
-1.969710582e-08
-2.099584195e-08
-2.296432683e-08
-2.541541999e-08
-2.782260773e-08
-3.007016155e-08
-3.251578395e-08
-3.525071514e-08
-3.792549958e-08
-3.99589114e-08
-4.186611386e-08
-4.44974969e-08
-4.794480714e-08
-5.124691095e-08
-5.612373581e-08
-6.112444058e-08
-6.587991645e-08
-6.934588191e-08
-7.415879242e-08
-7.971584548e-08
-8.555189089e-08
-9.149166111e-08
-9.7001394e-08
-1.023942712e-07
-1.08795783e-07
-1.138297649e-07
-1.151605838e-07
-1.212674756e-07
-1.277655835e-07
-1.308530597e-07
-1.370272475e-07
-1.41976549e-07
-1.485532924e-07
-1.52614727e-07
-1.288743429e-07
-1.208988768e-07
-1.041859824e-07
-6.263318718e-08
)


100
(
1.940447787e-10
3.482488322e-10
4.411202257e-10
4.820099591e-10
5.046492427e-10
5.060050878e-10
4.786269223e-10
4.440006198e-10
3.968631917e-10
3.308703384e-10
2.642863879e-10
1.788676674e-10
7.470941849e-11
-6.231147217e-11
-2.003200065e-10
-3.566885425e-10
-5.556191383e-10
-7.63993562e-10
-1.004678229e-09
-1.288547491e-09
-1.65028109e-09
-2.048381084e-09
-2.307896649e-09
-2.588767307e-09
-2.964469321e-09
-3.373427544e-09
-3.603059399e-09
-3.861230017e-09
-4.217532816e-09
-4.397963077e-09
-4.442327259e-09
-4.503938298e-09
-5.039492831e-09
-5.291101372e-09
-5.272407506e-09
-5.28508722e-09
-5.756342818e-09
-6.090251258e-09
-5.960717393e-09
-5.955946491e-09
-6.401550492e-09
-6.937619079e-09
-7.109316294e-09
-7.371832713e-09
-7.881719362e-09
-8.770277624e-09
-9.633533004e-09
-1.049988026e-08
-1.14482209e-08
-1.286695623e-08
-1.415263251e-08
-1.551127849e-08
-1.654256563e-08
-1.726112227e-08
-1.80073966e-08
-1.8814465e-08
-1.964138941e-08
-2.06968793e-08
-2.157334333e-08
-2.252915385e-08
-2.382213499e-08
-2.577669391e-08
-2.845891741e-08
-3.119699155e-08
-3.417416846e-08
-3.738348362e-08
-4.054186414e-08
-4.33020684e-08
-4.550184916e-08
-4.801523541e-08
-5.152885234e-08
-5.608248032e-08
-6.146371635e-08
-6.615783789e-08
-7.067196018e-08
-7.552120939e-08
-7.941220652e-08
-8.251559065e-08
-8.657296132e-08
-9.104878333e-08
-9.556668162e-08
-9.965658093e-08
-1.019736082e-07
-1.048617431e-07
-1.08216051e-07
-1.11721558e-07
-1.137441653e-07
-1.175800842e-07
-1.179574918e-07
-1.195678462e-07
-1.245272927e-07
-1.292493373e-07
-1.346789928e-07
-1.40418661e-07
-1.446178951e-07
-1.452495585e-07
-1.22409754e-07
-1.227859014e-07
-1.1865892e-07
-8.318812195e-08
)


100
(
1.939368968e-10
3.27878383e-10
4.236760533e-10
4.790139017e-10
5.176425907e-10
5.084797598e-10
5.03552886e-10
4.562643853e-10
4.139429124e-10
3.425668987e-10
2.553636945e-10
1.431294394e-10
2.135080556e-11
-1.441866946e-10
-3.7358325e-10
-5.768355702e-10
-8.160703641e-10
-1.122189156e-09
-1.462422989e-09
-1.728285892e-09
-2.029863536e-09
-2.432234368e-09
-2.888627315e-09
-3.103111663e-09
-3.278631253e-09
-3.62334547e-09
-3.976881926e-09
-4.225850256e-09
-4.454902862e-09
-4.778146326e-09
-4.906294395e-09
-4.734103935e-09
-5.000084997e-09
-5.559049394e-09
-5.818412799e-09
-5.659522953e-09
-5.881467518e-09
-6.46777387e-09
-6.915167716e-09
-6.963335225e-09
-7.297641226e-09
-8.131693156e-09
-9.232510617e-09
-1.018204448e-08
-1.108366411e-08
-1.223193308e-08
-1.350378529e-08
-1.481379886e-08
-1.612369997e-08
-1.69566045e-08
-1.786593797e-08
-1.888806646e-08
-1.988282121e-08
-2.094282491e-08
-2.196719123e-08
-2.274115564e-08
-2.433515112e-08
-2.639637839e-08
-2.910360225e-08
-3.245989831e-08
-3.564926942e-08
-3.864853644e-08
-4.172256011e-08
-4.502566154e-08
-4.805635188e-08
-5.055480046e-08
-5.306777256e-08
-5.651916864e-08
-6.059093026e-08
-6.533310324e-08
-7.019940303e-08
-7.472128153e-08
-7.932772431e-08
-8.324753205e-08
-8.600549321e-08
-8.817037616e-08
-9.153007978e-08
-9.463304466e-08
-9.708336097e-08
-9.935582661e-08
-1.003132481e-07
-1.019463006e-07
-1.038077188e-07
-1.059670338e-07
-1.075732733e-07
-1.094050028e-07
-1.127607272e-07
-1.166683035e-07
-1.197171327e-07
-1.238146572e-07
-1.287577445e-07
-1.352843933e-07
-1.408887774e-07
-1.484707797e-07
-1.527711182e-07
-1.475677675e-07
-1.225804402e-07
-1.195715705e-07
-1.158256177e-07
-9.896622206e-08
)


100
(
1.938721078e-10
3.112902249e-10
4.099360956e-10
4.803683641e-10
5.164116573e-10
5.203248336e-10
5.152332245e-10
4.799203328e-10
4.215143551e-10
3.447295247e-10
2.433035233e-10
1.049155952e-10
-6.905162896e-11
-2.418896714e-10
-4.974766304e-10
-8.42573264e-10
-1.110304579e-09
-1.424914127e-09
-1.777636386e-09
-2.180783305e-09
-2.408000014e-09
-2.628851731e-09
-3.00787081e-09
-3.418972391e-09
-3.648146789e-09
-3.748248822e-09
-4.009926211e-09
-4.336443341e-09
-4.646297962e-09
-4.915273893e-09
-5.238564765e-09
-5.284692798e-09
-5.152760575e-09
-5.589066517e-09
-6.283354871e-09
-6.548113327e-09
-6.719157986e-09
-7.224646686e-09
-8.248643262e-09
-9.095147783e-09
-9.933689851e-09
-1.085720475e-08
-1.230837154e-08
-1.377104385e-08
-1.547938608e-08
-1.670568354e-08
-1.761697738e-08
-1.858359942e-08
-1.962901057e-08
-2.07093328e-08
-2.200908192e-08
-2.281409268e-08
-2.406798218e-08
-2.585508207e-08
-2.804466592e-08
-3.072809295e-08
-3.432806814e-08
-3.737244008e-08
-4.11054596e-08
-4.513069309e-08
-4.926858104e-08
-5.305626254e-08
-5.557432975e-08
-5.772114701e-08
-6.073322915e-08
-6.408773e-08
-6.778121507e-08
-7.175462352e-08
-7.510274332e-08
-7.859095931e-08
-8.212973655e-08
-8.455565205e-08
-8.492773308e-08
-8.671421703e-08
-8.959655994e-08
-9.186709689e-08
-9.341160742e-08
-9.52084709e-08
-9.633364003e-08
-9.801966592e-08
-1.005376928e-07
-1.037472391e-07
-1.066524472e-07
-1.080399118e-07
-1.122258465e-07
-1.162716661e-07
-1.210536722e-07
-1.241141676e-07
-1.302284591e-07
-1.364480324e-07
-1.434346439e-07
-1.506017424e-07
-1.579722095e-07
-1.655002562e-07
-1.722269763e-07
-1.507341017e-07
-1.259158777e-07
-1.226450746e-07
-1.151446912e-07
-1.085498192e-07
)


100
(
1.816713001e-10
3.014171304e-10
4.015978888e-10
4.774022316e-10
5.078330891e-10
5.340700262e-10
5.187881167e-10
4.9781891e-10
4.324689394e-10
3.402594873e-10
2.20471272e-10
7.479235643e-11
-1.43482222e-10
-3.841807487e-10
-6.044359764e-10
-9.506285855e-10
-1.378621098e-09
-1.645791477e-09
-1.900979614e-09
-2.276094127e-09
-2.703601237e-09
-2.877135225e-09
-2.983770878e-09
-3.33118089e-09
-3.710446731e-09
-4.012364344e-09
-4.099116878e-09
-4.264901413e-09
-4.611095711e-09
-4.952665399e-09
-5.463852736e-09
-5.869607087e-09
-5.676861411e-09
-6.023744042e-09
-6.755807285e-09
-7.871846324e-09
-8.561517795e-09
-9.381926111e-09
-1.043452332e-08
-1.189744722e-08
-1.340824229e-08
-1.475992966e-08
-1.581080731e-08
-1.705415208e-08
-1.846441318e-08
-1.999874295e-08
-2.160277605e-08
-2.260857521e-08
-2.336216136e-08
-2.492268204e-08
-2.671420908e-08
-2.896654794e-08
-3.190984329e-08
-3.489770672e-08
-3.81157568e-08
-4.206425488e-08
-4.5954827e-08
-5.046036273e-08
-5.443772292e-08
-5.654358032e-08
-5.896514446e-08
-6.23295875e-08
-6.567531645e-08
-6.868887332e-08
-7.127377489e-08
-7.356157e-08
-7.607082838e-08
-7.869115629e-08
-8.071308441e-08
-8.011042785e-08
-8.041315884e-08
-8.202844288e-08
-8.420505799e-08
-8.615812897e-08
-8.824297825e-08
-9.118534914e-08
-9.345709168e-08
-9.563365242e-08
-9.922561304e-08
-1.034475441e-07
-1.074280813e-07
-1.105034613e-07
-1.14749817e-07
-1.195557028e-07
-1.24668211e-07
-1.285755844e-07
-1.336957942e-07
-1.393163873e-07
-1.451854558e-07
-1.528835316e-07
-1.606247396e-07
-1.680008867e-07
-1.781723135e-07
-1.854700842e-07
-1.924539983e-07
-1.508597652e-07
-1.307472802e-07
-1.28839904e-07
-1.202013278e-07
-1.154940988e-07
)


100
(
1.554231753e-10
2.894270771e-10
3.915747904e-10
4.607381908e-10
5.073596235e-10
5.379929642e-10
5.299673385e-10
5.034602939e-10
4.465855274e-10
3.462019471e-10
1.928991919e-10
3.407801383e-11
-1.689733687e-10
-4.701136225e-10
-7.517571054e-10
-9.714404413e-10
-1.350204593e-09
-1.789899335e-09
-2.014413292e-09
-2.182847129e-09
-2.541844165e-09
-2.933583332e-09
-3.132898948e-09
-3.209834716e-09
-3.474332654e-09
-3.857451402e-09
-4.266542571e-09
-4.424885514e-09
-4.556213236e-09
-4.972697785e-09
-5.473932835e-09
-6.329084795e-09
-6.974145055e-09
-7.326982574e-09
-8.081705696e-09
-9.391217781e-09
-1.085306947e-08
-1.244000106e-08
-1.353997643e-08
-1.473855815e-08
-1.607213558e-08
-1.758398955e-08
-1.923835405e-08
-2.03854417e-08
-2.117752341e-08
-2.256029496e-08
-2.445631957e-08
-2.663273269e-08
-2.913648455e-08
-3.143556904e-08
-3.385244042e-08
-3.72185875e-08
-4.091233112e-08
-4.508503404e-08
-5.007531734e-08
-5.296094067e-08
-5.480996841e-08
-5.761280052e-08
-6.049101678e-08
-6.318786631e-08
-6.543072781e-08
-6.6422846e-08
-6.825152019e-08
-7.054684478e-08
-7.280597356e-08
-7.486187836e-08
-7.453993123e-08
-7.437361793e-08
-7.564092934e-08
-7.727486448e-08
-7.876610953e-08
-8.041433385e-08
-8.366372342e-08
-8.666665365e-08
-8.897112339e-08
-9.137260025e-08
-9.619168605e-08
-1.019257274e-07
-1.067781982e-07
-1.106562916e-07
-1.144373546e-07
-1.192095279e-07
-1.250893574e-07
-1.309742567e-07
-1.345772976e-07
-1.411798235e-07
-1.471637884e-07
-1.52674488e-07
-1.606770294e-07
-1.701893743e-07
-1.786522542e-07
-1.8600788e-07
-1.938771638e-07
-2.014830912e-07
-2.025200287e-07
-1.52516969e-07
-1.440120172e-07
-1.381891284e-07
-1.29461891e-07
-1.221555474e-07
)


100
(
1.413084919e-10
2.731037635e-10
3.729859353e-10
4.423227545e-10
5.070999557e-10
5.317541892e-10
5.421659029e-10
5.094748339e-10
4.51549732e-10
3.590712971e-10
2.06852154e-10
-1.314305748e-11
-1.917913245e-10
-4.358383218e-10
-7.796326729e-10
-1.044043747e-09
-1.210758302e-09
-1.570953853e-09
-1.98300082e-09
-2.186785598e-09
-2.264185734e-09
-2.607735315e-09
-2.990490511e-09
-3.265104257e-09
-3.3549077e-09
-3.551188717e-09
-3.988885302e-09
-4.483428021e-09
-4.933659091e-09
-5.248597059e-09
-5.752556979e-09
-6.607742935e-09
-8.058529538e-09
-9.224748527e-09
-1.02219695e-08
-1.124634698e-08
-1.268544038e-08
-1.422562281e-08
-1.611192109e-08
-1.766826883e-08
-1.853075821e-08
-1.959854016e-08
-2.119149883e-08
-2.297516931e-08
-2.508868993e-08
-2.663248761e-08
-2.833055073e-08
-3.109191603e-08
-3.463920744e-08
-3.827472629e-08
-4.265649843e-08
-4.600942787e-08
-4.840602018e-08
-5.091785676e-08
-5.4050383e-08
-5.703683988e-08
-5.967731389e-08
-5.937364583e-08
-5.975903676e-08
-6.153914796e-08
-6.299278695e-08
-6.468847351e-08
-6.599293253e-08
-6.592094826e-08
-6.626235367e-08
-6.811403125e-08
-7.0186115e-08
-7.138374726e-08
-7.30208142e-08
-7.697480246e-08
-8.0310454e-08
-8.32155193e-08
-8.522196509e-08
-8.767719673e-08
-9.120763446e-08
-9.611965998e-08
-1.014938008e-07
-1.067768941e-07
-1.109149055e-07
-1.145670489e-07
-1.206037479e-07
-1.269267796e-07
-1.319787144e-07
-1.368971593e-07
-1.432565426e-07
-1.503660367e-07
-1.549038434e-07
-1.624182763e-07
-1.731670344e-07
-1.792556781e-07
-1.881056904e-07
-1.949056812e-07
-2.04195018e-07
-2.103747526e-07
-2.016702296e-07
-1.601487306e-07
-1.61265145e-07
-1.528898815e-07
-1.444276254e-07
-1.342411161e-07
)


100
(
1.412251477e-10
2.54262005e-10
3.511427517e-10
4.323316065e-10
4.980738716e-10
5.288388566e-10
5.450210591e-10
5.239342135e-10
4.623086123e-10
3.613196739e-10
2.424341921e-10
2.996881654e-11
-2.185781675e-10
-3.870581988e-10
-6.323829774e-10
-9.781830984e-10
-1.202639124e-09
-1.306184104e-09
-1.626401353e-09
-2.011437831e-09
-2.233281558e-09
-2.300324338e-09
-2.589674639e-09
-2.994689731e-09
-3.412711457e-09
-3.571367526e-09
-3.779252373e-09
-4.332728372e-09
-5.049551412e-09
-5.925815509e-09
-6.695150246e-09
-7.474538977e-09
-8.664039109e-09
-1.024155177e-08
-1.178666038e-08
-1.342873435e-08
-1.455046507e-08
-1.556391904e-08
-1.716278358e-08
-1.908816366e-08
-2.118087822e-08
-2.259576433e-08
-2.350541625e-08
-2.552329624e-08
-2.810153802e-08
-3.104520083e-08
-3.440979233e-08
-3.745272765e-08
-4.007264431e-08
-4.323337311e-08
-4.632105868e-08
-4.980655577e-08
-5.28600345e-08
-5.311110402e-08
-5.215808788e-08
-5.363657355e-08
-5.523861408e-08
-5.638436515e-08
-5.729629571e-08
-5.697319627e-08
-5.682328469e-08
-5.7950866e-08
-6.037276864e-08
-6.283535537e-08
-6.270956771e-08
-6.363062864e-08
-6.739504639e-08
-7.148620094e-08
-7.536838677e-08
-7.858076656e-08
-8.123569749e-08
-8.432417091e-08
-8.760191371e-08
-9.125395006e-08
-9.590790749e-08
-1.009891436e-07
-1.044526537e-07
-1.075886044e-07
-1.124760988e-07
-1.193397399e-07
-1.260096504e-07
-1.30566999e-07
-1.346955799e-07
-1.416848911e-07
-1.494111988e-07
-1.544333568e-07
-1.601911683e-07
-1.68633481e-07
-1.741239916e-07
-1.813796497e-07
-1.880282064e-07
-1.971786817e-07
-2.065032813e-07
-2.134675902e-07
-2.004977922e-07
-1.731735412e-07
-1.744589279e-07
-1.691886069e-07
-1.620074207e-07
-1.465533766e-07
)


100
(
1.411865743e-10
2.391922928e-10
3.349049316e-10
4.200603763e-10
4.799472894e-10
5.292411049e-10
5.420197624e-10
5.318530207e-10
4.827448769e-10
3.793819074e-10
2.507122243e-10
1.174977453e-10
-1.330336876e-10
-3.725166387e-10
-5.001104985e-10
-7.239000454e-10
-1.053169115e-09
-1.257679934e-09
-1.318018216e-09
-1.596355986e-09
-1.978788548e-09
-2.271190621e-09
-2.360695377e-09
-2.613335292e-09
-3.093663652e-09
-3.636140298e-09
-4.100323828e-09
-4.537232737e-09
-5.220565944e-09
-6.296212787e-09
-7.570338741e-09
-9.10107539e-09
-1.017432019e-08
-1.117290538e-08
-1.263493618e-08
-1.436849033e-08
-1.641661253e-08
-1.791564894e-08
-1.875497531e-08
-2.007292351e-08
-2.237419428e-08
-2.49850384e-08
-2.77494441e-08
-2.981947195e-08
-3.197760296e-08
-3.500966898e-08
-3.824353017e-08
-4.137096297e-08
-4.524943952e-08
-4.676108712e-08
-4.696849522e-08
-4.782327816e-08
-4.943907198e-08
-5.063645666e-08
-5.075169183e-08
-4.962667027e-08
-4.904132293e-08
-5.056665901e-08
-5.15102057e-08
-5.385385392e-08
-5.51455001e-08
-5.482938554e-08
-5.601444774e-08
-5.921721928e-08
-6.271522258e-08
-6.597978142e-08
-6.898294922e-08
-7.242818512e-08
-7.578972859e-08
-7.883632218e-08
-8.128786004e-08
-8.420334834e-08
-8.940023765e-08
-9.495176505e-08
-9.956544244e-08
-1.028359311e-07
-1.062520976e-07
-1.102378624e-07
-1.160715303e-07
-1.227816826e-07
-1.272782172e-07
-1.315957614e-07
-1.386713679e-07
-1.460203688e-07
-1.50968221e-07
-1.570002665e-07
-1.651379056e-07
-1.717231458e-07
-1.766884692e-07
-1.816221837e-07
-1.893427285e-07
-1.972277083e-07
-2.015075091e-07
-2.082260244e-07
-1.947179653e-07
-1.825828172e-07
-1.83186168e-07
-1.803232514e-07
-1.753213381e-07
-1.546712201e-07
)


100
(
1.296189596e-10
2.270510704e-10
3.1954431e-10
4.010088247e-10
4.643159029e-10
5.221614319e-10
5.425845555e-10
5.348204671e-10
4.96860843e-10
4.199257356e-10
2.717815572e-10
1.459186e-10
1.057283322e-11
-2.43629446e-10
-4.518183554e-10
-5.287692715e-10
-7.25554397e-10
-1.046109904e-09
-1.259806724e-09
-1.310878355e-09
-1.552151528e-09
-1.96345006e-09
-2.390110411e-09
-2.56134265e-09
-2.820139261e-09
-3.468061911e-09
-4.253561197e-09
-5.239077509e-09
-6.019982625e-09
-6.89964978e-09
-8.192518443e-09
-9.74717701e-09
-1.162131383e-08
-1.31478934e-08
-1.408902179e-08
-1.501966248e-08
-1.688293772e-08
-1.912213862e-08
-2.164965254e-08
-2.306732748e-08
-2.43954671e-08
-2.68782607e-08
-3.018298941e-08
-3.335797762e-08
-3.68128421e-08
-3.919342002e-08
-4.056247914e-08
-4.207551867e-08
-4.386910221e-08
-4.569702808e-08
-4.694667661e-08
-4.527533691e-08
-4.383417978e-08
-4.486695478e-08
-4.605354042e-08
-4.641164175e-08
-4.780340252e-08
-4.808907718e-08
-4.839361684e-08
-5.066620445e-08
-5.361911565e-08
-5.662828147e-08
-5.683374352e-08
-5.857238259e-08
-6.317600391e-08
-6.714442775e-08
-7.06106247e-08
-7.314103869e-08
-7.557489653e-08
-7.874682614e-08
-8.267547696e-08
-8.776716637e-08
-9.232748892e-08
-9.678244065e-08
-1.005105565e-07
-1.038886806e-07
-1.083765547e-07
-1.140946089e-07
-1.199764903e-07
-1.246800359e-07
-1.283826056e-07
-1.345191315e-07
-1.413600524e-07
-1.470013809e-07
-1.52745976e-07
-1.624203495e-07
-1.698693088e-07
-1.746446809e-07
-1.815307396e-07
-1.857118771e-07
-1.920175671e-07
-2.033036482e-07
-2.038189813e-07
-2.072237161e-07
-1.8428386e-07
-1.835788792e-07
-1.869443893e-07
-1.857061016e-07
-1.822642194e-07
-1.621880162e-07
)


100
(
1.101581288e-10
2.137662196e-10
3.027838219e-10
3.781202001e-10
4.517942457e-10
5.053000032e-10
5.420488903e-10
5.410894001e-10
5.028309552e-10
4.493336513e-10
3.437460388e-10
1.732564459e-10
8.212455133e-11
-3.755415072e-11
-2.829019486e-10
-4.631239504e-10
-5.033610144e-10
-6.801444162e-10
-1.000935563e-09
-1.262255343e-09
-1.33327396e-09
-1.552677232e-09
-2.042945328e-09
-2.593515523e-09
-3.064480068e-09
-3.537006291e-09
-4.328265181e-09
-5.44486396e-09
-6.76752989e-09
-8.202077243e-09
-9.277113357e-09
-1.028213258e-08
-1.189268224e-08
-1.390773816e-08
-1.617868386e-08
-1.725564024e-08
-1.797254881e-08
-1.980715083e-08
-2.24981757e-08
-2.546216284e-08
-2.851050593e-08
-3.046276995e-08
-3.218854154e-08
-3.468731349e-08
-3.700478034e-08
-3.966995985e-08
-4.231237072e-08
-4.199129356e-08
-4.009233409e-08
-4.046764217e-08
-4.121971322e-08
-4.188876098e-08
-4.206889451e-08
-4.17815489e-08
-4.201652257e-08
-4.356100599e-08
-4.566312079e-08
-4.880515376e-08
-5.0144542e-08
-4.970363313e-08
-5.219129146e-08
-5.608670217e-08
-5.953177548e-08
-6.279531988e-08
-6.587797445e-08
-6.81289328e-08
-7.081742427e-08
-7.372007118e-08
-7.624867318e-08
-7.97334837e-08
-8.517886753e-08
-9.077880904e-08
-9.442904381e-08
-9.769304515e-08
-1.017307736e-07
-1.072859192e-07
-1.120835471e-07
-1.169609879e-07
-1.207291522e-07
-1.250881581e-07
-1.313715241e-07
-1.39453693e-07
-1.43710087e-07
-1.469525527e-07
-1.554074064e-07
-1.630040929e-07
-1.688139287e-07
-1.744956578e-07
-1.793990798e-07
-1.878882844e-07
-1.907377118e-07
-1.979179138e-07
-2.040093169e-07
-2.035376242e-07
-1.81504071e-07
-1.77599685e-07
-1.841426951e-07
-1.856582592e-07
-1.843109075e-07
-1.644092395e-07
)


100
(
1.02249573e-10
1.979426922e-10
2.829304554e-10
3.589439525e-10
4.355708548e-10
4.887523354e-10
5.327383504e-10
5.474894876e-10
5.22763802e-10
4.615448691e-10
4.149446021e-10
2.959711706e-10
1.324286739e-10
8.626513652e-11
-1.312639569e-11
-2.490620361e-10
-4.24890465e-10
-4.473748562e-10
-6.052247687e-10
-9.481972264e-10
-1.303023006e-09
-1.442678023e-09
-1.674098981e-09
-2.316311274e-09
-3.098493122e-09
-4.052140651e-09
-4.81845624e-09
-5.660833566e-09
-7.017620778e-09
-8.54555533e-09
-1.058249528e-08
-1.17966747e-08
-1.263193701e-08