/*--------------------------------*- C++ -*----------------------------------*\
| =========                 |                                                 |
| \\      /  F ield         | OpenFOAM: The Open Source CFD Toolbox           |
|  \\    /   O peration     | Version:  2.3.1                                 |
|   \\  /    A nd           | Web:      www.OpenFOAM.org                      |
|    \\/     M anipulation  |                                                 |
\*---------------------------------------------------------------------------*/
FoamFile
{
    version     2.0;
    format      ascii;
    class       dictionary;
    location    "constant";
    object      DPSI33;
}
// * * * * * * * * * * * * * * * * * * * * * * * * * * * * * * * * * * * * * //

DPSI33_table
100
(

100
(
-2.918403353e-09
-2.515637338e-09
-1.814173204e-09
-1.344428004e-09
-1.004362955e-09
-7.342356158e-10
-5.459682456e-10
-3.938444837e-10
-2.582595192e-10
-1.700140193e-10
-6.701520082e-11
2.540008768e-11
4.246419904e-11
1.080391671e-10
1.54792317e-10
1.538882714e-10
1.997751584e-10
2.396620496e-10
2.322680287e-10
2.528690879e-10
2.821943695e-10
2.84179999e-10
2.845067623e-10
3.036244258e-10
3.150829641e-10
3.079547816e-10
3.093503753e-10
3.215513824e-10
3.250060655e-10
3.180644834e-10
3.158458923e-10
3.158534604e-10
3.117692629e-10
3.055845718e-10
3.0466584e-10
3.135761059e-10
3.163798851e-10
3.094606629e-10
3.036499901e-10
2.991357024e-10
2.935112271e-10
2.870425222e-10
2.809369189e-10
2.747149244e-10
2.686179021e-10
2.634275465e-10
2.589259586e-10
2.572839989e-10
2.544700865e-10
2.497340466e-10
2.444794871e-10
2.356372952e-10
2.274934926e-10
2.233188732e-10
2.168435917e-10
2.081097852e-10
2.000608441e-10
1.900815126e-10
1.809484203e-10
1.808216369e-10
1.77112887e-10
1.64910598e-10
1.600577291e-10
1.62054899e-10
1.567670455e-10
1.450488716e-10
1.425555942e-10
1.421766952e-10
1.326264837e-10
1.245593352e-10
1.242671287e-10
1.192063524e-10
1.084947314e-10
1.076575149e-10
1.044381503e-10
9.356027314e-11
9.251061155e-11
8.826518411e-11
7.990559067e-11
7.741524409e-11
6.913846923e-11
6.539738823e-11
6.087060482e-11
5.474857429e-11
5.02031066e-11
4.504050326e-11
4.112014515e-11
3.644736136e-11
3.466674133e-11
3.148696662e-11
2.802744537e-11
2.42814159e-11
2.139007291e-11
1.860350979e-11
1.52461048e-11
1.129139437e-11
8.567313118e-12
9.78329928e-12
1.432041398e-11
1.71790878e-11
)


100
(
-2.768862755e-09
-2.436570721e-09
-1.818908266e-09
-1.381318586e-09
-1.068531239e-09
-7.928228322e-10
-6.011363505e-10
-4.507988402e-10
-3.15891694e-10
-2.187765151e-10
-1.199609809e-10
-2.720359237e-11
2.166151978e-11
7.289678512e-11
1.213302925e-10
1.445634508e-10
1.736210715e-10
2.099067741e-10
2.275282942e-10
2.413966855e-10
2.618861756e-10
2.770882055e-10
2.842119396e-10
2.917679368e-10
3.040739579e-10
3.111125076e-10
3.12412974e-10
3.134623908e-10
3.211934543e-10
3.263967712e-10
3.230525214e-10
3.178011755e-10
3.173095764e-10
3.174920038e-10
3.137698535e-10
3.09465594e-10
3.093419275e-10
3.144654861e-10
3.139500981e-10
3.050998833e-10
2.958662531e-10
2.95714701e-10
2.970529753e-10
2.920687055e-10
2.832175262e-10
2.792059276e-10
2.777039022e-10
2.713020399e-10
2.593092811e-10
2.46777783e-10
2.407539336e-10
2.370835384e-10
2.335781544e-10
2.298750873e-10
2.317843351e-10
2.31246372e-10
2.056322191e-10
1.241932671e-10
-7.264909335e-11
-3.124624406e-10
-7.368833338e-11
4.462044023e-10
3.459831608e-10
-1.063642651e-10
-1.008361661e-11
3.760064664e-10
1.857568332e-10
-1.117897246e-10
1.333540174e-10
3.25831367e-10
5.854574643e-11
-1.793719121e-11
2.271297889e-10
-9.510544182e-11
-4.139210157e-10
2.893014552e-10
3.391688271e-10
-2.241587693e-10
3.152471802e-10
2.100191692e-10
-7.569987416e-11
2.801910893e-10
-1.338349007e-10
1.057565626e-10
2.295472439e-10
-2.211226608e-10
1.548609918e-10
-3.726577064e-11
-5.343312484e-11
7.849080304e-11
-1.030474307e-10
-1.891947563e-10
-2.377339653e-10
-2.333792853e-10
-1.671628496e-10
-1.039330061e-11
3.833682525e-11
9.813425187e-10
1.436870424e-09
1.144897984e-09
)


100
(
-2.619401035e-09
-2.352313847e-09
-1.812054904e-09
-1.418470364e-09
-1.120841263e-09
-8.52329173e-10
-6.526961162e-10
-5.007085675e-10
-3.687767046e-10
-2.643172143e-10
-1.711275455e-10
-7.724517141e-11
-1.425896039e-11
3.956957051e-11
8.797644308e-11
1.205242504e-10
1.481920981e-10
1.776280453e-10
2.032517586e-10
2.232898761e-10
2.400591867e-10
2.546350447e-10
2.692657824e-10
2.809847968e-10
2.865512441e-10
2.919424184e-10
3.003105905e-10
3.081333003e-10
3.111460537e-10
3.113956547e-10
3.151387758e-10
3.15558425e-10
3.088456335e-10
3.018676592e-10
3.045910296e-10
3.119001957e-10
3.127989445e-10
3.010671301e-10
2.885833814e-10
2.87493379e-10
2.807986691e-10
2.625886037e-10
2.37759387e-10
2.473129236e-10
2.788508723e-10
2.83648028e-10
2.638865588e-10
2.548545759e-10
2.713156323e-10
2.601688943e-10
1.936574376e-10
8.771323915e-11
6.527133131e-11
9.851609944e-11
8.539642654e-11
2.513615153e-11
4.467166039e-11
8.579239591e-11
-2.839149304e-11
-3.561620377e-10
-6.439888731e-10
-3.502104092e-10
2.496761786e-10
4.25776781e-10
1.30141119e-10
2.308539608e-11
1.996519535e-10
2.285410221e-10
1.534072812e-10
1.97426668e-10
2.722871977e-10
2.199486342e-10
1.876173369e-10
7.119890048e-11
-5.397161393e-10
-1.147476733e-09
-4.635782326e-10
3.11394715e-10
1.120316937e-10
5.28311814e-11
-4.198386896e-10
-1.169797294e-10
-4.3999853e-10
-7.587283157e-10
2.498613749e-10
-2.470085964e-10
-3.94699853e-10
-1.286099833e-10
-7.177519211e-10
-1.055317114e-09
-8.941180319e-10
-9.50577476e-10
-1.889204619e-09
-1.318126155e-09
-3.926826868e-10
-8.673764466e-10
1.861471799e-09
5.559948516e-09
5.317919373e-09
4.137445443e-09
)


100
(
-2.479480658e-09
-2.26237847e-09
-1.807264724e-09
-1.442127437e-09
-1.148733447e-09
-9.078357419e-10
-7.058146451e-10
-5.508810847e-10
-4.291236016e-10
-3.13790563e-10
-2.223577647e-10
-1.299146795e-10
-5.695547041e-11
-2.741687538e-12
4.79777536e-11
8.604903287e-11
1.155904662e-10
1.427327174e-10
1.640311837e-10
1.872748072e-10
2.103978452e-10
2.243213145e-10
2.31854067e-10
2.483905502e-10
2.653980871e-10
2.644082587e-10
2.529794444e-10
2.596338509e-10
2.825552873e-10
2.93764737e-10
2.76544528e-10
2.623683407e-10
2.643003715e-10
2.536034337e-10
2.281061327e-10
2.101330618e-10
2.328927125e-10
2.591876258e-10
2.448358997e-10
1.820670588e-10
1.189252676e-10
1.099954852e-10
8.386551767e-11
1.972231155e-11
-7.494185807e-11
-4.806984538e-11
3.531244577e-11
2.33730666e-11
-8.639217361e-11
-6.8542973e-11
3.264326907e-11
8.374983233e-12
-6.425643132e-11
-2.838999358e-11
1.039753789e-10
1.062461664e-10
-2.436925134e-11
-1.51390837e-11
1.620176289e-10
1.282157294e-10
-1.119337461e-10
-2.912160331e-10
-1.419576506e-10
1.904904684e-10
3.630646536e-10
3.062825738e-10
2.125264339e-10
1.035076896e-10
-1.971876473e-10
-4.809439521e-10
-6.48349346e-10
-8.92318763e-10
-1.137454253e-09
-5.909694431e-10
-4.170680076e-10
-1.999832394e-09
-1.162572916e-09
8.619202146e-10
-1.227562291e-09
-1.703699916e-09
1.416090368e-10
-7.439591696e-10
-8.365331057e-10
-1.305364301e-10
-9.870088215e-10
-1.822743458e-09
-2.253986086e-09
-2.116009619e-09
-2.57434667e-09
-3.436275553e-09
-3.118769014e-09
-3.411156467e-09
-3.09114087e-09
-3.146829668e-09
-4.175165431e-09
-2.681185136e-09
8.628979982e-09
1.681153336e-08
1.281040564e-08
1.011179934e-08
)


100
(
-2.369496805e-09
-2.17833329e-09
-1.773576983e-09
-1.441507329e-09
-1.185573424e-09
-9.566548628e-10
-7.595315869e-10
-6.010735904e-10
-4.804259854e-10
-3.694934667e-10
-2.743923815e-10
-1.92256879e-10
-1.10750415e-10
-4.960440394e-11
-1.427534081e-12
3.703191195e-11
6.649889329e-11
9.41801254e-11
1.163950366e-10
1.259442759e-10
1.422116151e-10
1.65330523e-10
1.744746769e-10
1.649918676e-10
1.754505283e-10
1.990714336e-10
1.834198052e-10
1.314408268e-10
1.127964802e-10
1.543193153e-10
1.829635752e-10
1.525874158e-10
6.149847097e-11
5.173254884e-11
7.252005269e-11
9.211494845e-12
-1.305356208e-10
-1.362604298e-10
-5.397289534e-11
-8.931049898e-11
-1.40439685e-10
-2.058757294e-10
-1.227965897e-10
-3.032276164e-11
-1.131004402e-10
-3.196347694e-10
-2.124090807e-10
2.937888601e-11
-4.623828718e-11
-2.12107357e-10
-1.474000375e-10
3.674056968e-11
1.832180475e-12
-7.282207642e-11
7.482347408e-12
1.42623384e-10
1.490305549e-11
-1.53517936e-10
-8.280364897e-11
1.147944787e-10
1.615513531e-10
-7.446320656e-11
-4.305414674e-10
-6.59273485e-10
-7.583128863e-10
-8.121923404e-10
-7.635550191e-10
-6.966876255e-10
-7.51213049e-10
-7.857920623e-10
-7.359211785e-10
-1.118586824e-09
-2.542164548e-09
-3.819043448e-09
-1.841577792e-09
3.063073442e-10
-1.442039873e-09
-2.099479229e-09
-8.433333358e-10
-9.256034301e-10
-1.521691897e-09
-3.083769636e-09
-4.467512261e-09
-4.011289529e-09
-3.349237432e-09
-3.166723857e-09
-4.363500193e-09
-6.323580896e-09
-9.0257436e-09
-7.164443353e-09
-4.574533779e-09
-7.693280634e-09
-8.87501431e-09
-9.378351172e-09
-1.045693948e-08
-3.786278915e-09
2.502472381e-08
3.860235151e-08
2.607092303e-08
2.111281846e-08
)


100
(
-2.262434159e-09
-2.094406917e-09
-1.73291691e-09
-1.435171377e-09
-1.217545169e-09
-9.999724554e-10
-8.117978245e-10
-6.593539438e-10
-5.344506331e-10
-4.352320923e-10
-3.344063014e-10
-2.515086827e-10
-1.78767881e-10
-1.141420446e-10
-6.399296514e-11
-2.752396224e-11
-1.070709309e-11
3.239425703e-12
2.627624418e-11
3.835398841e-11
2.187188551e-11
1.119997451e-11
2.82637435e-11
2.837812576e-11
-1.271692514e-11
-4.281965661e-11
-2.195012897e-11
-3.301390204e-11
-1.174456122e-10
-2.193157199e-10
-1.842076708e-10
-1.074615009e-10
-1.426664498e-10
-3.027785543e-10
-2.5703079e-10
-1.038148077e-10
-1.498113735e-10
-4.471398804e-10
-4.524031601e-10
-1.917314763e-10
-2.147553995e-10
-3.547923505e-10
-3.923087616e-10
-1.502429531e-10
-2.482868485e-11
-2.645713321e-10
-5.191492563e-10
-2.205991391e-10
5.811083507e-11
-1.247454599e-10
-2.945039462e-10
-2.075863012e-10
-8.698218305e-11
-1.314916999e-10
-1.92817238e-10
-1.920832995e-10
-4.002014216e-10
-8.358103129e-10
-1.202555177e-09
-1.411510462e-09
-1.344692296e-09
-1.088279388e-09
-9.819345981e-10
-1.016296013e-09
-1.0250514e-09
-1.032278931e-09
-9.875298161e-10
-8.823741694e-10
-8.467306656e-10
-1.187965172e-09
-1.976399247e-09
-2.800505235e-09
-3.323320283e-09
-3.67437834e-09
-4.286247927e-09
-3.044364614e-09
-1.724291329e-09
-2.784889631e-09
-4.8482024e-09
-6.475291244e-09
-6.558876797e-09
-6.202590093e-09
-6.038435896e-09
-7.137044433e-09
-9.306964736e-09
-9.30886452e-09
-9.025856728e-09
-1.418932626e-08
-1.476406785e-08
-1.060985346e-08
-1.459226317e-08
-1.680280038e-08
-1.723952391e-08
-1.995417523e-08
-1.921082149e-08
4.613015342e-09
5.335994469e-08
6.668162175e-08
4.856753323e-08
4.149514217e-08
)


100
(
-2.122618696e-09
-1.991312021e-09
-1.684365857e-09
-1.438111329e-09
-1.239277514e-09
-1.036240704e-09
-8.606635954e-10
-7.17106363e-10
-5.926379115e-10
-4.957213624e-10
-4.097279119e-10
-3.260837178e-10
-2.569614066e-10
-2.001374829e-10
-1.591505006e-10
-1.270095675e-10
-1.165698698e-10
-1.418843332e-10
-1.596369371e-10
-1.440086765e-10
-1.478508998e-10
-2.083732625e-10
-2.783038902e-10
-2.663792307e-10
-2.651738954e-10
-3.582388875e-10
-3.82138838e-10
-3.003686848e-10
-2.879388888e-10
-4.158109681e-10
-5.876542301e-10
-4.854872273e-10
-3.124299945e-10
-4.106496727e-10
-6.041375497e-10
-4.343202298e-10
-1.728589999e-10
-3.51994823e-10
-6.871457896e-10
-5.466854503e-10
-2.199108546e-10
-2.996956722e-10
-4.775375216e-10
-4.424175726e-10
-1.444568252e-10
-2.074303015e-10
-5.076942229e-10
-6.633601267e-10
-4.38332722e-10
-3.059777994e-10
-5.412266366e-10
-7.717995654e-10
-1.09888464e-09
-1.270875258e-09
-1.399801233e-09
-1.535900236e-09
-1.599517835e-09
-1.614404756e-09
-1.590254947e-09
-1.648184157e-09
-1.692632758e-09
-1.659377169e-09
-1.796034105e-09
-1.747448008e-09
-1.549421618e-09
-1.792584557e-09
-2.618267894e-09
-3.779935789e-09
-4.188506172e-09
-4.013058062e-09
-4.013575318e-09
-4.073054023e-09
-4.15416132e-09
-4.121933461e-09
-4.588230776e-09
-6.372051608e-09
-8.296996699e-09
-9.102103408e-09
-9.170685407e-09
-9.073857625e-09
-9.338497582e-09
-1.154061461e-08
-1.444423304e-08
-1.491761535e-08
-1.447097372e-08
-1.590171123e-08
-1.756062286e-08
-1.9826556e-08
-2.131348602e-08
-1.923460188e-08
-1.895317591e-08
-2.20350631e-08
-2.492766335e-08
-2.709757508e-08
-2.674955997e-08
1.378186033e-08
7.544574145e-08
8.927394826e-08
8.104210806e-08
7.987103361e-08
)


100
(
-1.966511868e-09
-1.877117249e-09
-1.63744491e-09
-1.431105374e-09
-1.245968919e-09
-1.071334451e-09
-9.086322344e-10
-7.732964696e-10
-6.655561054e-10
-5.655834832e-10
-4.881669006e-10
-4.229457733e-10
-3.650894631e-10
-3.144209201e-10
-2.890677633e-10
-2.863134523e-10
-2.863059854e-10
-3.258068483e-10
-4.064358378e-10
-4.695291205e-10
-4.593165631e-10
-4.649329896e-10
-5.658050476e-10
-7.022511273e-10
-6.52747061e-10
-5.738241586e-10
-6.803709742e-10
-6.50565619e-10
-5.091400636e-10
-4.764120264e-10
-7.567804589e-10
-8.954454524e-10
-5.797928864e-10
-3.965377436e-10
-6.449749396e-10
-8.296759658e-10
-4.758794311e-10
-2.357351153e-10
-5.656561763e-10
-8.909527238e-10
-6.307689681e-10
-3.06999883e-10
-4.626647045e-10
-6.845940383e-10
-6.567546003e-10
-5.950305708e-10
-8.312220278e-10
-1.222457219e-09
-1.619896831e-09
-1.898213665e-09
-1.898305949e-09
-1.922370477e-09
-2.053534188e-09
-2.258361292e-09
-2.489811169e-09
-2.22918059e-09
-1.920650428e-09
-1.968292062e-09
-2.02698623e-09
-2.28966244e-09
-2.403624361e-09
-2.49894643e-09
-3.105412871e-09
-4.227392501e-09
-5.441483338e-09
-5.864032543e-09
-5.569046779e-09
-5.447986325e-09
-5.901388996e-09
-6.526064312e-09
-6.619678508e-09
-6.64071639e-09
-7.804129078e-09
-9.796790618e-09
-1.111001892e-08
-1.117600771e-08
-1.142560097e-08
-1.240198343e-08
-1.30031386e-08
-1.469924429e-08
-1.691719172e-08
-1.754634013e-08
-1.766055048e-08
-1.846225552e-08
-2.020417423e-08
-2.107183314e-08
-2.040912919e-08
-2.081363584e-08
-2.240760052e-08
-2.313805744e-08
-2.440388441e-08
-2.647796249e-08
-2.887713149e-08
-3.230360431e-08
-3.088080166e-08
2.41881646e-08
8.577757537e-08
9.25578189e-08
1.091648804e-07
1.270156463e-07
)


100
(
-1.828862399e-09
-1.769949494e-09
-1.583890868e-09
-1.407895066e-09
-1.251478274e-09
-1.098805805e-09
-9.56155229e-10
-8.303659907e-10
-7.337118658e-10
-6.527918583e-10
-5.84425712e-10
-5.343615506e-10
-5.139170297e-10
-4.888639152e-10
-4.630103682e-10
-4.884644695e-10
-5.293239005e-10
-5.956257252e-10
-6.849308141e-10
-7.871445691e-10
-9.077204494e-10
-8.651693799e-10
-8.094581716e-10
-9.075329789e-10
-1.041049091e-09
-9.947468107e-10
-8.557145356e-10
-8.998165721e-10
-8.152266826e-10
-6.287573906e-10
-6.670175192e-10
-1.04973485e-09
-1.086946883e-09
-6.287814843e-10
-5.639800673e-10
-8.681355027e-10
-9.493800784e-10
-5.366811808e-10
-5.106900692e-10
-9.218981214e-10
-1.154595982e-09
-9.842479955e-10
-8.677091719e-10
-1.153120715e-09
-1.484509712e-09
-1.928087931e-09
-2.20292915e-09
-2.421839801e-09
-2.729790922e-09
-2.937762097e-09
-3.138100603e-09
-3.120408787e-09
-2.789653614e-09
-2.647562065e-09
-2.848647384e-09
-3.103804849e-09
-3.456036582e-09
-3.500508807e-09
-3.335366331e-09
-3.801726261e-09
-4.887098995e-09
-6.273257105e-09
-7.178052546e-09
-7.388161661e-09
-7.617563112e-09
-8.028356258e-09
-8.466772839e-09
-8.731583162e-09
-8.817288122e-09
-9.880326004e-09
-1.199443395e-08
-1.399242127e-08
-1.418639727e-08
-1.319684644e-08
-1.377314258e-08
-1.50460318e-08
-1.525544719e-08
-1.612066526e-08
-1.757608368e-08
-1.795982456e-08
-1.779373446e-08
-1.783098273e-08
-1.965499733e-08
-2.1189735e-08
-2.129050431e-08
-2.144925056e-08
-2.360371301e-08
-2.442342523e-08
-2.365756196e-08
-2.603185703e-08
-2.900990794e-08
-3.285718728e-08
-3.701330378e-08
-3.814648556e-08
-3.280332484e-08
3.622396027e-08
9.930827786e-08
9.485604129e-08
1.240709222e-07
1.550813567e-07
)


100
(
-1.715473007e-09
-1.6698488e-09
-1.515796013e-09
-1.370567618e-09
-1.255380822e-09
-1.12084517e-09
-9.971404246e-10
-8.948209248e-10
-8.105258311e-10
-7.512798441e-10
-7.120049219e-10
-6.79625747e-10
-6.705717674e-10
-7.255664074e-10
-7.368855294e-10
-7.38421602e-10
-8.380286222e-10
-9.805888321e-10
-1.020835414e-09
-1.038020203e-09
-1.159128154e-09
-1.324689479e-09
-1.24135931e-09
-1.087182093e-09
-1.158033373e-09
-1.260106539e-09
-1.282267676e-09
-1.118936915e-09
-1.0485408e-09
-9.203424003e-10
-7.017820596e-10
-9.570887723e-10
-1.370974804e-09
-1.20154584e-09
-7.260295391e-10
-8.523262816e-10
-1.235186265e-09
-1.242835108e-09
-1.037404026e-09
-1.22570166e-09
-1.738582964e-09
-2.20186882e-09
-2.49674265e-09
-2.496734891e-09
-2.645503111e-09
-2.945456113e-09
-3.363929679e-09
-3.81310574e-09
-3.72445373e-09
-3.582598392e-09
-3.751430764e-09
-3.858462146e-09
-4.062042157e-09
-4.318728741e-09
-4.234190765e-09
-4.493177844e-09
-5.464918038e-09
-6.669419938e-09
-8.074976273e-09
-8.820521177e-09
-8.533268336e-09
-8.458570623e-09
-9.36080036e-09
-1.050373246e-08
-1.095824388e-08
-1.080295308e-08
-1.138221687e-08
-1.284014035e-08
-1.465958101e-08
-1.608270209e-08
-1.588162526e-08
-1.55501479e-08
-1.615601109e-08
-1.645510893e-08
-1.595633039e-08
-1.648444373e-08
-1.773686018e-08
-1.787390488e-08
-1.761686679e-08
-1.785966849e-08
-1.95445553e-08
-2.112921137e-08
-2.175166586e-08
-2.232927296e-08
-2.385746884e-08
-2.655564978e-08
-2.795846003e-08
-2.806620066e-08
-2.995539452e-08
-3.267409691e-08
-3.649831525e-08
-3.936155291e-08
-4.29623629e-08
-4.542717847e-08
-3.114916468e-08
5.510308313e-08
1.154573983e-07
1.012325571e-07
1.337812039e-07
1.666862253e-07
)


100
(
-1.611770864e-09
-1.574705753e-09
-1.443701655e-09
-1.337567132e-09
-1.249506518e-09
-1.136748311e-09
-1.033972345e-09
-9.586637802e-10
-9.011712353e-10
-8.61312372e-10
-8.504815694e-10
-8.716746103e-10
-8.840858503e-10
-9.353037682e-10
-1.08124674e-09
-1.119466816e-09
-1.121819175e-09
-1.269842444e-09
-1.451953243e-09
-1.430451528e-09
-1.36023372e-09
-1.460046941e-09
-1.599909945e-09
-1.556612437e-09
-1.370916438e-09
-1.34471202e-09
-1.428060443e-09
-1.532514428e-09
-1.388019807e-09
-1.209811316e-09
-1.032684908e-09
-9.483464661e-10
-1.352481496e-09
-1.72790896e-09
-1.514527998e-09
-1.281762474e-09
-1.581507655e-09
-2.019173563e-09
-2.360693756e-09
-2.588651984e-09
-2.874000895e-09
-3.29446456e-09
-3.723516568e-09
-4.299854919e-09
-4.403290323e-09
-4.027588807e-09
-4.017248796e-09
-4.355322327e-09
-4.807829814e-09
-5.300653435e-09
-5.21265535e-09
-5.108690289e-09
-5.736690719e-09
-6.533234321e-09
-7.681980221e-09
-9.37817164e-09
-1.006455509e-08
-1.018785588e-08
-1.096782216e-08
-1.183959998e-08
-1.276987862e-08
-1.258710146e-08
-1.176694659e-08
-1.238384082e-08
-1.384849077e-08
-1.501145353e-08
-1.606669926e-08
-1.592469355e-08
-1.545271683e-08
-1.670908486e-08
-1.788851917e-08
-1.677371817e-08
-1.620604174e-08
-1.768896227e-08
-1.886060465e-08
-1.885621018e-08
-1.854451609e-08
-1.90220169e-08
-2.04422091e-08
-2.225970625e-08
-2.360441549e-08
-2.402868044e-08
-2.410279266e-08
-2.700234614e-08
-2.980200917e-08
-3.051501038e-08
-3.170834156e-08
-3.393658388e-08
-3.638077412e-08
-3.974734839e-08
-4.384214257e-08
-4.829021791e-08
-5.309160066e-08
-5.37560077e-08
-1.893595389e-08
8.369855643e-08
1.291234294e-07
1.074268349e-07
1.420086429e-07
1.745049544e-07
)


100
(
-1.493977611e-09
-1.471917214e-09
-1.370426239e-09
-1.301377891e-09
-1.234539045e-09
-1.149064536e-09
-1.070242047e-09
-1.018654251e-09
-1.001577013e-09
-9.959664234e-10
-1.007463587e-09
-1.069544159e-09
-1.156025681e-09
-1.211967975e-09
-1.321856487e-09
-1.532349122e-09
-1.555923637e-09
-1.517560649e-09
-1.659450698e-09
-1.853572221e-09
-1.778323619e-09
-1.614006182e-09
-1.693020909e-09
-1.812607845e-09
-1.847467177e-09
-1.654146084e-09
-1.527179957e-09
-1.612467841e-09
-1.726182455e-09
-1.767429626e-09
-1.613830178e-09
-1.16396271e-09
-1.503937974e-09
-2.248167684e-09
-2.546694255e-09
-2.653354096e-09
-2.726581812e-09
-3.077483978e-09
-3.502848807e-09
-4.169266068e-09
-4.587656192e-09
-4.580425237e-09
-4.749314228e-09
-5.083199744e-09
-5.531994401e-09
-6.069383642e-09
-5.967664414e-09
-5.528727448e-09
-5.953238599e-09
-6.839723375e-09
-7.740215654e-09
-9.042024272e-09
-9.966750949e-09
-1.046340241e-08
-1.130369983e-08
-1.220319013e-08
-1.377883519e-08
-1.514982499e-08
-1.413133834e-08
-1.323434363e-08
-1.414001315e-08
-1.502403291e-08
-1.567173607e-08
-1.604711496e-08
-1.56903862e-08
-1.542175593e-08
-1.635358844e-08
-1.741718082e-08
-1.607167969e-08
-1.567736804e-08
-1.763355593e-08
-1.928868329e-08
-2.033013863e-08
-2.049593847e-08
-2.095265426e-08
-2.170690797e-08
-2.224014183e-08
-2.370674709e-08
-2.54989162e-08
-2.613021044e-08
-2.671213654e-08
-2.861287686e-08
-3.101535725e-08
-3.246238846e-08
-3.308071644e-08
-3.592045063e-08
-3.910441374e-08
-3.98933631e-08
-4.398058932e-08
-4.872668392e-08
-5.239749423e-08
-5.787213179e-08
-6.166052169e-08
-6.110914147e-08
2.877785417e-09
1.181464404e-07
1.393209689e-07
1.135129627e-07
1.506546391e-07
1.818043714e-07
)


100
(
-1.361060113e-09
-1.361067577e-09
-1.304150291e-09
-1.255965199e-09
-1.208570617e-09
-1.153668084e-09
-1.106431995e-09
-1.07996332e-09
-1.094393502e-09
-1.148228802e-09
-1.196362715e-09
-1.26366868e-09
-1.415368935e-09
-1.547520391e-09
-1.611342853e-09
-1.737768879e-09
-1.962666766e-09
-1.962102441e-09
-1.865328137e-09
-1.967854052e-09
-2.125114166e-09
-2.072590301e-09
-1.889842729e-09
-1.900165578e-09
-2.016014535e-09
-2.142912851e-09
-2.005180971e-09
-1.81975932e-09
-1.921121486e-09
-2.111044897e-09
-2.377293336e-09
-2.458339216e-09
-2.351142611e-09
-2.811223443e-09
-3.544271252e-09
-4.023522494e-09
-4.621417155e-09
-4.698057619e-09
-4.632720414e-09
-5.077462212e-09
-5.678197719e-09
-6.450746539e-09
-6.521721151e-09
-6.215461535e-09
-6.520899189e-09
-7.21935335e-09
-8.027784495e-09
-9.028105672e-09
-9.597357244e-09
-9.960146105e-09
-1.090457118e-08
-1.205338901e-08
-1.351701932e-08
-1.567421451e-08
-1.554538553e-08
-1.404997433e-08
-1.457960971e-08
-1.56897435e-08
-1.646123076e-08
-1.677463688e-08
-1.594313474e-08
-1.525161176e-08
-1.570489886e-08
-1.680337836e-08
-1.813739337e-08
-1.674948829e-08
-1.549787435e-08
-1.68835855e-08
-1.83203449e-08
-1.990606616e-08
-2.105348875e-08
-2.163222809e-08
-2.241781061e-08
-2.299457174e-08
-2.3578744e-08
-2.611334353e-08
-2.920386187e-08
-2.972278967e-08
-2.92677943e-08
-3.003561966e-08
-3.231775832e-08
-3.485552084e-08
-3.600941534e-08
-3.672579207e-08
-4.037253686e-08
-4.351779983e-08
-4.353294431e-08
-4.786558103e-08
-5.448711361e-08
-5.840587762e-08
-6.046443223e-08
-6.450390574e-08
-6.989046146e-08
-6.379136261e-08
2.989492851e-08
1.433978694e-07
1.454969826e-07
1.236337115e-07
1.613913491e-07
1.944612991e-07
)


100
(
-1.247896143e-09
-1.262162794e-09
-1.229993119e-09
-1.198620121e-09
-1.182686877e-09
-1.151584138e-09
-1.131729246e-09
-1.1462419e-09
-1.19063713e-09
-1.276115735e-09
-1.413819424e-09
-1.504189367e-09
-1.609671274e-09
-1.829151968e-09
-1.963692904e-09
-1.996508183e-09
-2.105312229e-09
-2.315028025e-09
-2.307733294e-09
-2.161507843e-09
-2.212891919e-09
-2.355351846e-09
-2.372554639e-09
-2.195370307e-09
-2.140839576e-09
-2.285425875e-09
-2.461958392e-09
-2.568702126e-09
-2.496036699e-09
-2.57911805e-09
-2.95624961e-09
-3.447251514e-09
-4.130318068e-09
-4.422560865e-09
-4.550498249e-09
-5.089833674e-09
-5.671539439e-09
-6.491326965e-09
-6.960509512e-09
-6.588491372e-09
-6.484255252e-09
-7.17860424e-09
-8.084918603e-09
-8.978532485e-09
-9.18588086e-09
-9.268738742e-09
-1.035146061e-08
-1.173747212e-08
-1.306130881e-08
-1.482744878e-08
-1.545537852e-08
-1.473980084e-08
-1.47767237e-08
-1.594726437e-08
-1.732630794e-08
-1.783715191e-08
-1.610447874e-08
-1.513626411e-08
-1.614903484e-08
-1.630302461e-08
-1.721454247e-08
-1.804120943e-08
-1.690448893e-08
-1.624245985e-08
-1.774958614e-08
-1.931626581e-08
-1.969514503e-08
-2.027226353e-08
-2.160372485e-08
-2.291461542e-08
-2.387210102e-08
-2.423969993e-08
-2.483759218e-08
-2.653223296e-08
-2.948940273e-08
-3.209862953e-08
-3.296259604e-08
-3.321172788e-08
-3.340188744e-08
-3.596249258e-08
-3.927864935e-08
-4.022134311e-08
-4.124129395e-08
-4.40406886e-08
-4.685931782e-08
-4.794938731e-08
-5.166410384e-08
-5.870185089e-08
-6.143294593e-08
-6.433748593e-08
-6.891852269e-08
-7.509236473e-08
-7.850474247e-08
-5.993132082e-08
5.329824144e-08
1.59941847e-07
1.486638065e-07
1.317934518e-07
1.726172574e-07
2.072992336e-07
)


100
(
-1.152849183e-09
-1.170771055e-09
-1.151901997e-09
-1.141109598e-09
-1.148594751e-09
-1.143445182e-09
-1.150734718e-09
-1.200946861e-09
-1.294952236e-09
-1.407179497e-09
-1.562894087e-09
-1.761203331e-09
-1.871243677e-09
-1.994465163e-09
-2.235065822e-09
-2.346587929e-09
-2.328492701e-09
-2.412391332e-09
-2.598845707e-09
-2.610415857e-09
-2.445685105e-09
-2.447791293e-09
-2.600255828e-09
-2.745647164e-09
-2.61666642e-09
-2.521901316e-09
-2.768558114e-09
-3.089806095e-09
-3.523776956e-09
-3.77087549e-09
-3.929717805e-09
-4.418844358e-09
-5.096220443e-09
-5.931732374e-09
-6.753186828e-09
-6.800004436e-09
-6.750915361e-09
-7.275561543e-09
-8.117882123e-09
-9.099230475e-09
-9.209702495e-09
-8.764111598e-09
-9.391347026e-09
-1.07372425e-08
-1.199435748e-08
-1.352026471e-08
-1.441810835e-08
-1.464142447e-08
-1.529983642e-08
-1.609585216e-08
-1.738703348e-08
-1.858822869e-08
-1.682700244e-08
-1.491669812e-08
-1.59394241e-08
-1.697596308e-08
-1.726869269e-08
-1.776479531e-08
-1.703291627e-08
-1.626884286e-08
-1.68450118e-08
-1.8715468e-08
-2.061539303e-08
-1.920918036e-08
-1.891821982e-08
-2.134957193e-08
-2.329696779e-08
-2.4872909e-08
-2.544592384e-08
-2.580527203e-08
-2.683493392e-08
-2.80558999e-08
-2.942765284e-08
-3.138082526e-08
-3.33678164e-08
-3.473032135e-08
-3.594927341e-08
-3.79321853e-08
-4.123470408e-08
-4.380124304e-08
-4.37682975e-08
-4.375493744e-08
-4.737614846e-08
-5.178880038e-08
-5.357868741e-08
-5.476862577e-08
-5.816662425e-08
-6.233068742e-08
-6.797143083e-08
-7.319734726e-08
-7.719900195e-08
-8.411410763e-08
-8.759583695e-08
-5.914458448e-08
7.069759945e-08
1.711274671e-07
1.513956788e-07
1.375068592e-07
1.873980711e-07
2.305533717e-07
)


100
(
-1.069677795e-09
-1.087197846e-09
-1.074707634e-09
-1.085733276e-09
-1.10742667e-09
-1.126847473e-09
-1.166777549e-09
-1.245499403e-09
-1.380830257e-09
-1.547995298e-09
-1.716341516e-09
-1.924406665e-09
-2.139879877e-09
-2.239210952e-09
-2.351559473e-09
-2.586181727e-09
-2.682541701e-09
-2.622821874e-09
-2.677949266e-09
-2.853549416e-09
-2.925828392e-09
-2.774376651e-09
-2.73934878e-09
-2.945214454e-09
-3.185948556e-09
-3.320331446e-09
-3.383163766e-09
-3.699556371e-09
-4.255898535e-09
-4.935317231e-09
-5.781531213e-09
-6.073713667e-09
-6.210999209e-09
-6.875822324e-09
-7.729878746e-09
-8.881864543e-09
-9.252138637e-09
-8.84537356e-09
-9.098379227e-09
-1.01546988e-08
-1.136143956e-08
-1.256859475e-08
-1.293198352e-08
-1.317324362e-08
-1.431219478e-08
-1.544724771e-08
-1.664676027e-08
-1.873242808e-08
-1.84619664e-08
-1.651667601e-08
-1.643333316e-08
-1.707173283e-08
-1.753280266e-08
-1.729899616e-08
-1.631829947e-08
-1.607387742e-08
-1.695654874e-08
-1.752163441e-08
-1.943584406e-08
-2.000998914e-08
-1.823034539e-08
-1.887763239e-08
-2.11970308e-08
-2.294145263e-08
-2.459452758e-08
-2.562969375e-08
-2.614872737e-08
-2.707888846e-08
-2.803887304e-08
-2.845405484e-08
-2.9272436e-08
-3.241162052e-08
-3.57071179e-08
-3.683798446e-08
-3.753788091e-08
-3.897518526e-08
-4.055758972e-08
-4.322794521e-08
-4.612757934e-08
-4.736300506e-08
-4.837678002e-08
-5.197409464e-08
-5.605210435e-08
-5.672277712e-08
-5.822458599e-08
-6.258478765e-08
-6.699986763e-08
-7.104029308e-08
-7.208089536e-08
-7.779518342e-08
-8.557850365e-08
-8.847111264e-08
-9.083081122e-08
-5.424439205e-08
7.951968361e-08
1.732686379e-07
1.526584769e-07
1.410501513e-07
2.018284571e-07
2.541390492e-07
)


100
(
-9.75199085e-10
-9.99401866e-10
-1.003577118e-09
-1.026517593e-09
-1.059990462e-09
-1.102345419e-09
-1.175423532e-09
-1.286274531e-09
-1.449939675e-09
-1.671244995e-09
-1.880486034e-09
-2.065662359e-09
-2.300864229e-09
-2.50202976e-09
-2.568316473e-09
-2.66127039e-09
-2.886782666e-09
-2.994835515e-09
-2.911922313e-09
-2.940096766e-09
-3.132385493e-09
-3.32608438e-09
-3.241792201e-09
-3.20742496e-09
-3.544628813e-09
-3.978044461e-09
-4.570141689e-09
-4.889214334e-09
-5.20554893e-09
-5.954584762e-09
-6.779852064e-09
-7.865727825e-09
-8.537900763e-09
-8.429784898e-09
-8.636212547e-09
-9.573169873e-09
-1.084283784e-08
-1.207128425e-08
-1.210332332e-08
-1.184220406e-08
-1.298060284e-08
-1.448883526e-08
-1.583794715e-08
-1.737210173e-08
-1.783370044e-08
-1.72509976e-08
-1.725196186e-08
-1.784537902e-08
-1.88595401e-08
-1.920376966e-08
-1.699678159e-08
-1.54464841e-08
-1.63332248e-08
-1.705233624e-08
-1.7476507e-08
-1.876543765e-08
-1.898571957e-08
-1.837343633e-08
-1.956085949e-08
-2.145637602e-08
-2.287710146e-08
-2.201376636e-08
-2.256650416e-08
-2.552172818e-08
-2.747940854e-08
-2.882419517e-08
-2.937498799e-08
-2.992737658e-08
-3.113575136e-08
-3.300762176e-08
-3.59997513e-08
-3.784470999e-08
-3.854142514e-08
-3.96904609e-08
-4.062068474e-08
-4.275939528e-08
-4.638337101e-08
-4.981919047e-08
-5.21575211e-08
-5.255285928e-08
-5.391363871e-08
-5.704009189e-08
-6.02117498e-08
-6.367018861e-08
-6.957716726e-08
-7.248624171e-08
-7.096729053e-08
-7.463902961e-08
-7.99133216e-08
-8.461726076e-08
-9.589702017e-08
-9.731852245e-08
-9.290912524e-08
-4.051011734e-08
9.518029298e-08
1.703409958e-07
1.508881344e-07
1.435491692e-07
2.146192376e-07
2.766095314e-07
)


100
(
-8.787488568e-10
-9.125800213e-10
-9.34916333e-10
-9.643437387e-10
-1.0128779e-09
-1.071621031e-09
-1.168821551e-09
-1.322746299e-09
-1.514826526e-09
-1.748815852e-09
-2.035075534e-09
-2.234908994e-09
-2.397399955e-09
-2.648974438e-09
-2.828067265e-09
-2.860481063e-09
-2.945996327e-09
-3.166086323e-09
-3.312475435e-09
-3.240207433e-09
-3.260198988e-09
-3.520956806e-09
-3.82273043e-09
-4.014889076e-09
-4.170309044e-09
-4.61472138e-09
-5.314777383e-09
-6.170955017e-09
-7.056938714e-09
-7.485918531e-09
-7.89215739e-09
-8.697985322e-09
-9.846513122e-09
-1.12048793e-08
-1.113597093e-08
-1.070123506e-08
-1.179425925e-08
-1.334064309e-08
-1.474956385e-08
-1.620835119e-08
-1.63922826e-08