/*--------------------------------*- C++ -*----------------------------------*\
| =========                 |                                                 |
| \\      /  F ield         | OpenFOAM: The Open Source CFD Toolbox           |
|  \\    /   O peration     | Version:  2.3.1                                 |
|   \\  /    A nd           | Web:      www.OpenFOAM.org                      |
|    \\/     M anipulation  |                                                 |
\*---------------------------------------------------------------------------*/
FoamFile
{
    version     2.0;
    format      ascii;
    class       dictionary;
    location    "constant";
    object      DPSI35;
}
// * * * * * * * * * * * * * * * * * * * * * * * * * * * * * * * * * * * * * //

DPSI35_table
100
(

100
(
-2.000665381e-09
-1.917047168e-09
-1.722898665e-09
-1.536659288e-09
-1.392380293e-09
-1.242524962e-09
-1.104478998e-09
-9.872468221e-10
-8.752918246e-10
-7.90416008e-10
-6.806584568e-10
-5.781566499e-10
-5.307652416e-10
-4.377093327e-10
-3.642454636e-10
-3.413498107e-10
-2.654920203e-10
-1.973729633e-10
-1.90092957e-10
-1.404709277e-10
-7.692794273e-11
-5.956690987e-11
-4.268272468e-11
1.394752173e-11
5.478854134e-11
5.419049678e-11
7.383726416e-11
1.21308816e-10
1.469625693e-10
1.442468293e-10
1.69059663e-10
2.095632306e-10
2.220463328e-10
2.178977122e-10
2.265593158e-10
2.617660097e-10
2.824260837e-10
2.764429384e-10
2.812942829e-10
3.072822986e-10
3.222012222e-10
3.158800223e-10
3.189093708e-10
3.399763926e-10
3.513125908e-10
3.448055604e-10
3.397883573e-10
3.577548644e-10
3.726488368e-10
3.657763532e-10
3.631615778e-10
3.745493709e-10
3.817060578e-10
3.753092012e-10
3.751087738e-10
3.832693411e-10
3.844644652e-10
3.760067141e-10
3.730894671e-10
3.810398921e-10
3.820388013e-10
3.71903816e-10
3.694032717e-10
3.744078196e-10
3.711711852e-10
3.601214494e-10
3.591587282e-10
3.596951031e-10
3.502045888e-10
3.417056745e-10
3.395450584e-10
3.32992943e-10
3.214038973e-10
3.163928257e-10
3.091673565e-10
2.968108642e-10
2.893321419e-10
2.796167878e-10
2.672527492e-10
2.567662341e-10
2.43501579e-10
2.311670077e-10
2.177708918e-10
2.03414612e-10
1.888680859e-10
1.739020249e-10
1.587334148e-10
1.4378601e-10
1.29833502e-10
1.16132135e-10
1.020069454e-10
8.697149941e-11
7.317067486e-11
6.006161025e-11
4.71439582e-11
3.399603059e-11
2.341264136e-11
1.851087559e-11
1.235656259e-11
7.711748254e-12
)


100
(
-1.808183549e-09
-1.743182991e-09
-1.576657304e-09
-1.445773002e-09
-1.354885297e-09
-1.18215988e-09
-1.087648237e-09
-9.985915366e-10
-8.867825109e-10
-8.284667863e-10
-7.070673351e-10
-6.14407982e-10
-5.555656543e-10
-4.717933598e-10
-4.13582047e-10
-3.750547626e-10
-3.089048052e-10
-2.611706196e-10
-2.350099272e-10
-1.86059324e-10
-1.444552083e-10
-1.146119367e-10
-8.361414582e-11
-4.610913318e-11
-1.17018479e-11
1.513517673e-11
3.894282544e-11
6.15514655e-11
8.837835166e-11
1.125263448e-10
1.323523302e-10
1.512115416e-10
1.754910366e-10
1.968708442e-10
2.071421884e-10
2.145341618e-10
2.307263311e-10
2.534655955e-10
2.673265299e-10
2.722311645e-10
2.803443126e-10
2.985760123e-10
3.120899738e-10
3.15187813e-10
3.190582343e-10
3.344964257e-10
3.476623411e-10
3.480490122e-10
3.460906292e-10
3.525125519e-10
3.683543652e-10
3.743663218e-10
3.716302258e-10
3.745193811e-10
3.86207676e-10
3.920201345e-10
3.864312504e-10
3.723389327e-10
3.211039638e-10
2.21386853e-10
2.774456167e-10
4.809243433e-10
4.588190037e-10
2.640480421e-10
2.84234107e-10
4.691129318e-10
4.050996268e-10
2.33762682e-10
3.318760161e-10
4.542496705e-10
3.204303095e-10
2.389320582e-10
4.076273314e-10
3.217563536e-10
1.582993182e-10
3.777878155e-10
3.585055284e-10
1.717031806e-10
3.654173165e-10
3.040308923e-10
1.947687086e-10
3.189174917e-10
1.476574962e-10
2.677122088e-10
2.741801264e-10
1.361181988e-10
2.319273912e-10
1.112855221e-10
1.245089591e-10
1.143764745e-10
4.912223868e-11
1.8920569e-11
2.456868121e-12
-2.034180166e-11
-1.575901705e-11
3.022833787e-11
1.133414691e-10
9.102889909e-10
1.382703558e-09
1.183510459e-09
)


100
(
-1.62055899e-09
-1.581695488e-09
-1.454724982e-09
-1.398425694e-09
-1.324717879e-09
-1.184528371e-09
-1.085562007e-09
-1.007572099e-09
-9.15951407e-10
-8.495474745e-10
-7.708521494e-10
-6.714126568e-10
-6.09398381e-10
-5.344124456e-10
-4.694324833e-10
-4.272900039e-10
-3.770894759e-10
-3.225705769e-10
-2.846479103e-10
-2.461614915e-10
-2.027330063e-10
-1.670356858e-10
-1.326410706e-10
-9.765095403e-11
-6.543504105e-11
-3.333101818e-11
-6.591398095e-13
2.542528773e-11
4.496618902e-11
6.783681552e-11
9.760951427e-11
1.217721867e-10
1.374398465e-10
1.557950288e-10
1.814753122e-10
2.021552352e-10
2.117343443e-10
2.171534876e-10
2.320541101e-10
2.562602527e-10
2.694366892e-10
2.720383402e-10
2.738668761e-10
2.945362938e-10
3.1720972e-10
3.227073567e-10
3.226057988e-10
3.305669628e-10
3.506112533e-10
3.599604182e-10
3.480902926e-10
3.179679656e-10
3.270109243e-10
3.554678741e-10
3.50965823e-10
3.103579103e-10
3.272437445e-10
3.716123542e-10
3.393901412e-10
2.058207958e-10
8.920577099e-11
1.696736251e-10
3.600478743e-10
4.593799625e-10
3.558352209e-10
2.713379169e-10
3.310829087e-10
3.919446207e-10
3.575497635e-10
3.275846973e-10
3.682560439e-10
3.660662622e-10
3.368060623e-10
3.039026403e-10
2.020753484e-10
9.106671202e-11
2.065092595e-10
3.629948829e-10
2.322737025e-10
2.023509769e-10
2.621049107e-10
1.488186107e-10
9.661564006e-11
1.212724632e-10
8.98749296e-11
4.362873471e-11
3.563757227e-11
-3.387294301e-12
-4.499134602e-11
-7.125201089e-11
-9.660479162e-11
-1.44777364e-10
-1.859360125e-10
-2.022105074e-10
-2.209360495e-10
-1.903336189e-10
7.798685518e-10
2.405611995e-09
2.778770126e-09
2.440312895e-09
)


100
(
-1.457208337e-09
-1.434237184e-09
-1.381914663e-09
-1.347993806e-09
-1.267450984e-09
-1.192627748e-09
-1.102386642e-09
-1.031531313e-09
-9.701973285e-10
-8.874452294e-10
-8.223488584e-10
-7.321364434e-10
-6.610683893e-10
-6.002338883e-10
-5.28571234e-10
-4.747766626e-10
-4.294928688e-10
-3.809925575e-10
-3.33928755e-10
-2.932263551e-10
-2.533280667e-10
-2.147352133e-10
-1.798409405e-10
-1.426475861e-10
-1.066833033e-10
-7.700341859e-11
-4.8833674e-11
-1.546587618e-11
1.535701841e-11
3.633992839e-11
5.314607049e-11
7.886732736e-11
1.07616878e-10
1.259473045e-10
1.38110177e-10
1.544524274e-10
1.82116721e-10
2.058537963e-10
2.126926161e-10
2.066868325e-10
2.091998689e-10
2.332723801e-10
2.463532666e-10
2.361052035e-10
2.101266202e-10
2.366367716e-10
2.822431607e-10
2.764238733e-10
2.241508255e-10
2.46403988e-10
3.14109861e-10
3.057843083e-10
2.470743056e-10
2.559769763e-10
3.362585863e-10
3.373268864e-10
2.434548296e-10
2.430261337e-10
3.51408793e-10
3.293292264e-10
2.077664527e-10
1.556862366e-10
2.173850365e-10
3.130158219e-10
3.82791047e-10
3.680507013e-10
3.212613465e-10
3.105699077e-10
2.863464416e-10
2.793641332e-10
2.83448194e-10
2.620766093e-10
2.289615041e-10
1.587064199e-10
1.686357879e-10
2.970095864e-10
1.755081858e-10
-2.945332261e-11
1.465210375e-10
2.048724591e-10
1.788152861e-11
-6.665446402e-12
2.748037537e-11
-2.375156124e-11
-7.725379301e-11
-6.965709079e-11
-6.796045474e-11
-1.023682733e-10
-1.392510721e-10
-1.946694791e-10
-2.621694346e-10
-2.645182674e-10
-3.717672265e-10
-4.840436348e-10
-4.843887842e-10
-4.561999898e-10
1.557218391e-09
3.719296941e-09
3.696455361e-09
3.3800902e-09
)


100
(
-1.351418175e-09
-1.326522852e-09
-1.283156626e-09
-1.274603057e-09
-1.252469773e-09
-1.193859448e-09
-1.119678792e-09
-1.051283205e-09
-9.983326781e-10
-9.274824441e-10
-8.623707317e-10
-7.965009828e-10
-7.105315076e-10
-6.459696116e-10
-5.867893542e-10
-5.221659281e-10
-4.710024316e-10
-4.273047431e-10
-3.830591831e-10
-3.386022307e-10
-2.986189876e-10
-2.61546198e-10
-2.254818436e-10
-1.909333351e-10
-1.537562705e-10
-1.17661129e-10
-9.020567846e-11
-6.94776224e-11
-4.21734121e-11
-7.39071094e-12
1.996757846e-11
3.31491729e-11
3.894097182e-11
6.568982754e-11
9.603579199e-11
1.000014129e-10
8.293002099e-11
1.077641208e-10
1.579374687e-10
1.639389515e-10
1.434342821e-10
1.238764566e-10
1.690663815e-10
2.160131481e-10
1.85376094e-10
1.088701423e-10
1.636271821e-10
2.653424169e-10
2.252497082e-10
1.405789189e-10
1.82834089e-10
2.846031381e-10
2.560773996e-10
1.84690564e-10
2.185043518e-10
3.092720643e-10
2.617827263e-10
1.803691293e-10
2.096212955e-10
2.756498719e-10
2.790640431e-10
2.39233394e-10
2.463165981e-10
2.914849047e-10
3.141385614e-10
2.928747607e-10
2.213054077e-10
2.080981358e-10
2.470394347e-10
2.195416565e-10
1.657417348e-10
1.548793441e-10
2.814331208e-10
4.072440342e-10
1.757081381e-10
-9.461232901e-11
5.402516955e-11
1.599530062e-10
6.81714391e-12
-9.984874383e-11
-7.72622149e-11
6.741501159e-11
1.087870685e-10
-5.08884141e-11
-1.251041971e-10
-2.005981092e-10
-2.542332925e-10
-1.484790145e-10
9.05001029e-12
-1.819615364e-10
-5.685781903e-10
-4.338326138e-10
-4.776362335e-10
-7.22488111e-10
-7.315774782e-10
-5.760234634e-10
2.142234352e-09
4.435440448e-09
4.080118711e-09
3.810796134e-09
)


100
(
-1.247906261e-09
-1.22668895e-09
-1.19780304e-09
-1.213992162e-09
-1.232586554e-09
-1.188765383e-09
-1.131663469e-09
-1.072507263e-09
-1.019940309e-09
-9.704155013e-10
-8.934585118e-10
-8.322404642e-10
-7.662657883e-10
-6.882133719e-10
-6.288967609e-10
-5.740892326e-10
-5.146281709e-10
-4.672766697e-10
-4.284741532e-10
-3.882863696e-10
-3.478761951e-10
-3.12108105e-10
-2.789074085e-10
-2.444480522e-10
-2.105876895e-10
-1.748405104e-10
-1.390497034e-10
-1.162447743e-10
-1.083207266e-10
-9.776414281e-11
-6.101051596e-11
-2.257389854e-11
-1.577745592e-11
-3.22347053e-11
3.458025734e-12
6.010085643e-11
5.95678092e-11
-8.17718517e-13
2.686017283e-11
1.205706793e-10
1.24681543e-10
6.596287352e-11
4.788585458e-11
1.3721721e-10
1.876119187e-10
9.74521123e-11
7.770452336e-12
1.251419249e-10
2.292575486e-10
1.472957903e-10
7.911999024e-11
1.466033636e-10
2.227935062e-10
1.945691416e-10
1.559541572e-10
1.8363122e-10
2.194913642e-10
2.518152797e-10
2.803761529e-10
2.513690476e-10
2.25140015e-10
2.612457129e-10
2.884813223e-10
2.350253583e-10
1.606772876e-10
1.682733835e-10
2.204709213e-10
1.860538715e-10
1.215490038e-10
1.099821281e-10
1.882303425e-10
2.805134676e-10
2.838008043e-10
1.83963566e-10
2.126963794e-10
1.501516775e-10
-6.080394141e-11
-7.97795521e-11
6.726192887e-11
2.52832351e-10
1.872613384e-10
-1.203087166e-10
-1.830669245e-10
-6.830269767e-11
-2.815505613e-11
-1.020316003e-10
-1.960965863e-10
3.458129266e-11
-4.873587995e-11
-4.3407025e-10
-3.798321542e-10
-3.950995852e-10
-6.32549893e-10
-7.463146806e-10
-9.233748263e-10
-2.796205246e-10
2.30107387e-09
4.025240262e-09
3.895069127e-09
3.743845787e-09
)


100
(
-1.126202495e-09
-1.121742981e-09
-1.119296146e-09
-1.172870241e-09
-1.20205913e-09
-1.173236374e-09
-1.131285623e-09
-1.085317586e-09
-1.029363268e-09
-9.886914856e-10
-9.330002141e-10
-8.600634706e-10
-8.040633753e-10
-7.376668333e-10
-6.678197578e-10
-6.158921217e-10
-5.666721716e-10
-5.142885948e-10
-4.734491039e-10
-4.408429104e-10
-4.05646478e-10
-3.721800074e-10
-3.451207202e-10
-3.160639268e-10
-2.81194369e-10
-2.468439584e-10
-2.072164964e-10
-1.664390445e-10
-1.49444461e-10
-1.595470572e-10
-1.632336744e-10
-1.13584678e-10
-6.233930956e-11
-7.514051317e-11
-1.046431337e-10
-4.767248346e-11
2.54199543e-11
-1.047651044e-11
-8.361343841e-11
-2.482578467e-11
8.162353868e-11
6.12087247e-11
-1.099687612e-11
-1.081726525e-12
1.069005067e-10
9.982398117e-11
7.727815461e-12
-1.504427751e-11
8.96328404e-11
1.42154611e-10
8.542434394e-11
8.742850666e-11
1.414804853e-10
2.279074556e-10
2.701729037e-10
2.650632554e-10
2.285800451e-10
2.030137373e-10
2.38696718e-10
2.678536875e-10
2.211344101e-10
1.441395673e-10
1.109846893e-10
1.69768834e-10
1.955508403e-10
1.577082541e-10
2.038893932e-10
2.531929698e-10
2.779426757e-10
3.085090371e-10
2.578447493e-10
1.27641528e-10
9.497751982e-11
1.29705289e-10
9.008621457e-11
1.867073895e-10
2.832427266e-10
3.02543004e-10
2.343548899e-10
-2.083976777e-11
-8.451377995e-11
5.927726294e-11
1.738231417e-10
1.106094686e-10
-4.847475614e-11
-4.544618186e-11
5.365562817e-11
2.227857155e-10
1.132758963e-10
-3.384030674e-10
-4.34394118e-10
-3.783065226e-10
-5.023218944e-10
-6.753514306e-10
-1.043297198e-09
-1.772170294e-10
2.003558488e-09
3.054986216e-09
3.178167859e-09
3.235202892e-09
)


100
(
-9.95096354e-10
-1.016188654e-09
-1.054649296e-09
-1.125662233e-09
-1.158447959e-09
-1.155066591e-09
-1.1202593e-09
-1.086294835e-09
-1.047634379e-09
-9.962826969e-10
-9.558845509e-10
-8.913860465e-10
-8.301239738e-10
-7.808907963e-10
-7.163663376e-10
-6.558803941e-10
-6.127234134e-10
-5.712499049e-10
-5.294723444e-10
-4.981089917e-10
-4.711460785e-10
-4.403424501e-10
-4.147433763e-10
-3.980364036e-10
-3.677652319e-10
-3.222565765e-10
-2.780733352e-10
-2.26916172e-10
-1.857130187e-10
-1.840359655e-10
-2.259776395e-10
-2.280282479e-10
-1.504944119e-10
-1.018620087e-10
-1.460086272e-10
-1.73659733e-10
-8.521105447e-11
-2.20679985e-11
-9.199992375e-11
-1.563981198e-10
-7.146416639e-11
2.384569687e-11
-1.656491348e-11
-7.210319907e-11
-2.904278046e-11
4.021114193e-11
3.291842424e-11
1.127316153e-11
4.711207165e-11
1.234784577e-10
1.939195288e-10
2.226122671e-10
2.187427099e-10
1.813830867e-10
1.451619768e-10
1.906325326e-10
2.406012152e-10
2.012236948e-10
1.404278341e-10
1.271418392e-10
1.808697028e-10
1.956735161e-10
1.780187389e-10
2.620538635e-10
3.429610376e-10
3.278295399e-10
3.407008105e-10
3.597882676e-10
2.324752433e-10
1.011297474e-10
1.35347714e-10
1.668251393e-10
2.326994018e-10
3.794267633e-10
3.842921617e-10
3.799887057e-10
2.884304189e-10
7.360497074e-11
4.697675391e-11
2.24836207e-10
3.699393003e-10
3.20729476e-10
1.996258661e-10
1.674003657e-10
1.944261895e-10
2.31880746e-10
2.093619407e-10
1.957731066e-10
1.096737202e-10
-8.855263267e-11
-1.353239414e-10
-1.42424379e-10
-3.131111895e-10
-6.231470104e-10
-1.039623313e-09
-2.104912704e-10
1.36272444e-09
1.977389592e-09
2.191179659e-09
2.248254352e-09
)


100
(
-8.858739374e-10
-9.247375018e-10
-9.899746468e-10
-1.068371024e-09
-1.115831059e-09
-1.125306012e-09
-1.10623985e-09
-1.074908688e-09
-1.049414967e-09
-1.00241813e-09
-9.639846079e-10
-9.270398783e-10
-8.574237376e-10
-8.080202129e-10
-7.6666528e-10
-7.082529018e-10
-6.574491024e-10
-6.238080434e-10
-5.934193558e-10
-5.630073005e-10
-5.400033681e-10
-5.131316281e-10
-4.79403131e-10
-4.56214773e-10
-4.454650186e-10
-4.18340811e-10
-3.643819304e-10
-3.040461399e-10
-2.414858946e-10
-2.058266255e-10
-2.318054095e-10
-2.974413563e-10
-2.849812326e-10
-1.89052595e-10
-1.653983342e-10
-2.217358184e-10
-2.250865138e-10
-1.240208525e-10
-1.000012156e-10
-1.70303133e-10
-1.88133757e-10
-1.048431146e-10
-4.043655017e-11
-5.955368889e-11
-5.118097088e-11
8.605947519e-12
9.600529987e-11
1.519231556e-10
1.711592566e-10
1.671644555e-10
1.393173063e-10
1.359156335e-10
1.821413752e-10
2.080044938e-10
1.599915004e-10
1.004300776e-10
9.80103026e-11
1.505303117e-10
1.812303784e-10
1.895441621e-10
2.796157519e-10
3.725498923e-10
3.884124441e-10
4.13833132e-10
4.344555118e-10
3.443884659e-10
2.200754384e-10
2.100957341e-10
2.444511586e-10
2.59374836e-10
3.962202707e-10
5.009198282e-10
4.905644497e-10
5.078214107e-10
3.68013623e-10
1.947469793e-10
2.212341877e-10
3.739151284e-10
4.943846035e-10
4.830540497e-10
3.981289246e-10
3.416419123e-10
3.915372902e-10
4.466335642e-10
4.582553994e-10
3.534391453e-10
3.100847682e-10
2.85349199e-10
1.605769118e-10
1.016057795e-10
6.612988315e-11
-7.255177974e-11
-2.902661186e-10
-5.665800229e-10
-9.550209898e-10
-2.111219648e-10
8.647795675e-10
1.10202988e-09
1.287029423e-09
1.357642614e-09
)


100
(
-8.04360604e-10
-8.450235768e-10
-9.168972937e-10
-1.003998594e-09
-1.073163653e-09
-1.08701441e-09
-1.082422972e-09
-1.060239587e-09
-1.041538971e-09
-1.019298835e-09
-9.635189813e-10
-9.3588963e-10
-9.029246418e-10
-8.362435208e-10
-7.979638943e-10
-7.651022041e-10
-7.163091402e-10
-6.792526806e-10
-6.520719316e-10
-6.224554146e-10
-5.986057845e-10
-5.817893536e-10
-5.543776081e-10
-5.15937005e-10
-4.912226647e-10
-4.850726459e-10
-4.675607281e-10
-4.10471861e-10
-3.33896955e-10
-2.638905007e-10
-2.366862232e-10
-2.981343519e-10
-3.699464792e-10
-3.297155766e-10
-2.347224582e-10
-2.397824648e-10
-2.899276711e-10
-2.592209928e-10
-1.767676194e-10
-1.545914198e-10
-1.749098634e-10
-1.45496981e-10
-6.009061999e-11
3.054777862e-11
7.386781282e-11
9.011682546e-11
9.226311169e-11
9.769175633e-11
1.332882754e-10
1.726218411e-10
1.660189884e-10
1.171199555e-10
8.231073184e-11
1.049889546e-10
1.578546337e-10
1.731473933e-10
1.851325992e-10
2.756679638e-10
3.791717675e-10
4.159295933e-10
4.372148956e-10
4.568185129e-10
4.004301495e-10
3.186923397e-10
3.228742505e-10
3.565072806e-10
3.318907552e-10
3.787441614e-10
5.221184331e-10
5.94019867e-10
6.223029961e-10
6.010501907e-10
4.688797785e-10
3.86527186e-10
4.07436656e-10
5.007308362e-10
6.001433025e-10
6.021444778e-10
5.527874999e-10
5.238657892e-10
5.40474016e-10
5.62319187e-10
5.742642673e-10
5.274938796e-10
4.632187138e-10
4.382895603e-10
4.206888463e-10
3.56449086e-10
2.656897814e-10
2.168163245e-10
9.766285198e-11
-3.93626875e-11
-2.694028171e-10
-6.264202853e-10
-8.079405861e-10
-1.780981474e-10
5.043084516e-10
5.760875669e-10
6.13853067e-10
6.129949779e-10
)


100
(
-7.311153983e-10
-7.728203251e-10
-8.481377961e-10
-9.467578852e-10
-1.022451775e-09
-1.044730251e-09
-1.049113026e-09
-1.044959412e-09
-1.023774566e-09
-1.013046784e-09
-9.851144987e-10
-9.371060075e-10
-9.159207531e-10
-8.855070765e-10
-8.309722298e-10
-8.020273362e-10
-7.758791437e-10
-7.382065615e-10
-7.083007683e-10
-6.812344284e-10
-6.516733042e-10
-6.306695563e-10
-6.186998847e-10
-5.933120422e-10
-5.5279606e-10
-5.248994222e-10
-5.222350646e-10
-5.14914769e-10
-4.630363012e-10
-3.762817305e-10
-2.951016403e-10
-2.939422124e-10
-3.750705598e-10
-4.224237434e-10
-3.656378779e-10
-2.925906586e-10
-2.875536234e-10
-2.849233594e-10
-2.322231665e-10
-1.44087254e-10
-6.778207276e-11
-2.344208232e-11
2.021378903e-12
2.422512567e-11
5.408444804e-11
9.053735638e-11
1.098307733e-10
9.036111599e-11
6.075455573e-11
6.847852435e-11
1.154509768e-10
1.482963477e-10
1.467913976e-10
1.59311802e-10
2.310846743e-10
3.507557228e-10
4.385793042e-10
4.911818526e-10
5.185497845e-10
4.727062333e-10
4.098089448e-10
4.043302059e-10
4.143497984e-10
3.827066283e-10
3.841601197e-10
5.154501448e-10
6.527845691e-10
6.992691119e-10
7.06170139e-10
6.48458284e-10
5.942065592e-10
5.91244017e-10
5.729285445e-10
6.13230949e-10
6.940896759e-10
6.984954341e-10
6.737425222e-10
6.664268242e-10
6.594743997e-10
6.456871398e-10
6.385732156e-10
6.228683096e-10
5.880108548e-10
5.331221373e-10
5.120982744e-10
4.883982104e-10
4.127467147e-10
3.459804388e-10
2.938908727e-10
2.157789575e-10
1.109437989e-10
-3.966702411e-11
-3.086662061e-10
-5.412246061e-10
-6.219501531e-10
-1.945246989e-10
2.417237564e-10
2.745322112e-10
2.19423293e-10
1.326923384e-10
)


100
(
-6.533752921e-10
-7.001906805e-10
-7.829207371e-10
-8.899510994e-10
-9.662040533e-10
-1.001323499e-09
-1.007797137e-09
-1.016775052e-09
-1.015926307e-09
-9.982652141e-10
-9.877275268e-10
-9.54194235e-10
-9.200139843e-10
-9.077582658e-10
-8.822401522e-10
-8.363649705e-10
-8.125605309e-10
-7.927788256e-10
-7.632954657e-10
-7.366373792e-10
-7.09602175e-10
-6.80277556e-10
-6.60329644e-10
-6.529660494e-10
-6.319826308e-10
-5.919477396e-10
-5.604088739e-10
-5.560920118e-10
-5.514301888e-10
-5.080626361e-10
-4.292601582e-10
-3.510587152e-10
-3.585860442e-10
-4.239358623e-10
-4.269095732e-10
-3.576052171e-10
-2.746557356e-10
-2.12614426e-10
-1.593590874e-10
-1.078971279e-10
-5.336931501e-11
-2.914473842e-12
3.487095758e-11
4.314153181e-11
2.835731753e-11
2.782631883e-11
5.539010119e-11
8.369751736e-11
8.681924712e-11
8.267514049e-11
1.114603361e-10
1.921433829e-10
3.089047893e-10
4.148829398e-10
4.856777425e-10
5.088975689e-10
5.016767495e-10
5.05638369e-10
5.103956725e-10
5.023627423e-10
4.668698245e-10
4.443855751e-10
5.069769909e-10
6.23238002e-10
7.019369564e-10
7.364766945e-10
7.541014315e-10
7.661282608e-10
7.425959995e-10
6.89022978e-10
6.693354792e-10
7.16894645e-10
7.677304069e-10
7.73573703e-10
7.894849162e-10
7.909434574e-10
7.435992174e-10
6.906086994e-10
6.722541384e-10
6.726470958e-10
6.666687013e-10
6.269713045e-10
5.696814831e-10
5.091661888e-10
4.870328644e-10
4.48408346e-10
4.016353823e-10
3.491414598e-10
2.661985141e-10
2.145694566e-10
1.034614336e-10
-6.682029723e-11
-2.776639443e-10
-4.861640023e-10
-5.113516733e-10
-1.932479971e-10
6.946408747e-11
7.082651866e-11
-8.111095126e-11
-2.237758275e-10
)


100
(
-5.689495104e-10
-6.262770419e-10
-7.261275005e-10
-8.297918731e-10
-9.052361288e-10
-9.51566238e-10
-9.710702932e-10
-9.786956444e-10
-9.931117497e-10
-9.834852922e-10
-9.757244356e-10
-9.68941386e-10
-9.343973076e-10
-9.122260261e-10
-9.064244522e-10
-8.851489304e-10
-8.458690243e-10
-8.252833803e-10
-8.110796643e-10
-7.878075329e-10
-7.644731376e-10
-7.370681021e-10
-7.085184901e-10
-6.899729687e-10
-6.851029926e-10
-6.683828582e-10
-6.318200604e-10
-5.976862647e-10
-5.848775197e-10
-5.758573195e-10
-5.391458037e-10
-4.671523022e-10
-4.031393065e-10
-3.811477485e-10
-3.630081229e-10
-3.158504209e-10
-2.439268181e-10
-1.798827543e-10
-1.288853601e-10
-8.726714038e-11
-6.390576949e-11
-3.789056296e-11
-8.517531423e-12
1.978730266e-11
3.489021135e-11
2.83309046e-11
3.124383372e-11
7.529956572e-11
1.421808714e-10
2.153727758e-10
3.138051892e-10
4.100494715e-10
4.745698654e-10
5.443028438e-10
5.634533621e-10
5.488278428e-10
5.476529383e-10
5.171301587e-10
5.118151488e-10
5.623051352e-10
6.074653522e-10
6.606147236e-10
7.319762962e-10
7.977967314e-10
8.729477958e-10
8.445410117e-10
7.845173392e-10
7.783838564e-10
7.78050556e-10
7.980053997e-10
8.043712608e-10
8.109984156e-10
8.306532696e-10
8.286041526e-10
7.945093828e-10
7.626431708e-10
7.378474358e-10
7.187974631e-10
7.174238222e-10
6.941005906e-10
6.066279709e-10
5.239081118e-10
5.124082898e-10
5.156338659e-10
4.708573011e-10
3.934069637e-10
3.535070096e-10
3.100011037e-10
2.397361486e-10
1.785840487e-10
9.792309568e-11
-4.291971784e-11
-2.496188955e-10
-4.768014721e-10
-4.419761087e-10
-1.732625805e-10
-3.593272422e-11
-4.382085662e-11
-2.748915195e-10
-4.720185858e-10
)


100
(
-5.013042691e-10
-5.633983231e-10
-6.661678539e-10
-7.651950403e-10
-8.487713436e-10
-8.957421253e-10
-9.263488842e-10
-9.387563084e-10
-9.591286726e-10
-9.755303944e-10
-9.556024226e-10
-9.584706903e-10
-9.562880302e-10
-9.219552871e-10
-9.084959355e-10
-9.077949547e-10
-8.903675194e-10
-8.568285644e-10
-8.386843189e-10
-8.300179614e-10
-8.116025167e-10
-7.908965311e-10
-7.646440044e-10
-7.374693745e-10
-7.186762392e-10
-7.116229845e-10
-6.972992916e-10
-6.627045947e-10
-6.242669962e-10
-5.946160555e-10
-5.648778315e-10
-5.14930885e-10
-4.375402741e-10
-3.669558366e-10
-3.160857548e-10
-2.67240053e-10
-2.231992064e-10
-1.748860455e-10
-1.31054503e-10
-1.056174155e-10
-8.292147593e-11
-6.378807184e-11
-5.025609806e-11
-1.923330703e-11
2.08449384e-11
6.008903712e-11
1.137348258e-10
1.900331588e-10
2.949857924e-10
4.228460693e-10
5.002319115e-10
5.254814621e-10
5.518187278e-10
5.687478218e-10
5.800488052e-10
6.108646285e-10
5.93789316e-10
5.80201519e-10
6.315651528e-10
6.828702008e-10
7.872074024e-10
8.807494685e-10
8.66146512e-10
8.430363892e-10
8.840031616e-10
9.143972325e-10
8.830292359e-10
8.303659262e-10
8.143029289e-10
8.28449691e-10
8.482228115e-10
8.50608744e-10
8.368920753e-10
8.104677138e-10
7.749586998e-10
7.539880926e-10
7.219571985e-10
6.874977803e-10
6.617144045e-10
5.964652493e-10
5.34661794e-10
5.356455272e-10
5.324929271e-10
4.412728033e-10
3.581742583e-10
3.756950721e-10
3.587166995e-10
2.612224011e-10
1.928462305e-10
1.457464313e-10
7.053234936e-11
-7.005607728e-11
-2.599768004e-10
-3.99661574e-10
-3.377159271e-10
-1.882396721e-10
-9.869105102e-11
-8.538985912e-11
-4.837397062e-10
-8.367945351e-10
)


100
(
-4.479636799e-10
-5.073519365e-10
-6.067554601e-10
-7.043394476e-10
-7.894113954e-10
-8.395287302e-10
-8.75687812e-10
-9.035043952e-10
-9.157764975e-10
-9.428461762e-10
-9.548257906e-10
-9.382401224e-10
-9.436624494e-10
-9.42564032e-10
-9.144843009e-10
-9.063830711e-10
-9.100358842e-10
-8.965825701e-10
-8.701244235e-10
-8.541669461e-10
-8.486300003e-10
-8.343953678e-10
-8.160715568e-10
-7.900557033e-10
-7.643339864e-10
-7.436040467e-10
-7.26303012e-10
-7.055762504e-10
-6.628379081e-10
-6.103510094e-10
-5.59101409e-10
-5.033892559e-10
-4.409505833e-10
-3.688635313e-10
-2.961463255e-10
-2.554989494e-10
-2.254254477e-10
-1.905749223e-10
-1.625474896e-10
-1.267967601e-10
-1.001225993e-10
-8.418286699e-11
-5.251947267e-11
-9.852964566e-12
4.890042186e-11
1.529726746e-10
2.686504938e-10
3.622324359e-10
4.514301314e-10
5.172837766e-10
5.745206825e-10
6.402304571e-10
6.129166908e-10
5.678944985e-10
6.0586499e-10
6.384235339e-10
6.809550622e-10
7.703130059e-10
7.878023488e-10
7.85869341e-10
8.364040908e-10
9.347725479e-10
1.033380857e-09
9.410430347e-10
8.645512676e-10
8.877335622e-10
8.734688261e-10
8.703109489e-10
8.675405916e-10
8.749908719e-10
8.846757459e-10
8.52400358e-10
7.762154718e-10
7.123547576e-10
6.825847085e-10
6.835944737e-10
6.945733728e-10
6.697394914e-10
6.166986333e-10
5.689102779e-10
5.090171438e-10
4.726696324e-10
4.356771626e-10
3.906171595e-10
3.955277821e-10
3.573031182e-10
2.748440773e-10
2.125186864e-10
1.797221927e-10
1.385369674e-10
4.714786612e-11
-7.929928773e-11
-2.113099062e-10
-3.164164792e-10
-3.153539986e-10
-2.434306523e-10
-1.457226211e-10
-1.131002948e-10
-5.53584171e-10
-9.449168815e-10
)


100
(
-4.030374918e-10
-4.581384811e-10
-5.511408142e-10
-6.483969023e-10
-7.284385136e-10
-7.839257356e-10
-8.196512918e-10
-8.565991149e-10
-8.844891454e-10
-9.014731788e-10
-9.282761129e-10
-9.329875866e-10
-9.221299942e-10
-9.313323636e-10
-9.330183943e-10
-9.106006196e-10
-9.050992901e-10
-9.131079296e-10
-9.055948028e-10
-8.864734007e-10
-8.69910157e-10
-8.652470489e-10
-8.551962788e-10
-8.361327271e-10
-8.113161062e-10
-7.788258095e-10
-7.480827237e-10
-7.145743599e-10
-6.722797568e-10
-6.160206851e-10
-5.410155615e-10
-4.850852318e-10
-4.368639808e-10
-3.770512153e-10
-3.247324679e-10
-2.643353876e-10
-2.285038231e-10
-2.162526459e-10
-1.896061436e-10
-1.557233163e-10
-1.197374893e-10
-6.22493116e-11
-4.566462844e-12
6.344171938e-11
1.652493348e-10
2.733644032e-10
3.81766552e-10
5.315648528e-10
5.84218581e-10
5.600674107e-10
5.916709418e-10
6.264323728e-10
6.620016171e-10
6.938001097e-10
6.844735207e-10
6.926469539e-10
7.556138865e-10
8.017932438e-10
9.338237822e-10
9.8818596e-10
8.917906391e-10
9.101841729e-10
9.853960092e-10
9.921984056e-10
9.548313471e-10
8.917669469e-10
8.485207277e-10
8.464741508e-10
8.579120293e-10
8.479692868e-10
8.128072097e-10
7.719117473e-10
7.22304864e-10
6.897127054e-10
6.868096783e-10
6.780678274e-10
6.257821981e-10
5.614091199e-10
5.195639681e-10
5.061908602e-10
4.960767906e-10
4.509343756e-10
3.99936427e-10
3.542439217e-10
3.339611445e-10
3.054817829e-10
2.502367825e-10
2.041608775e-10
1.663382058e-10
1.302973895e-10
6.164164441e-11
-4.388692345e-11
-1.737110991e-10
-3.037566681e-10
-3.167330644e-10
-2.78987132e-10
-1.98495531e-10
-1.414144994e-10
-6.042934599e-10
-1.027079795e-09
)


100
(
-3.540775528e-10
-4.089237239e-10
-5.013061031e-10
-5.931624936e-10
-6.675711524e-10
-7.266222278e-10
-7.69643737e-10
-8.03005122e-10
-8.423789132e-10
-8.641448728e-10
-8.873007509e-10
-9.135974276e-10
-9.131724635e-10
-9.079711833e-10
-9.214281083e-10
-9.26513289e-10
-9.100387147e-10
-9.049496838e-10
-9.173157327e-10
-9.176886455e-10
-9.039827835e-10
-8.826614909e-10
-8.775932608e-10
-8.706200391e-10
-8.438297795e-10
-8.124882333e-10
-7.601166724e-10
-7.126661535e-10
-6.683586944e-10
-6.093608471e-10
-5.47596085e-10
-4.72270988e-10
-4.142488344e-10
-3.893446092e-10
-3.566944891e-10
-3.105442523e-10
-2.638664838e-10
-2.139253567e-10
-1.892510047e-10
-1.673205796e-10
-1.040879836e-10
-2.407818436e-11
7.630689156e-11
2.165659875e-10
3.302391615e-10
3.933029723e-10
4.619474741e-10
5.360387443e-10
6.246807133e-10
7.059774004e-10
6.584977969e-10
6.178189612e-10
6.813871242e-10
7.27743108e-10
7.614207158e-10
8.506124282e-10
8.726515333e-10
8.411702297e-10
9.139820943e-10
1.011973735e-09
1.064310505e-09
9.562860593e-10
8.881884329e-10
9.116724626e-10
8.781493839e-10
8.665158614e-10
8.637698495e-10
8.641408328e-10
8.548399062e-10
8.20497958e-10
7.775043165e-10
7.004964077e-10
6.353175218e-10
6.26758391e-10
6.21252804e-10
5.954761378e-10
5.480556492e-10
5.258733883e-10
5.272335245e-10
4.842584364e-10
4.144541433e-10
3.556388991e-10
3.541347644e-10
3.658914545e-10
3.209471512e-10
2.586083687e-10
2.105803367e-10
1.837082379e-10
1.604314307e-10
1.177483232e-10
4.015411059e-11
-4.395315433e-11
-1.431072175e-10
-2.64505282e-10
-3.023296932e-10
-2.907391398e-10
-2.414836142e-10
-1.959270895e-10
-7.121510026e-10
-1.203225286e-09
)


100
(
-3.055040655e-10
-3.620038131e-10
-4.549640069e-10
-5.394694907e-10
-6.127876917e-10
-6.672112475e-10
-7.149092288e-10
-7.493482653e-10
-7.915983756e-10
-8.320696703e-10
-8.418446494e-10
-8.716710639e-10
-9.015665744e-10
-8.961197048e-10
-8.949410345e-10
-9.132420956e-10
-9.222669836e-10
-9.126934684e-10
-9.06267011e-10
-9.220499516e-10
-9.302661404e-10
-9.170720333e-10
-8.962834014e-10
-8.7654526e-10
-8.594000148e-10
-8.253403877e-10
-7.751733549e-10
-7.142017204e-10
-6.445187885e-10
-5.944191016e-10
-5.514323805e-10
-4.983381119e-10
-4.409714595e-10
-3.739771779e-10
-3.589439275e-10
-3.54943027e-10
-3.010938186e-10
-2.449569311e-10
-1.87103735e-10
-9.680091758e-11
-1.981017961e-11
5.743275624e-11
1.727925808e-10
2.852309028e-10
4.221778616e-10
5.875058833e-10
5.849349732e-10
5.272309229e-10
6.041866827e-10
6.80814781e-10
7.335064208e-10
7.751818984e-10
7.516645635e-10
7.308563446e-10
7.751769401e-10
8.639287389e-10
1.014886985e-09
1.001990607e-09
8.854035742e-10
9.450868349e-10
1.003551336e-09
9.67608048e-10
9.224196224e-10
8.810689053e-10
8.434758502e-10
8.220184364e-10
8.275774e-10
8.040779027e-10
7.627358862e-10
7.276336749e-10
6.838750222e-10
6.518764966e-10
6.384300848e-10
6.173135204e-10
5.881170995e-10
5.263000184e-10