/*--------------------------------*- C++ -*----------------------------------*\
| =========                 |                                                 |
| \\      /  F ield         | OpenFOAM: The Open Source CFD Toolbox           |
|  \\    /   O peration     | Version:  2.3.1                                 |
|   \\  /    A nd           | Web:      www.OpenFOAM.org                      |
|    \\/     M anipulation  |                                                 |
\*---------------------------------------------------------------------------*/
FoamFile
{
    version     2.0;
    format      ascii;
    class       dictionary;
    location    "constant";
    object      DPSI3;
}
// * * * * * * * * * * * * * * * * * * * * * * * * * * * * * * * * * * * * * //

DPSI3_table
100
(

100
(
-7.0140835e-09
-2.914965309e-09
-1.552467021e-09
1.682137152e-09
2.523926439e-09
3.982025528e-09
6.208378745e-09
6.496538142e-09
7.509717798e-09
8.127087299e-09
8.125456758e-09
9.664013823e-09
1.008348675e-08
1.040219015e-08
1.116532715e-08
1.136439939e-08
1.138161755e-08
1.180457818e-08
1.169085475e-08
1.144398354e-08
1.149302995e-08
1.127398902e-08
1.095536306e-08
1.084541017e-08
1.098409071e-08
1.067445021e-08
1.042483821e-08
1.030844368e-08
1.011473044e-08
9.601811795e-09
9.265041875e-09
9.323010229e-09
9.317066485e-09
9.008656537e-09
8.748943585e-09
8.500783121e-09
8.190937739e-09
7.705070946e-09
7.250217004e-09
6.988126914e-09
6.806029572e-09
6.434013904e-09
6.000466034e-09
5.768160874e-09
5.694422759e-09
5.435554445e-09
5.078225409e-09
4.74767973e-09
4.423306369e-09
3.984695065e-09
3.457578151e-09
3.005909855e-09
2.725279985e-09
2.372619308e-09
1.945917548e-09
1.599855299e-09
1.338378015e-09
9.419772195e-10
4.508832008e-10
-3.271762392e-11
-4.062735201e-10
-7.369467673e-10
-1.054999465e-09
-1.253038977e-09
-1.382432548e-09
-1.631898704e-09
-1.936103366e-09
-2.087210926e-09
-2.250371828e-09
-2.477061488e-09
-2.673180703e-09
-2.831897793e-09
-3.140389282e-09
-3.563037793e-09
-3.918295184e-09
-4.184651859e-09
-4.364039015e-09
-4.358917174e-09
-4.340960099e-09
-4.385464004e-09
-4.397181668e-09
-4.405612728e-09
-4.497140326e-09
-4.612725833e-09
-4.483453923e-09
-4.631215107e-09
-4.792496734e-09
-4.708514768e-09
-5.159319128e-09
-4.992624562e-09
-5.406694762e-09
-5.625610296e-09
-6.574750667e-09
-6.895076707e-09
-8.084069499e-09
-8.243613804e-09
-9.05774518e-09
-8.69457132e-09
-3.059085204e-09
-8.192387906e-10
)


100
(
-7.010527751e-09
-2.685719227e-09
-1.303958018e-09
9.502931769e-10
1.549030474e-09
3.362966806e-09
4.460842623e-09
5.409102292e-09
5.876958611e-09
6.567726887e-09
6.707283891e-09
7.600831019e-09
8.051663486e-09
8.255766946e-09
8.642719501e-09
8.770257801e-09
8.707858762e-09
8.783751318e-09
8.65075781e-09
8.335565589e-09
8.164513671e-09
7.931801936e-09
7.549036985e-09
7.246717999e-09
7.175179525e-09
6.962671344e-09
6.629194286e-09
6.346552393e-09
6.097260134e-09
5.733082907e-09
5.278805565e-09
5.066773866e-09
4.969603285e-09
4.764756746e-09
4.445847036e-09
4.109175598e-09
3.780036312e-09
3.398402372e-09
2.926011027e-09
2.477062152e-09
2.159469347e-09
1.842943232e-09
1.457369368e-09
1.072012047e-09
8.512918814e-10
6.394363716e-10
3.673002343e-10
3.071164324e-11
-2.961007283e-10
-6.149839691e-10
-9.680712665e-10
-1.361709768e-09
-1.720589084e-09
-2.006255004e-09
-2.261808733e-09
-2.512520038e-09
-2.796471873e-09
-3.046769645e-09
-3.320449087e-09
-3.68476515e-09
-4.128196565e-09
-4.466313035e-09
-4.749087103e-09
-4.966473425e-09
-5.097379959e-09
-5.202241236e-09
-5.374585692e-09
-5.540154771e-09
-5.635934238e-09
-5.764564724e-09
-5.92907983e-09
-6.089314008e-09
-6.232994756e-09
-6.482165462e-09
-6.948758459e-09
-7.519269432e-09
-7.960858347e-09
-8.259549817e-09
-8.607709837e-09
-8.828713814e-09
-9.00676858e-09
-9.418268085e-09
-9.897100189e-09
-1.03727342e-08
-1.088892376e-08
-1.123776582e-08
-1.184051584e-08
-1.23901857e-08
-1.313204695e-08
-1.446019604e-08
-1.578024908e-08
-1.713571572e-08
-1.883965163e-08
-2.181812249e-08
-2.311021994e-08
-2.531515357e-08
-2.815544362e-08
-2.007648525e-08
-9.434709401e-09
-4.20833566e-09
)


100
(
-7.007633794e-09
-3.109362418e-09
-1.512158113e-09
-1.047211499e-09
1.90513646e-11
1.659316854e-09
1.660079955e-09
2.786158965e-09
2.769568129e-09
3.072460732e-09
3.381489847e-09
3.386022592e-09
3.668187474e-09
3.676027749e-09
3.515923551e-09
3.403947048e-09
3.160655161e-09
2.741117765e-09
2.45966249e-09
2.03907491e-09
1.522379724e-09
1.160950284e-09
7.46629038e-10
1.883647712e-10
-2.578473775e-10
-4.847230104e-10
-8.351585034e-10
-1.334486669e-09
-1.742347167e-09
-2.001068124e-09
-2.430634346e-09
-2.968140897e-09
-3.315770532e-09
-3.488100583e-09
-3.761733382e-09
-4.143023595e-09
-4.555449468e-09
-4.874739206e-09
-5.249164315e-09
-5.742410048e-09
-6.285126154e-09
-6.694945514e-09
-6.991178853e-09
-7.334318441e-09
-7.691251913e-09
-8.054400443e-09
-8.275979827e-09
-8.486743553e-09
-8.758754411e-09
-9.132069486e-09
-9.336201715e-09
-9.514957266e-09
-9.773673511e-09
-1.009002362e-08
-1.023545375e-08
-1.025773429e-08
-1.037222752e-08
-1.05877024e-08
-1.0616281e-08
-1.052514712e-08
-1.068443214e-08
-1.09432734e-08
-1.108149441e-08
-1.121797577e-08
-1.136432467e-08
-1.139552104e-08
-1.139570452e-08
-1.157505106e-08
-1.1881923e-08
-1.233444462e-08
-1.285737082e-08
-1.350348436e-08
-1.41493638e-08
-1.489178428e-08
-1.567664733e-08
-1.636816751e-08
-1.706925938e-08
-1.819345584e-08
-1.928612681e-08
-2.003845143e-08
-2.100732665e-08
-2.206519557e-08
-2.308424047e-08
-2.386044509e-08
-2.521146205e-08
-2.677894959e-08
-2.86507205e-08
-3.122424093e-08
-3.355502474e-08
-3.694342627e-08
-4.020035975e-08
-4.351555745e-08
-4.718560906e-08
-5.099309184e-08
-5.617394868e-08
-6.304842817e-08
-6.775604527e-08
-4.156308094e-08
-2.486047783e-08
-1.482901952e-08
)


100
(
-7.005781736e-09
-4.809684263e-09
-3.078165194e-09
-2.717285697e-09
-1.002501462e-09
-7.68722087e-10
-2.920463398e-10
-2.637060675e-10
-4.278799661e-11
-3.209192717e-10
-3.086474499e-10
-4.928351974e-10
-6.337017807e-10
-7.417361495e-10
-1.057426567e-09
-1.432650079e-09
-1.863121849e-09
-2.400679154e-09
-2.914850834e-09
-3.401292359e-09
-3.999952786e-09
-4.55198312e-09
-5.008952679e-09
-5.552403349e-09
-6.17125731e-09
-6.650062935e-09
-7.008458206e-09
-7.45090883e-09
-7.93954107e-09
-8.339415754e-09
-8.656235816e-09
-9.07067151e-09
-9.528239282e-09
-9.953565283e-09
-1.016607708e-08
-1.037836754e-08
-1.068751636e-08
-1.112149313e-08
-1.141845987e-08
-1.171534881e-08
-1.210713325e-08
-1.257245124e-08
-1.299064231e-08
-1.316948576e-08
-1.33700128e-08
-1.380950943e-08
-1.437260627e-08
-1.457549616e-08
-1.468033217e-08
-1.505441793e-08
-1.552700077e-08
-1.568623966e-08
-1.56869038e-08
-1.599068941e-08
-1.63814712e-08
-1.648650219e-08
-1.643134789e-08
-1.680919003e-08
-1.719415734e-08
-1.726814211e-08
-1.716769148e-08
-1.733227101e-08
-1.759696633e-08
-1.793509044e-08
-1.832899478e-08
-1.882837981e-08
-1.934756938e-08
-2.000913004e-08
-2.076035106e-08
-2.153099289e-08
-2.243530982e-08
-2.368067916e-08
-2.525772849e-08
-2.67076937e-08
-2.779691008e-08
-2.890481637e-08
-3.018141288e-08
-3.140040142e-08
-3.253194389e-08
-3.40460842e-08
-3.597329451e-08
-3.796271968e-08
-4.021847244e-08
-4.298018937e-08
-4.595763165e-08
-4.887407811e-08
-5.181936e-08
-5.59209848e-08
-6.103785984e-08
-6.668728435e-08
-6.979401121e-08
-7.44057954e-08
-8.020751144e-08
-8.572557779e-08
-9.588000115e-08
-1.075339689e-07
-1.051154984e-07
-6.450516278e-08
-4.398894883e-08
-3.146292504e-08
)


100
(
-7.005709633e-09
-5.944979636e-09
-4.443230819e-09
-3.305864397e-09
-2.47069879e-09
-2.948810525e-09
-2.497745625e-09
-2.950169408e-09
-3.021694772e-09
-3.335729694e-09
-3.825457751e-09
-4.111325409e-09
-4.484662776e-09
-4.807996165e-09
-5.185699436e-09
-5.640932368e-09
-6.169738383e-09
-6.805719924e-09
-7.431368494e-09
-7.962406073e-09
-8.539206252e-09
-9.190133578e-09
-9.770319555e-09
-1.02570263e-08
-1.084987662e-08
-1.149203835e-08
-1.206799654e-08
-1.245884696e-08
-1.285043602e-08
-1.32637406e-08
-1.370285999e-08
-1.396987212e-08
-1.429474428e-08
-1.469567865e-08
-1.51495145e-08
-1.531789101e-08
-1.540309463e-08
-1.566801866e-08
-1.628300251e-08
-1.661809933e-08
-1.67393896e-08
-1.698610457e-08
-1.760528325e-08
-1.806284876e-08
-1.815727449e-08
-1.823893458e-08
-1.902125055e-08
-1.981547777e-08
-1.998860698e-08
-2.000723356e-08
-2.059901377e-08
-2.125002581e-08
-2.15436851e-08
-2.169164343e-08
-2.21850488e-08
-2.281624042e-08
-2.332188934e-08
-2.379839181e-08
-2.446292569e-08
-2.529856671e-08
-2.607165985e-08
-2.671685898e-08
-2.736005514e-08
-2.807791633e-08
-2.899153393e-08
-3.010347065e-08
-3.118643858e-08
-3.211536699e-08
-3.295660394e-08
-3.387915639e-08
-3.49532786e-08
-3.598198987e-08
-3.70774109e-08
-3.840624966e-08
-4.014560584e-08
-4.194538034e-08
-4.379379506e-08
-4.562714027e-08
-4.799570784e-08
-5.09526406e-08
-5.398914454e-08
-5.737231538e-08
-6.144394821e-08
-6.579769601e-08
-7.036646935e-08
-7.4933544e-08
-7.914257326e-08
-8.404537921e-08
-9.225959432e-08
-9.779616707e-08
-1.010990153e-07
-1.097178849e-07
-1.168102955e-07
-1.288698019e-07
-1.415368664e-07
-1.563805713e-07
-1.296113216e-07
-8.875693524e-08
-6.507902384e-08
-5.307994638e-08
)


100
(
-6.520382181e-09
-5.869220049e-09
-4.731395489e-09
-3.972797951e-09
-4.453289115e-09
-4.499401888e-09
-4.912251902e-09
-5.167697007e-09
-5.781848405e-09
-6.210599086e-09
-6.783735924e-09
-7.36358939e-09
-7.825096125e-09
-8.301229721e-09
-8.792820184e-09
-9.284512639e-09
-9.778017779e-09
-1.039931803e-08
-1.112001417e-08
-1.175385568e-08
-1.227101465e-08
-1.28680212e-08
-1.352551374e-08
-1.413626614e-08
-1.460360262e-08
-1.522088764e-08
-1.588844614e-08
-1.638164302e-08
-1.66396809e-08
-1.693680552e-08
-1.740276424e-08
-1.795137625e-08
-1.821260685e-08
-1.836328916e-08
-1.884948414e-08
-1.942289525e-08
-1.957000076e-08
-1.952551725e-08
-2.00684059e-08
-2.082594318e-08
-2.116778322e-08
-2.126404556e-08
-2.163530654e-08
-2.240860551e-08
-2.291491758e-08
-2.296808939e-08
-2.336132765e-08
-2.445014773e-08
-2.546651782e-08
-2.583633522e-08
-2.628642259e-08
-2.722267789e-08
-2.825561673e-08
-2.899751491e-08
-2.949904634e-08
-3.029395744e-08
-3.127777611e-08
-3.211877694e-08
-3.288033431e-08
-3.378014575e-08
-3.49618655e-08
-3.626820155e-08
-3.767998931e-08
-3.924403965e-08
-4.064862155e-08
-4.206857918e-08
-4.353541524e-08
-4.504520483e-08
-4.687688125e-08
-4.853590864e-08
-4.995754653e-08
-5.128730795e-08
-5.271568671e-08
-5.419208573e-08
-5.594813539e-08
-5.803024535e-08
-6.072311112e-08
-6.418778192e-08
-6.792225066e-08
-7.175623435e-08
-7.589284903e-08
-8.045431801e-08
-8.552921561e-08
-9.065003407e-08
-9.621439396e-08
-1.023590813e-07
-1.091080959e-07
-1.161109545e-07
-1.24758072e-07
-1.312535922e-07
-1.387772128e-07
-1.489081562e-07
-1.604592057e-07
-1.760730799e-07
-1.939297113e-07
-2.089641955e-07
-1.547701144e-07
-1.190168455e-07
-9.075877766e-08
-8.193797241e-08
)


100
(
-5.710730064e-09
-5.58178835e-09
-4.956035428e-09
-5.251730951e-09
-5.934904828e-09
-6.11213242e-09
-6.894131889e-09
-7.412426863e-09
-8.030146501e-09
-8.783287431e-09
-9.358358235e-09
-1.006404127e-08
-1.07714518e-08
-1.130526276e-08
-1.183811413e-08
-1.240004555e-08
-1.291113637e-08
-1.339595254e-08
-1.409225571e-08
-1.482393108e-08
-1.549214513e-08
-1.600417034e-08
-1.658115937e-08
-1.724122589e-08
-1.789833954e-08
-1.831855485e-08
-1.880432546e-08
-1.941016143e-08
-1.985224138e-08
-2.009574973e-08
-2.036914345e-08
-2.11973745e-08
-2.18267055e-08
-2.205727297e-08
-2.213399609e-08
-2.293777599e-08
-2.364793726e-08
-2.376378521e-08
-2.360461697e-08
-2.445683994e-08
-2.551316386e-08
-2.592572897e-08
-2.599081912e-08
-2.665405995e-08
-2.773970183e-08
-2.849336542e-08
-2.886469286e-08
-2.957055819e-08
-3.107274515e-08
-3.246661543e-08
-3.339285176e-08
-3.405559663e-08
-3.508788198e-08
-3.624795492e-08
-3.751550358e-08
-3.886405688e-08
-3.984404073e-08
-4.071316868e-08
-4.18346502e-08
-4.312455102e-08
-4.444692777e-08
-4.575267762e-08
-4.761981664e-08
-4.980740829e-08
-5.185254397e-08
-5.404149507e-08
-5.641514422e-08
-5.868832346e-08
-6.101738381e-08
-6.37565251e-08
-6.671010027e-08
-6.948058928e-08
-7.216629647e-08
-7.457258715e-08
-7.690011448e-08
-7.985232081e-08
-8.303909438e-08
-8.682752157e-08
-9.098345521e-08
-9.543844775e-08
-1.005207533e-07
-1.058928783e-07
-1.115742834e-07
-1.180953838e-07
-1.252219703e-07
-1.331305604e-07
-1.419463159e-07
-1.504306199e-07
-1.569165574e-07
-1.66744803e-07
-1.797302796e-07
-1.917151054e-07
-2.088178422e-07
-2.272107547e-07
-2.499088954e-07
-2.62514781e-07
-1.912582751e-07
-1.564670188e-07
-1.24360578e-07
-1.198685851e-07
)


100
(
-5.387253366e-09
-5.77702964e-09
-5.737718806e-09
-6.500036471e-09
-6.861683256e-09
-7.768780966e-09
-8.441896722e-09
-9.421009824e-09
-1.005338328e-08
-1.086321863e-08
-1.174840527e-08
-1.241071786e-08
-1.32140027e-08
-1.399570319e-08
-1.455692627e-08
-1.51134385e-08
-1.567870077e-08
-1.618567955e-08
-1.682315562e-08
-1.74643026e-08
-1.824196007e-08
-1.898853406e-08
-1.949650577e-08
-2.001127817e-08
-2.064094561e-08
-2.125440209e-08
-2.169254461e-08
-2.221213716e-08
-2.288492304e-08
-2.329402843e-08
-2.35265148e-08
-2.396286926e-08
-2.509627081e-08
-2.585704254e-08
-2.59980805e-08
-2.629093024e-08
-2.735301415e-08
-2.816395253e-08
-2.811922958e-08
-2.841641735e-08
-2.965428517e-08
-3.098711175e-08
-3.157081832e-08
-3.214054971e-08
-3.321252135e-08
-3.465503588e-08
-3.56402777e-08
-3.626757102e-08
-3.709210309e-08
-3.855898006e-08
-3.989960386e-08
-4.129741177e-08
-4.257185764e-08
-4.37257017e-08
-4.524390215e-08
-4.710252125e-08
-4.900523608e-08
-5.091479229e-08
-5.249972955e-08
-5.418839512e-08
-5.600897848e-08
-5.773128353e-08
-5.96629225e-08
-6.173356957e-08
-6.413867188e-08
-6.67956164e-08
-6.973306579e-08
-7.285535454e-08
-7.587907703e-08
-7.93242883e-08
-8.330996328e-08
-8.72398075e-08
-9.124879804e-08
-9.500629602e-08
-9.869990131e-08
-1.029950392e-07
-1.075459035e-07
-1.121999888e-07
-1.174386294e-07
-1.229711739e-07
-1.287506723e-07
-1.349984886e-07
-1.416102682e-07
-1.491336935e-07
-1.574501614e-07
-1.664256353e-07
-1.758536057e-07
-1.858469366e-07
-1.935113769e-07
-2.042779259e-07
-2.20301954e-07
-2.372844339e-07
-2.575039444e-07
-2.804331077e-07
-3.049058687e-07
-3.05796587e-07
-2.271413762e-07
-1.940917331e-07
-1.610214892e-07
-1.656614637e-07
)


100
(
-5.384563202e-09
-6.44015713e-09
-6.689653248e-09
-7.192003433e-09
-7.885013253e-09
-9.047671361e-09
-9.999566229e-09
-1.096098268e-08
-1.201493423e-08
-1.274504772e-08
-1.373501275e-08
-1.468617503e-08
-1.538272704e-08
-1.626262863e-08
-1.712010928e-08
-1.772102983e-08
-1.834446984e-08
-1.905989871e-08
-1.963261194e-08
-2.016692773e-08
-2.078671106e-08
-2.159996389e-08
-2.245746301e-08
-2.295034599e-08
-2.336330167e-08
-2.403884605e-08
-2.47156505e-08
-2.52992149e-08
-2.585825085e-08
-2.652135392e-08
-2.682550224e-08
-2.702560249e-08
-2.801963661e-08
-2.957370711e-08
-3.043542791e-08
-3.04530686e-08
-3.119623673e-08
-3.264593123e-08
-3.366797822e-08
-3.395791941e-08
-3.465684109e-08
-3.629574346e-08
-3.802289655e-08
-3.909595148e-08
-3.984180302e-08
-4.09339879e-08
-4.2095421e-08
-4.323744273e-08
-4.450931485e-08
-4.556946477e-08
-4.692789283e-08
-4.8784967e-08
-5.082103836e-08
-5.30053305e-08
-5.489706407e-08
-5.649527687e-08
-5.895482403e-08
-6.175423799e-08
-6.430002497e-08
-6.686392671e-08
-6.91938968e-08
-7.136302912e-08
-7.354740784e-08
-7.620433033e-08
-7.931503288e-08
-8.224457693e-08
-8.526820782e-08
-8.917613671e-08
-9.333611593e-08
-9.735989932e-08
-1.015612547e-07
-1.060227506e-07
-1.110019867e-07
-1.165268285e-07
-1.223104904e-07
-1.281378428e-07
-1.34475465e-07
-1.406067172e-07
-1.467379157e-07
-1.533854112e-07
-1.605844488e-07
-1.683995778e-07
-1.764040361e-07
-1.845586882e-07
-1.929395359e-07
-2.019051311e-07
-2.128160016e-07
-2.245180106e-07
-2.357276328e-07
-2.492832783e-07
-2.666200025e-07
-2.868187026e-07
-3.086367405e-07
-3.369040197e-07
-3.650298307e-07
-3.355098875e-07
-2.56122438e-07
-2.251758737e-07
-1.920258401e-07
-2.123450397e-07
)


100
(
-5.382113517e-09
-6.709120355e-09
-7.135088471e-09
-7.678454706e-09
-8.983124208e-09
-1.003394936e-08
-1.144841447e-08
-1.241907282e-08
-1.365025332e-08
-1.465605741e-08
-1.547756539e-08
-1.661185029e-08
-1.755803123e-08
-1.833626725e-08
-1.932211243e-08
-2.029162452e-08
-2.099076801e-08
-2.169339873e-08
-2.228538413e-08
-2.304741355e-08
-2.357814424e-08
-2.416205543e-08
-2.501679627e-08
-2.591895183e-08
-2.662539214e-08
-2.711222851e-08
-2.782294804e-08
-2.863339071e-08
-2.93771642e-08
-2.979183692e-08
-3.047833237e-08
-3.136077236e-08
-3.144936105e-08
-3.307639255e-08
-3.493030651e-08
-3.584847725e-08
-3.646059887e-08
-3.762207569e-08
-3.944288277e-08
-4.061374058e-08
-4.13922941e-08
-4.224903412e-08
-4.377182458e-08
-4.529257018e-08
-4.697459137e-08
-4.828220534e-08
-4.939003151e-08
-5.084171828e-08
-5.259629954e-08
-5.462180849e-08
-5.681228236e-08
-5.834038001e-08
-6.022751851e-08
-6.285392459e-08
-6.556479056e-08
-6.823793953e-08
-7.110574123e-08
-7.351686634e-08
-7.643972658e-08
-7.971198672e-08
-8.323672368e-08
-8.694618737e-08
-8.995705817e-08
-9.285061174e-08
-9.665356515e-08
-1.006719509e-07
-1.044056396e-07
-1.082809926e-07
-1.122076429e-07
-1.167301307e-07
-1.224535107e-07
-1.287219249e-07
-1.34351019e-07
-1.412139302e-07
-1.489374871e-07
-1.562154594e-07
-1.634467236e-07
-1.711131039e-07
-1.791786389e-07
-1.877081128e-07
-1.966170671e-07
-2.058471988e-07
-2.148453748e-07
-2.235718792e-07
-2.335105708e-07
-2.445500515e-07
-2.566159592e-07
-2.694805157e-07
-2.845993537e-07
-3.026036279e-07
-3.239904591e-07
-3.472329122e-07
-3.736597516e-07
-4.069536522e-07
-4.32156724e-07
-3.579385098e-07
-2.767018516e-07
-2.495104967e-07
-2.165717146e-07
-2.491438973e-07
)


100
(
-4.907881958e-09
-6.3934515e-09
-7.184277722e-09
-8.337179125e-09
-9.775320182e-09
-1.110352318e-08
-1.25349177e-08
-1.397920662e-08
-1.500500644e-08
-1.633663978e-08
-1.731494306e-08
-1.825822665e-08
-1.950940675e-08
-2.052397531e-08
-2.137511802e-08
-2.247516802e-08
-2.353553481e-08
-2.41778469e-08
-2.482436199e-08
-2.564879075e-08
-2.656956771e-08
-2.712324809e-08
-2.762496068e-08
-2.860489061e-08
-2.970089348e-08
-3.070668628e-08
-3.136570708e-08
-3.217660555e-08
-3.330473096e-08
-3.442354845e-08
-3.575328784e-08
-3.580287919e-08
-3.570107535e-08
-3.766907764e-08
-3.949859735e-08
-4.17199668e-08
-4.292838443e-08
-4.391407147e-08
-4.511712049e-08
-4.659913894e-08
-4.792513919e-08
-4.899159611e-08
-4.999158457e-08
-5.156645785e-08
-5.366903223e-08
-5.607492048e-08
-5.862576892e-08
-6.037618112e-08
-6.181407146e-08
-6.416609735e-08
-6.677603842e-08
-6.937960019e-08
-7.215720826e-08
-7.450866456e-08
-7.699283131e-08
-8.010394951e-08
-8.320728094e-08
-8.699399004e-08
-9.107033099e-08
-9.419109669e-08
-9.783784325e-08
-1.026319171e-07
-1.074458052e-07
-1.117738672e-07
-1.156389616e-07
-1.194854491e-07
-1.238320403e-07
-1.290832038e-07
-1.347904923e-07
-1.395810122e-07
-1.45802315e-07
-1.533788157e-07
-1.609609342e-07
-1.686258455e-07
-1.765942794e-07
-1.854458805e-07
-1.946448998e-07
-2.042051013e-07
-2.143328113e-07
-2.24616438e-07
-2.349425075e-07
-2.453232426e-07
-2.563035796e-07
-2.682503815e-07
-2.808078213e-07
-2.937540287e-07
-3.069794129e-07
-3.228351202e-07
-3.420376399e-07
-3.656028446e-07
-3.912501884e-07
-4.175928259e-07
-4.506558442e-07
-4.865990328e-07
-4.989299888e-07
-3.777358771e-07
-2.967634039e-07
-2.75074776e-07
-2.418036374e-07
-2.879583502e-07
)


100
(
-3.890104683e-09
-5.946122208e-09
-7.314713703e-09
-9.03131113e-09
-1.035073248e-08
-1.213841207e-08
-1.349195509e-08
-1.521058308e-08
-1.644781683e-08
-1.768849909e-08
-1.906445767e-08
-2.004336265e-08
-2.116820108e-08
-2.247966912e-08
-2.355906315e-08
-2.44411611e-08
-2.560583479e-08
-2.674325444e-08
-2.74824607e-08
-2.811979001e-08
-2.90614966e-08
-3.003278224e-08
-3.080622709e-08
-3.142944776e-08
-3.241877003e-08
-3.36927915e-08
-3.503035971e-08
-3.594355728e-08
-3.691418383e-08
-3.872038023e-08
-4.031141527e-08
-4.136153162e-08
-4.268961716e-08
-4.306935171e-08
-4.44557247e-08
-4.65471324e-08
-4.848550284e-08
-5.015157573e-08
-5.112042134e-08
-5.224860512e-08
-5.371726564e-08
-5.561509369e-08
-5.793087705e-08
-5.98184975e-08
-6.134295738e-08
-6.366743462e-08
-6.661871211e-08
-6.965039509e-08
-7.263816688e-08
-7.502354557e-08
-7.721120778e-08
-8.007400713e-08
-8.295261716e-08
-8.615972642e-08
-9.02251376e-08
-9.329313253e-08
-9.608855608e-08
-1.002786734e-07
-1.050703492e-07
-1.101115832e-07
-1.149795692e-07
-1.189341888e-07
-1.233971605e-07
-1.284400568e-07
-1.339680923e-07
-1.399395965e-07
-1.448350418e-07
-1.504633285e-07
-1.576526566e-07
-1.651186415e-07
-1.723006877e-07
-1.792693364e-07
-1.874317819e-07
-1.95926702e-07
-2.047840435e-07
-2.145170271e-07
-2.258106891e-07
-2.378901692e-07
-2.498612612e-07
-2.615674987e-07
-2.735196442e-07
-2.863262535e-07
-3.0017818e-07
-3.148014018e-07
-3.2903258e-07
-3.445869837e-07
-3.607793395e-07
-3.789035039e-07
-4.031636734e-07
-4.311325892e-07
-4.608168556e-07
-4.887929504e-07
-5.261278688e-07
-5.625430653e-07
-5.588687899e-07
-4.048824379e-07
-3.361569089e-07
-3.110765255e-07
-2.775031344e-07
-3.265527161e-07
)


100
(
-3.343970159e-09
-5.782357167e-09
-7.723231141e-09
-9.386641513e-09
-1.100752683e-08
-1.280295979e-08
-1.451845889e-08
-1.603069209e-08
-1.782417361e-08
-1.90026612e-08
-2.040247381e-08
-2.18176646e-08
-2.280320759e-08
-2.402801716e-08
-2.542593127e-08
-2.654403981e-08
-2.744018701e-08
-2.868128059e-08
-2.995666863e-08
-3.082566987e-08
-3.141971803e-08
-3.249636407e-08
-3.367149952e-08
-3.470190441e-08
-3.545163359e-08
-3.643586032e-08
-3.783400289e-08
-3.931457292e-08
-4.076320949e-08
-4.194085152e-08
-4.338208677e-08
-4.585046528e-08
-4.819147766e-08
-4.856883362e-08
-4.970483679e-08
-5.086068903e-08
-5.266516664e-08
-5.466507924e-08
-5.710167659e-08
-5.9338584e-08
-6.078128909e-08
-6.254165672e-08
-6.496076884e-08
-6.765346741e-08
-7.05729453e-08
-7.276556669e-08
-7.49198604e-08
-7.815003689e-08
-8.17594363e-08
-8.496190688e-08
-8.84535531e-08
-9.134831267e-08
-9.38117648e-08
-9.708370544e-08
-1.013992532e-07
-1.063981297e-07
-1.116457525e-07
-1.150224456e-07
-1.190790381e-07
-1.244519474e-07
-1.293873958e-07
-1.345755106e-07
-1.400695262e-07
-1.44937491e-07
-1.508348377e-07
-1.58650046e-07
-1.668162203e-07
-1.739251725e-07
-1.808024514e-07
-1.892566175e-07
-1.97216776e-07
-2.051330618e-07
-2.135682892e-07
-2.226335552e-07
-2.328982683e-07
-2.448958423e-07
-2.579066894e-07
-2.706248209e-07
-2.831721893e-07
-2.964261735e-07
-3.112601384e-07
-3.267389873e-07
-3.424580148e-07
-3.580705848e-07
-3.752690211e-07
-3.937548523e-07
-4.131942893e-07
-4.353433499e-07
-4.638496266e-07
-4.906765183e-07
-5.244705458e-07
-5.466395874e-07
-5.991603331e-07
-6.38020877e-07
-6.100537954e-07
-4.517636236e-07
-4.017436487e-07
-3.65291491e-07
-3.285164627e-07
-4.036078747e-07
)


100
(
-3.340614547e-09
-5.865491642e-09
-7.948228212e-09
-9.547694747e-09
-1.159536373e-08
-1.32513477e-08
-1.536136452e-08
-1.690782034e-08
-1.871925228e-08
-2.032564202e-08
-2.152276656e-08
-2.306564453e-08
-2.444155179e-08
-2.553316217e-08
-2.686013734e-08
-2.837877519e-08
-2.958049298e-08
-3.051758763e-08
-3.185159839e-08
-3.324852891e-08
-3.431758363e-08
-3.505477189e-08
-3.616718854e-08
-3.754452521e-08
-3.896826369e-08
-3.983141191e-08
-4.075901248e-08
-4.237890564e-08
-4.419038024e-08
-4.603985187e-08
-4.752670251e-08
-4.901295229e-08
-5.080815462e-08
-5.277806539e-08
-5.434253034e-08
-5.629215615e-08
-5.797813997e-08
-5.977907865e-08
-6.243320193e-08
-6.548963203e-08
-6.863529703e-08
-7.087917812e-08
-7.248915663e-08
-7.521214493e-08
-7.848476521e-08
-8.172835224e-08
-8.515356131e-08
-8.807383238e-08
-9.06845587e-08
-9.394291566e-08
-9.756582883e-08
-1.021443053e-07
-1.072304568e-07
-1.104446093e-07
-1.131790708e-07
-1.184697339e-07
-1.244046362e-07
-1.298813604e-07
-1.350853942e-07
-1.387529793e-07
-1.424667013e-07
-1.479730454e-07
-1.559875352e-07
-1.64387085e-07
-1.702523648e-07
-1.771653416e-07
-1.866421196e-07
-1.956900818e-07
-2.041194431e-07
-2.124142204e-07
-2.208726665e-07
-2.302458672e-07
-2.403738926e-07
-2.512393471e-07
-2.633677568e-07
-2.763299237e-07
-2.888441707e-07
-3.013538744e-07
-3.15284089e-07
-3.316758273e-07
-3.492742414e-07
-3.652726207e-07
-3.817713755e-07
-3.997461801e-07
-4.20567331e-07
-4.419667538e-07
-4.654159636e-07
-4.923666305e-07
-5.180887126e-07
-5.459503763e-07
-5.798783953e-07
-5.660500303e-07
-6.677822811e-07
-7.130099371e-07
-6.64311862e-07
-5.235722731e-07
-4.789990671e-07
-4.337871585e-07
-3.888020607e-07
-4.799437113e-07
)


100
(
-3.337638117e-09
-5.711796697e-09
-7.791597716e-09
-9.76422851e-09
-1.183922571e-08
-1.380020637e-08
-1.580397726e-08
-1.784758317e-08
-1.936759023e-08
-2.129367401e-08
-2.279439375e-08
-2.406393227e-08
-2.575213454e-08
-2.721570656e-08
-2.838118284e-08
-2.983233294e-08
-3.149845736e-08
-3.285750241e-08
-3.386002299e-08
-3.52654156e-08
-3.68671282e-08
-3.825031907e-08
-3.914603512e-08
-4.031954339e-08
-4.184699261e-08
-4.341421663e-08
-4.485325931e-08
-4.609853573e-08
-4.766299273e-08
-4.966005781e-08
-5.175252048e-08
-5.406566676e-08
-5.560310747e-08
-5.692465006e-08
-5.892168355e-08
-6.143252353e-08
-6.439026505e-08
-6.69722949e-08
-6.886252445e-08
-7.137672959e-08
-7.486436947e-08
-7.850071553e-08
-8.198643695e-08
-8.462144863e-08
-8.713967869e-08
-9.05222714e-08
-9.392054674e-08
-9.745951261e-08
-1.021369934e-07
-1.057130804e-07
-1.087016058e-07
-1.130120196e-07
-1.185272205e-07
-1.242393128e-07
-1.295182008e-07
-1.333248131e-07
-1.372917277e-07
-1.42719692e-07
-1.478165269e-07
-1.54440676e-07
-1.607413511e-07
-1.656842311e-07
-1.727286104e-07
-1.819329311e-07
-1.912232792e-07
-2.000155536e-07
-2.081737453e-07
-2.168532778e-07
-2.262917843e-07
-2.36055876e-07
-2.45822948e-07
-2.564291213e-07
-2.689147767e-07
-2.821865183e-07
-2.956037405e-07
-3.084721221e-07
-3.216864386e-07
-3.358123368e-07
-3.523347896e-07
-3.705370106e-07
-3.877278022e-07
-4.0415349e-07
-4.234835907e-07
-4.460652463e-07
-4.686408729e-07
-4.949555701e-07
-5.230238722e-07
-5.513057287e-07
-5.78981012e-07
-6.079478948e-07
-6.495161264e-07
-6.723087238e-07
-7.348605976e-07
-7.878425177e-07
-7.244143632e-07
-6.061080718e-07
-5.541219162e-07
-5.041299229e-07
-4.502715912e-07
-5.354569942e-07
)


100
(
-2.673937746e-09
-5.233089582e-09
-7.5356385e-09
-9.925232628e-09
-1.189680059e-08
-1.430677635e-08
-1.615140105e-08
-1.843939384e-08
-2.02550457e-08
-2.199660775e-08
-2.397198503e-08
-2.54736399e-08
-2.692936825e-08
-2.868779564e-08
-3.024382838e-08
-3.149414052e-08
-3.308231221e-08
-3.494937987e-08
-3.651998961e-08
-3.763838766e-08
-3.912243198e-08
-4.098337653e-08
-4.28255541e-08
-4.385714021e-08
-4.49235289e-08
-4.678853459e-08
-4.878650089e-08
-5.088099107e-08
-5.234281784e-08
-5.378555049e-08
-5.591900516e-08
-5.833473431e-08
-6.101360014e-08
-6.346197305e-08
-6.519157998e-08
-6.699856594e-08
-6.986776016e-08
-7.335396344e-08
-7.710498145e-08
-7.969318353e-08
-8.209280524e-08
-8.578466632e-08
-9.001724129e-08
-9.383531115e-08
-9.779355046e-08
-1.010454784e-07
-1.039034952e-07
-1.076845316e-07
-1.123751141e-07
-1.1803496e-07
-1.240246949e-07
-1.274762468e-07
-1.312625642e-07
-1.377271299e-07
-1.440420029e-07
-1.487963265e-07
-1.542699759e-07
-1.585169237e-07
-1.631246628e-07
-1.706688488e-07
-1.798992832e-07
-1.89014069e-07
-1.948079844e-07
-2.020722422e-07
-2.126186672e-07
-2.223361211e-07
-2.314444947e-07
-2.40945071e-07
-2.510351497e-07
-2.619116661e-07
-2.740714496e-07
-2.879628341e-07
-3.017366167e-07
-3.157243179e-07
-3.298802142e-07
-3.446420787e-07
-3.603646062e-07
-3.773464038e-07
-3.964010747e-07
-4.148730956e-07
-4.311485817e-07
-4.511765735e-07
-4.736221651e-07
-4.993538168e-07
-5.268136101e-07
-5.610755715e-07
-5.930131256e-07
-6.223288198e-07
-6.564178899e-07
-6.912703091e-07
-7.359314472e-07
-9.222331827e-07
-8.447571154e-07
-8.898824541e-07
-7.931856586e-07
-6.836345933e-07
-6.241475109e-07
-5.701716201e-07
-5.112012387e-07
-6.205241019e-07
)


100
(
-1.560909379e-09
-4.674694754e-09
-7.37706044e-09
-9.84328228e-09
-1.204509885e-08
-1.44292787e-08
-1.664622778e-08
-1.871852105e-08
-2.11252508e-08
-2.28950338e-08
-2.486295041e-08
-2.693569352e-08
-2.84187304e-08
-2.998981209e-08
-3.189754043e-08
-3.36046443e-08
-3.498865823e-08
-3.674852235e-08
-3.883246078e-08
-4.070223037e-08
-4.198046148e-08
-4.358045198e-08
-4.564272888e-08
-4.763950091e-08
-4.936225299e-08
-5.083131503e-08
-5.276395877e-08
-5.49207126e-08
-5.709377756e-08
-5.945588878e-08
-6.133374626e-08
-6.321697864e-08
-6.593764031e-08
-6.925293634e-08
-7.278170029e-08
-7.490227457e-08
-7.658475742e-08
-7.96741925e-08
-8.366903059e-08
-8.78642261e-08
-9.224213974e-08
-9.552451909e-08
-9.855069842e-08
-1.024086347e-07
-1.063277839e-07
-1.113255038e-07
-1.175203604e-07
-1.214394513e-07
-1.244133374e-07
-1.301522906e-07
-1.368926502e-07
-1.434670917e-07
-1.494715017e-07
-1.53812457e-07
-1.579488723e-07
-1.635584441e-07
-1.706419932e-07
-1.791828667e-07
-1.85892852e-07
-1.9086325e-07
-1.998681376e-07
-2.105482006e-07
-2.197030959e-07
-2.290118702e-07
-2.382683693e-07
-2.470944843e-07
-2.571015754e-07
-2.68238112e-07
-2.796358374e-07
-2.924486013e-07
-3.076911463e-07
-3.233820226e-07
-3.380164595e-07
-3.531459883e-07
-3.695720676e-07
-3.879152246e-07
-4.058381584e-07
-4.254034733e-07
-4.454990245e-07
-4.64733862e-07
-4.849354747e-07
-5.116227229e-07
-5.36820979e-07
-5.630303063e-07
-5.982968433e-07
-6.343781336e-07
-6.702180893e-07
-7.085563562e-07
-7.476067249e-07
-7.938863209e-07
-8.390945933e-07
-9.610746593e-07
-9.755233051e-07
-1.013482797e-06
-8.873601607e-07
-7.554737696e-07
-6.910965693e-07
-6.330524526e-07
-5.723620269e-07
-6.757181235e-07
)


100
(
-1.109090058e-09
-4.33405118e-09
-7.251874482e-09
-9.609017379e-09
-1.220140823e-08
-1.434371533e-08
-1.701313702e-08
-1.913103097e-08
-2.154665307e-08
-2.386315272e-08
-2.569716628e-08
-2.784023562e-08
-2.998571927e-08
-3.154317447e-08
-3.325571327e-08
-3.536927695e-08
-3.733954154e-08
-3.890905795e-08
-4.081946702e-08
-4.320576492e-08
-4.538906175e-08
-4.689028073e-08
-4.840927594e-08
-5.086651864e-08
-5.33832212e-08