/*--------------------------------*- C++ -*----------------------------------*\
| =========                 |                                                 |
| \\      /  F ield         | OpenFOAM: The Open Source CFD Toolbox           |
|  \\    /   O peration     | Version:  2.3.1                                 |
|   \\  /    A nd           | Web:      www.OpenFOAM.org                      |
|    \\/     M anipulation  |                                                 |
\*---------------------------------------------------------------------------*/
FoamFile
{
    version     2.0;
    format      ascii;
    class       dictionary;
    location    "constant";
    object      DPSI39;
}
// * * * * * * * * * * * * * * * * * * * * * * * * * * * * * * * * * * * * * //

DPSI39_table
100
(

100
(
-3.153443764e-07
-3.155912266e-07
-3.146073537e-07
-3.13634744e-07
-3.240835494e-07
-3.301396097e-07
-3.301543053e-07
-3.335799452e-07
-3.425385386e-07
-3.43016778e-07
-3.542290899e-07
-3.621204013e-07
-3.502136963e-07
-3.581854279e-07
-3.596642891e-07
-3.462396968e-07
-3.538580216e-07
-3.591614812e-07
-3.474190484e-07
-3.526837602e-07
-3.626477631e-07
-3.581543065e-07
-3.547689734e-07
-3.654750687e-07
-3.702076028e-07
-3.616221291e-07
-3.604219375e-07
-3.680223185e-07
-3.682022663e-07
-3.601630906e-07
-3.640242933e-07
-3.740708663e-07
-3.728990354e-07
-3.654995885e-07
-3.623552942e-07
-3.669191024e-07
-3.661835263e-07
-3.57980319e-07
-3.54389714e-07
-3.589386851e-07
-3.587899658e-07
-3.510100734e-07
-3.481593648e-07
-3.539915679e-07
-3.551539992e-07
-3.483491618e-07
-3.424944346e-07
-3.450876257e-07
-3.456534914e-07
-3.390954721e-07
-3.351897927e-07
-3.39175576e-07
-3.404465514e-07
-3.344224851e-07
-3.333306495e-07
-3.384973157e-07
-3.386363177e-07
-3.325591891e-07
-3.292955285e-07
-3.301012344e-07
-3.275961945e-07
-3.210018981e-07
-3.175945456e-07
-3.167629502e-07
-3.125533326e-07
-3.056618542e-07
-3.033886346e-07
-3.011847489e-07
-2.948428621e-07
-2.895222824e-07
-2.869384135e-07
-2.821466926e-07
-2.754609993e-07
-2.721201958e-07
-2.67379144e-07
-2.604958468e-07
-2.561164181e-07
-2.503900022e-07
-2.437373832e-07
-2.37879144e-07
-2.306521139e-07
-2.240120019e-07
-2.165188704e-07
-2.087039824e-07
-2.004319823e-07
-1.919386995e-07
-1.828388857e-07
-1.735064774e-07
-1.635818608e-07
-1.533674293e-07
-1.427263773e-07
-1.311988673e-07
-1.188249718e-07
-1.055637599e-07
-9.161421816e-08
-7.574678246e-08
-5.753117189e-08
-3.686889315e-08
2.454363679e-08
7.749488184e-08
)


100
(
-2.902390173e-07
-2.914497236e-07
-2.924183554e-07
-2.969906204e-07
-3.093267861e-07
-3.120859954e-07
-3.183953921e-07
-3.227111999e-07
-3.303084803e-07
-3.379463031e-07
-3.402820885e-07
-3.511833943e-07
-3.481729282e-07
-3.453887336e-07
-3.540183433e-07
-3.504973064e-07
-3.402869749e-07
-3.509913235e-07
-3.570440705e-07
-3.463445104e-07
-3.514067335e-07
-3.631093306e-07
-3.611359344e-07
-3.537299912e-07
-3.652203188e-07
-3.747299692e-07
-3.668891482e-07
-3.574233376e-07
-3.685823827e-07
-3.784574937e-07
-3.693233599e-07
-3.638628186e-07
-3.740665695e-07
-3.827392127e-07
-3.765877499e-07
-3.671111897e-07
-3.663602405e-07
-3.766549408e-07
-3.750319911e-07
-3.632405652e-07
-3.579785694e-07
-3.666474475e-07
-3.695717026e-07
-3.608631581e-07
-3.551312555e-07
-3.626883544e-07
-3.689174301e-07
-3.62143756e-07
-3.533714801e-07
-3.532880765e-07
-3.624740976e-07
-3.609014795e-07
-3.511773123e-07
-3.495802489e-07
-3.569778448e-07
-3.576817336e-07
-3.506246495e-07
-3.500538972e-07
-3.548974545e-07
-3.579236699e-07
-3.409451364e-07
-3.348625787e-07
-3.571470442e-07
-3.547701303e-07
-3.256028659e-07
-3.228969907e-07
-3.522935284e-07
-3.341599785e-07
-3.066146769e-07
-3.243264943e-07
-3.328537108e-07
-3.043011384e-07
-2.968454047e-07
-3.192672147e-07
-2.991301459e-07
-2.805161048e-07
-3.003805462e-07
-2.895960562e-07
-2.710901542e-07
-2.816600425e-07
-2.694335767e-07
-2.591875918e-07
-2.569744428e-07
-2.470073275e-07
-2.434522806e-07
-2.34037186e-07
-2.247906565e-07
-2.135396955e-07
-2.046190113e-07
-1.943774438e-07
-1.773018315e-07
-1.600342252e-07
-1.464360533e-07
-1.298641935e-07
-1.157355326e-07
-1.038556691e-07
-9.955241689e-08
-3.496471726e-07
-5.364871096e-07
-4.84762838e-07
)


100
(
-2.675745528e-07
-2.691609409e-07
-2.707684153e-07
-2.824539615e-07
-2.942597446e-07
-2.995394041e-07
-3.040457788e-07
-3.111144837e-07
-3.164646688e-07
-3.269057625e-07
-3.323764453e-07
-3.376560767e-07
-3.450184268e-07
-3.391512154e-07
-3.406987979e-07
-3.494803503e-07
-3.452591994e-07
-3.361166948e-07
-3.485390779e-07
-3.58000883e-07
-3.486337326e-07
-3.499284831e-07
-3.630469646e-07
-3.658190972e-07
-3.578415619e-07
-3.633918498e-07
-3.751896824e-07
-3.743030292e-07
-3.655682622e-07
-3.661518817e-07
-3.787376424e-07
-3.808144541e-07
-3.726730234e-07
-3.722640809e-07
-3.832555476e-07
-3.883617729e-07
-3.813670551e-07
-3.716893857e-07
-3.731413894e-07
-3.839709404e-07
-3.814897925e-07
-3.707952719e-07
-3.630172588e-07
-3.732725451e-07
-3.809235156e-07
-3.721911763e-07
-3.661644868e-07
-3.700450519e-07
-3.791025551e-07
-3.783100978e-07
-3.715183295e-07
-3.617371087e-07
-3.706849275e-07
-3.80647679e-07
-3.744865544e-07
-3.550031374e-07
-3.637618265e-07
-3.816238458e-07
-3.724729977e-07
-3.538004469e-07
-3.635136408e-07
-3.613461561e-07
-3.401454027e-07
-3.633711151e-07
-3.783733625e-07
-3.522622997e-07
-3.298947737e-07
-3.617480001e-07
-3.61910698e-07
-3.31547001e-07
-3.294327529e-07
-3.450885047e-07
-3.417394962e-07
-3.1632437e-07
-3.107121061e-07
-3.176792299e-07
-3.096629216e-07
-2.948342939e-07
-3.017458474e-07
-2.971899231e-07
-2.892456686e-07
-2.70344114e-07
-2.654564959e-07
-2.674146591e-07
-2.434863256e-07
-2.397040816e-07
-2.31455109e-07
-2.10039494e-07
-1.974333831e-07
-1.841511454e-07
-1.694166923e-07
-1.470242607e-07
-1.252609632e-07
-1.09016885e-07
-8.922652596e-08
-7.384541208e-08
-2.386859255e-07
-7.255166995e-07
-9.319821835e-07
-8.162873437e-07
)


100
(
-2.474477043e-07
-2.481920166e-07
-2.534520087e-07
-2.663739195e-07
-2.751392855e-07
-2.865849319e-07
-2.898840612e-07
-2.990781667e-07
-3.091193145e-07
-3.143921413e-07
-3.243330431e-07
-3.240280543e-07
-3.330919627e-07
-3.40647582e-07
-3.318054449e-07
-3.359701253e-07
-3.46076249e-07
-3.420446836e-07
-3.326402084e-07
-3.471639597e-07
-3.603121621e-07
-3.517149401e-07
-3.480011923e-07
-3.620777338e-07
-3.707649569e-07
-3.629225965e-07
-3.610966585e-07
-3.739409355e-07
-3.81618239e-07
-3.747551943e-07
-3.665880589e-07
-3.763385399e-07
-3.886892331e-07
-3.833611409e-07
-3.769816539e-07
-3.79991322e-07
-3.913818274e-07
-3.941327619e-07
-3.864601091e-07
-3.761310788e-07
-3.759304142e-07
-3.89193199e-07
-3.909693999e-07
-3.824203885e-07
-3.671845634e-07
-3.780985401e-07
-3.940619628e-07
-3.865759549e-07
-3.624160613e-07
-3.736394047e-07
-4.0118529e-07
-3.928916542e-07
-3.65336509e-07
-3.663991152e-07
-3.972462722e-07
-3.959087912e-07
-3.572359254e-07
-3.574253888e-07
-3.990244822e-07
-3.855221743e-07
-3.502076241e-07
-3.666543777e-07
-3.761387433e-07
-3.572558484e-07
-3.621632241e-07
-3.777798279e-07
-3.732544155e-07
-3.560436198e-07
-3.499965153e-07
-3.567760757e-07
-3.594206822e-07
-3.477297356e-07
-3.345967272e-07
-3.251911751e-07
-3.295542667e-07
-3.386769983e-07
-3.149983842e-07
-2.86785045e-07
-3.121621862e-07
-3.095318667e-07
-2.737739165e-07
-2.732202583e-07
-2.722151697e-07
-2.547287084e-07
-2.361482966e-07
-2.255021522e-07
-2.170722361e-07
-2.053513279e-07
-1.871797566e-07
-1.615057786e-07
-1.441837655e-07
-1.32491283e-07
-1.022877884e-07
-6.945888017e-08
-4.9374434e-08
-4.270712779e-08
-4.569714136e-07
-1.063640327e-06
-1.179570373e-06
-1.071658979e-06
)


100
(
-2.314674625e-07
-2.306815349e-07
-2.342271913e-07
-2.479009085e-07
-2.615557187e-07
-2.718016534e-07
-2.782921454e-07
-2.845611296e-07
-2.969286661e-07
-3.015923453e-07
-3.119458615e-07
-3.216983755e-07
-3.180849551e-07
-3.284885644e-07
-3.345739867e-07
-3.256549322e-07
-3.31472035e-07
-3.431603419e-07
-3.404928139e-07
-3.326458024e-07
-3.453599942e-07
-3.599481104e-07
-3.550532739e-07
-3.475697162e-07
-3.593555778e-07
-3.729832496e-07
-3.683914099e-07
-3.623415391e-07
-3.703381391e-07
-3.834429472e-07
-3.829783895e-07
-3.757749152e-07
-3.696931961e-07
-3.850760127e-07
-3.968445831e-07
-3.896740333e-07
-3.753131405e-07
-3.868010293e-07
-4.065933913e-07
-3.987942672e-07
-3.851370798e-07
-3.712584943e-07
-3.879629932e-07
-4.045990745e-07
-3.894522546e-07
-3.517383283e-07
-3.746028264e-07
-4.150954555e-07
-3.911845423e-07
-3.549724398e-07
-3.741942169e-07
-4.145093833e-07
-3.961782398e-07
-3.626055729e-07
-3.747576488e-07
-4.120449784e-07
-3.90450221e-07
-3.584007336e-07
-3.709810317e-07
-3.929641629e-07
-3.86448496e-07
-3.647367563e-07
-3.651027164e-07
-3.781402267e-07
-3.795961442e-07
-3.713076569e-07
-3.56460609e-07
-3.605599145e-07
-3.732524548e-07
-3.62703841e-07
-3.472958976e-07
-3.351019358e-07
-3.443814044e-07
-3.588314357e-07
-3.331654777e-07
-3.007874352e-07
-3.166202132e-07
-3.26380302e-07
-2.995886338e-07
-2.767996323e-07
-2.729967309e-07
-2.808411516e-07
-2.681603237e-07
-2.392617244e-07
-2.309693122e-07
-2.110832369e-07
-1.854018441e-07
-1.817975684e-07
-1.702504545e-07
-1.521059314e-07
-1.188654837e-07
-1.006428198e-07
-7.604415548e-08
-3.130962141e-08
-6.339029886e-09
-5.219386872e-08
-6.997230474e-07
-1.348122169e-06
-1.354583877e-06
-1.260845584e-06
)


100
(
-2.166780942e-07
-2.145526237e-07
-2.164542474e-07
-2.301205463e-07
-2.474956823e-07
-2.563843973e-07
-2.657679838e-07
-2.726783201e-07
-2.837530327e-07
-2.959145571e-07
-2.970936309e-07
-3.084139031e-07
-3.146950001e-07
-3.129951939e-07
-3.237530402e-07
-3.283231287e-07
-3.205602402e-07
-3.268087897e-07
-3.401503673e-07
-3.402875774e-07
-3.338121647e-07
-3.419377772e-07
-3.573397898e-07
-3.578063928e-07
-3.505111993e-07
-3.542313457e-07
-3.690503687e-07
-3.746847872e-07
-3.70377941e-07
-3.668315921e-07
-3.808074451e-07
-3.922841859e-07
-3.847517885e-07
-3.654160168e-07
-3.804946068e-07
-4.045322781e-07
-3.988794176e-07
-3.617932436e-07
-3.731564076e-07
-4.152192335e-07
-4.061881009e-07
-3.748502741e-07
-3.617111581e-07
-3.980948462e-07
-4.185026417e-07
-3.774422197e-07
-3.350327734e-07
-3.870619138e-07
-4.262096304e-07
-3.827909469e-07
-3.540202813e-07
-3.816770738e-07
-4.074740583e-07
-3.887775706e-07
-3.695036694e-07
-3.811046939e-07
-3.886688277e-07
-3.889499991e-07
-3.921426006e-07
-3.77540402e-07
-3.701706199e-07
-3.859873131e-07
-3.929944361e-07
-3.752657631e-07
-3.561777113e-07
-3.59798307e-07
-3.76770821e-07
-3.697263134e-07
-3.5443192e-07
-3.435054678e-07
-3.480401389e-07
-3.561406634e-07
-3.467019982e-07
-3.16398694e-07
-3.234643022e-07
-3.341641902e-07
-3.070941265e-07
-2.905185794e-07
-2.859355567e-07
-3.003092112e-07
-2.896018426e-07
-2.387253243e-07
-2.339764129e-07
-2.379313251e-07
-2.090458236e-07
-1.953182601e-07
-1.801671009e-07
-1.649556923e-07
-1.517724591e-07
-1.281550194e-07
-9.551947146e-08
-7.272701198e-08
-3.503555732e-08
3.452817144e-09
3.088716635e-08
-1.672529079e-07
-9.284944856e-07
-1.506855699e-06
-1.488163892e-06
-1.399018579e-06
)


100
(
-1.989109921e-07
-1.97573176e-07
-1.995957565e-07
-2.161777391e-07
-2.323848165e-07
-2.418116015e-07
-2.515888867e-07
-2.617201468e-07
-2.683892289e-07
-2.827093299e-07
-2.909799735e-07
-2.93366939e-07
-3.044023579e-07
-3.069153865e-07
-3.073921381e-07
-3.185997632e-07
-3.226935685e-07
-3.161695875e-07
-3.215560705e-07
-3.366904235e-07
-3.403463973e-07
-3.342785188e-07
-3.35890007e-07
-3.520288202e-07
-3.595483191e-07
-3.522296655e-07
-3.572454806e-07
-3.741738031e-07
-3.791285342e-07
-3.683692687e-07
-3.557804025e-07
-3.76428092e-07
-3.972995533e-07
-3.802341989e-07
-3.549986985e-07
-3.79826399e-07
-4.130854053e-07
-3.886684644e-07
-3.477404874e-07
-3.752746259e-07
-4.20008209e-07
-3.992978931e-07
-3.620269956e-07
-3.621251047e-07
-4.105051924e-07
-4.028000415e-07
-3.617549409e-07
-3.492968995e-07
-3.91023682e-07
-4.062014923e-07
-3.718477898e-07
-3.658903717e-07
-3.709460213e-07
-3.929604241e-07
-3.98703266e-07
-3.895019596e-07
-3.779509609e-07
-3.734155651e-07
-3.889958629e-07
-3.987303778e-07
-3.865592589e-07
-3.693222647e-07
-3.543441223e-07
-3.720496346e-07
-3.850166628e-07
-3.651061295e-07
-3.589229842e-07
-3.443523116e-07
-3.468309048e-07
-3.64046408e-07
-3.50383306e-07
-3.196695856e-07
-3.149454242e-07
-3.300516665e-07
-3.138416692e-07
-3.054546194e-07
-3.019571629e-07
-3.042226942e-07
-2.973822581e-07
-2.51619516e-07
-2.457979542e-07
-2.516669934e-07
-2.321870561e-07
-2.170593369e-07
-2.000615527e-07
-1.779153807e-07
-1.62528796e-07
-1.539270263e-07
-1.31922478e-07
-9.52781361e-08
-7.122643669e-08
-4.114021653e-08
2.005967917e-09
3.800522213e-08
7.656612166e-08
-2.893561975e-07
-1.145768166e-06
-1.584397023e-06
-1.564519361e-06
-1.542902543e-06
)


100
(
-1.79748796e-07
-1.803881173e-07
-1.84946232e-07
-2.018897436e-07
-2.15982658e-07
-2.284320556e-07
-2.366572318e-07
-2.487867488e-07
-2.599467781e-07
-2.675634424e-07
-2.803200579e-07
-2.828413207e-07
-2.888437839e-07
-2.998178015e-07
-2.994507231e-07
-3.010368752e-07
-3.12946464e-07
-3.175061736e-07
-3.122440587e-07
-3.155500166e-07
-3.317884223e-07
-3.392860619e-07
-3.33045309e-07
-3.273733697e-07
-3.441857197e-07
-3.59447533e-07
-3.526168098e-07
-3.615134119e-07
-3.791630369e-07
-3.825444478e-07
-3.532143557e-07
-3.43873463e-07
-3.833323415e-07
-4.006529643e-07
-3.660199762e-07
-3.426625931e-07
-3.863385524e-07
-4.148126922e-07
-3.723829557e-07
-3.368887109e-07
-3.769430391e-07
-4.145616171e-07
-3.84425459e-07
-3.529209597e-07
-3.684797984e-07
-3.939282317e-07
-3.824777105e-07
-3.643054182e-07
-3.61261555e-07
-3.721307548e-07
-3.915421649e-07
-3.952095389e-07
-3.889818961e-07
-3.734407415e-07
-3.542798172e-07
-3.78763928e-07
-4.019030759e-07
-3.839774183e-07
-3.678421907e-07
-3.59385286e-07
-3.7785959e-07
-3.875084471e-07
-3.708784768e-07
-3.66975196e-07
-3.56832681e-07
-3.450883849e-07
-3.603615206e-07
-3.723004433e-07
-3.393957379e-07
-3.051955009e-07
-3.210866155e-07
-3.311781862e-07
-3.201823532e-07
-3.136181403e-07
-2.958293756e-07
-3.069517788e-07
-2.988141682e-07
-2.531730465e-07
-2.513310993e-07
-2.609994684e-07
-2.487557628e-07
-2.344867346e-07
-2.212367729e-07
-2.031318992e-07
-1.763617177e-07
-1.633282365e-07
-1.557763834e-07
-1.336685207e-07
-9.920975984e-08
-6.424804338e-08
-3.976304653e-08
-1.24636387e-08
2.618726763e-08
7.522729277e-08
1.048594084e-07
-4.204249446e-07
-1.305427716e-06
-1.639779156e-06
-1.607257316e-06
-1.571974914e-06
)


100
(
-1.630929725e-07
-1.650656735e-07
-1.712062877e-07
-1.870792668e-07
-2.017962506e-07
-2.142131246e-07
-2.241851564e-07
-2.340291703e-07
-2.476329938e-07
-2.541859199e-07
-2.655230773e-07
-2.771112827e-07
-2.745646759e-07
-2.834017572e-07
-2.945867717e-07
-2.923351787e-07
-2.934604147e-07
-3.057228711e-07
-3.128843444e-07
-3.090383588e-07
-3.079925556e-07
-3.249971737e-07
-3.376772445e-07
-3.314440865e-07
-3.230893657e-07
-3.342943635e-07
-3.533221062e-07
-3.533627246e-07
-3.65680571e-07
-3.845600538e-07
-3.771885708e-07
-3.364637527e-07
-3.377211166e-07
-3.882557266e-07
-3.894732171e-07
-3.500163181e-07
-3.410279041e-07
-3.927549701e-07
-3.966124696e-07
-3.538168576e-07
-3.413093022e-07
-3.733411606e-07
-3.91674621e-07
-3.66487725e-07
-3.547429025e-07
-3.573445889e-07
-3.774144479e-07
-3.891147597e-07
-3.850770229e-07
-3.767067177e-07
-3.601696141e-07
-3.584459626e-07
-3.829015858e-07
-3.96296092e-07
-3.778141015e-07
-3.583876334e-07
-3.500115559e-07
-3.653752086e-07
-3.820622581e-07
-3.694489015e-07
-3.654102899e-07
-3.595676873e-07
-3.514149706e-07
-3.655349573e-07
-3.724256546e-07
-3.490269042e-07
-3.193565828e-07
-3.198224978e-07
-3.394901737e-07
-3.308411373e-07
-3.223041438e-07
-3.032410163e-07
-2.959274504e-07
-3.24268481e-07
-2.920638766e-07
-2.437017591e-07
-2.536412596e-07
-2.674114755e-07
-2.55211409e-07
-2.408104588e-07
-2.299626597e-07
-2.170281963e-07
-1.943661997e-07
-1.784923964e-07
-1.750317685e-07
-1.585999681e-07
-1.345243681e-07
-9.419304837e-08
-6.270751038e-08
-4.69833304e-08
-1.990897164e-08
2.464158616e-08
7.675588104e-08
1.076148489e-07
9.703580703e-08
-5.456453166e-07
-1.425924915e-06
-1.680439959e-06
-1.6593512e-06
-1.627977749e-06
)


100
(
-1.496500098e-07
-1.514865277e-07
-1.570878932e-07
-1.71864253e-07
-1.889533444e-07
-1.997660932e-07
-2.109758879e-07
-2.204550881e-07
-2.337950409e-07
-2.467956868e-07
-2.487067652e-07
-2.619995647e-07
-2.716458118e-07
-2.663046935e-07
-2.770278451e-07
-2.885088121e-07
-2.846735364e-07
-2.847337203e-07
-2.989271721e-07
-3.091192689e-07
-3.059066957e-07
-2.997708843e-07
-3.167262786e-07
-3.35251346e-07
-3.300357357e-07
-3.217128026e-07
-3.227590518e-07
-3.430363054e-07
-3.539177846e-07
-3.697235119e-07
-3.898295961e-07
-3.592069952e-07
-3.184135177e-07
-3.403810935e-07
-3.885120357e-07
-3.714405427e-07
-3.339174436e-07
-3.438186051e-07
-3.784661721e-07
-3.746138647e-07
-3.485461106e-07
-3.405960831e-07
-3.532050298e-07
-3.783355019e-07
-3.790244915e-07
-3.703678686e-07
-3.581385383e-07
-3.472809902e-07
-3.673903867e-07
-3.862606314e-07
-3.777103026e-07
-3.627461817e-07
-3.489323116e-07
-3.495363318e-07
-3.753418782e-07
-3.800217122e-07
-3.608843142e-07
-3.580770131e-07
-3.490096573e-07
-3.431712937e-07
-3.623363834e-07
-3.733949358e-07
-3.476129745e-07
-3.188211937e-07
-3.246225577e-07
-3.461774582e-07
-3.359081939e-07
-3.209490654e-07
-3.166829654e-07
-3.035234196e-07
-3.187902695e-07
-3.207927062e-07
-2.751094416e-07
-2.461213807e-07
-2.620039975e-07
-2.703065237e-07
-2.532226446e-07
-2.418520368e-07
-2.33221147e-07
-2.204502145e-07
-2.008417291e-07
-1.932730826e-07
-1.923362694e-07
-1.72321451e-07
-1.462672879e-07
-1.209375127e-07
-9.009372293e-08
-7.486778246e-08
-5.277397726e-08
-2.139687414e-08
1.976399068e-08
5.539120343e-08
1.019759121e-07
1.544180779e-07
8.345671336e-08
-6.981024002e-07
-1.542754652e-06
-1.702996112e-06
-1.716016241e-06
-1.703377675e-06
)


100
(
-1.37542903e-07
-1.390945349e-07
-1.439430555e-07
-1.592231657e-07
-1.756821592e-07
-1.863381496e-07
-1.97258416e-07
-2.08979456e-07
-2.183428467e-07
-2.330099826e-07
-2.421407525e-07
-2.446010595e-07
-2.569972771e-07
-2.632854539e-07
-2.578221453e-07
-2.695967635e-07
-2.816997264e-07
-2.779522289e-07
-2.758031018e-07
-2.914441634e-07
-3.062523596e-07
-3.03117963e-07
-2.964859546e-07
-3.067626806e-07
-3.264673238e-07
-3.287188866e-07
-3.202934366e-07
-3.12471863e-07
-3.307648005e-07
-3.498891418e-07
-3.720906578e-07
-3.810099929e-07
-3.40282522e-07
-3.116810951e-07
-3.409631905e-07
-3.692740441e-07
-3.514686545e-07
-3.330798128e-07
-3.364898993e-07
-3.543538489e-07
-3.671759215e-07
-3.657154171e-07
-3.576460726e-07
-3.398686358e-07
-3.442069854e-07
-3.689285005e-07
-3.733577012e-07
-3.575080896e-07
-3.4066385e-07
-3.352040361e-07
-3.589295176e-07
-3.76834294e-07
-3.624044431e-07
-3.502829867e-07
-3.45028032e-07
-3.375866578e-07
-3.534855339e-07
-3.723218969e-07
-3.631994111e-07
-3.411882272e-07
-3.12770261e-07
-3.2152613e-07
-3.50742249e-07
-3.375987267e-07
-3.096032033e-07
-3.142736926e-07
-3.132041165e-07
-3.215661853e-07
-3.365475776e-07
-2.913411548e-07
-2.446621483e-07
-2.719042127e-07
-2.834596131e-07
-2.5935508e-07
-2.482830148e-07
-2.393987708e-07
-2.331639113e-07
-2.191702283e-07
-2.066492737e-07
-2.039918803e-07
-1.974855527e-07
-1.799407228e-07
-1.613977129e-07
-1.362576479e-07
-1.042643362e-07
-1.014934602e-07
-8.877822536e-08
-4.190096988e-08
-1.539368339e-08
1.716235736e-08
5.320067004e-08
9.248107383e-08
1.483446396e-07
1.902305619e-07
-2.472087735e-08
-9.044615588e-07
-1.622636815e-06
-1.718603421e-06
-1.734191038e-06
-1.722087923e-06
)


100
(
-1.246051725e-07
-1.266453779e-07
-1.316575691e-07
-1.474480122e-07
-1.624238262e-07
-1.741086421e-07
-1.831600894e-07
-1.957589188e-07
-2.078173359e-07
-2.175733225e-07
-2.30510004e-07
-2.351080202e-07
-2.39216208e-07
-2.510069672e-07
-2.548531116e-07
-2.486216288e-07
-2.609970441e-07
-2.751065215e-07
-2.722729509e-07
-2.674659672e-07
-2.838234854e-07
-3.027221768e-07
-2.999282587e-07
-2.936147077e-07
-2.955995822e-07
-3.156939922e-07
-3.26709522e-07
-3.183507987e-07
-3.107686241e-07
-3.146835009e-07
-3.364964397e-07
-3.757608037e-07
-3.596767553e-07
-3.181959067e-07
-3.114319227e-07
-3.272563513e-07
-3.459257007e-07
-3.469854844e-07
-3.456079717e-07
-3.346803317e-07
-3.372364892e-07
-3.558367389e-07
-3.625259306e-07
-3.549851493e-07
-3.380210204e-07
-3.213478948e-07
-3.367926403e-07
-3.657400354e-07
-3.576227757e-07
-3.383886282e-07
-3.331358293e-07
-3.26196927e-07
-3.405003011e-07
-3.613599471e-07
-3.597492095e-07
-3.523615258e-07
-3.248294939e-07
-3.029939428e-07
-3.369386012e-07
-3.581298177e-07
-3.305443998e-07
-3.063799555e-07
-2.980280249e-07
-3.077258315e-07
-3.291868653e-07
-3.336623913e-07
-2.958762004e-07
-2.502731664e-07
-2.897305337e-07
-3.019550916e-07
-2.546971593e-07
-2.494682462e-07
-2.454599887e-07
-2.373002228e-07
-2.269202962e-07
-2.191998785e-07
-2.229006988e-07
-2.180011212e-07
-1.987905752e-07
-1.789658098e-07
-1.598345055e-07
-1.409365719e-07
-1.206730826e-07
-1.184626735e-07
-1.061841494e-07
-7.808181252e-08
-3.644460733e-08
-1.45725664e-08
8.215731836e-09
5.52403134e-08
8.933790097e-08
1.381998398e-07
1.843736863e-07
2.263767293e-07
-1.845752803e-07
-1.140882414e-06
-1.66004268e-06
-1.703296867e-06
-1.760113657e-06
-1.769714145e-06
)


100
(
-1.105294107e-07
-1.13921346e-07
-1.213476874e-07
-1.358243311e-07
-1.493355952e-07
-1.616802976e-07
-1.718568123e-07
-1.817447335e-07
-1.951422856e-07
-2.036517128e-07
-2.151275552e-07
-2.26713043e-07
-2.273584036e-07
-2.323688208e-07
-2.438687099e-07
-2.465496079e-07
-2.401970118e-07
-2.521525961e-07
-2.683942449e-07
-2.672714851e-07
-2.630123127e-07
-2.752043959e-07
-2.943944739e-07
-2.96494045e-07
-2.903728725e-07
-2.853704081e-07
-3.024153096e-07
-3.20636516e-07
-3.161704205e-07
-3.089336408e-07
-3.03866278e-07
-3.189034111e-07
-3.473053035e-07
-3.377830593e-07
-3.173045672e-07
-3.193506943e-07
-3.167275222e-07
-3.327070998e-07
-3.489742704e-07
-3.418807886e-07
-3.291561001e-07
-3.13882461e-07
-3.274008891e-07
-3.516636832e-07
-3.508786539e-07
-3.352322726e-07
-3.216040821e-07
-3.134561488e-07
-3.247591274e-07
-3.394485902e-07
-3.437990674e-07
-3.449711564e-07
-3.318431226e-07
-3.004315314e-07
-3.165045399e-07
-3.558459507e-07
-3.426750866e-07
-3.13819924e-07
-2.955593693e-07
-2.882696365e-07
-3.107420379e-07
-3.363564112e-07
-3.299908997e-07
-2.972384266e-07
-2.51654212e-07
-2.860701224e-07
-3.133096597e-07
-2.644015657e-07
-2.369322887e-07
-2.387051743e-07
-2.471939557e-07
-2.48830578e-07
-2.423540833e-07
-2.336597834e-07
-2.276014205e-07
-2.113176509e-07
-1.867611135e-07
-1.714766463e-07
-1.5790975e-07
-1.42694605e-07
-1.421415187e-07
-1.378373021e-07
-1.138935128e-07
-8.191031783e-08
-4.781828802e-08
-4.424491428e-08
-3.632350031e-08
1.753430841e-08
6.667287791e-08
9.864336162e-08
1.204987601e-07
1.609854831e-07
2.275689511e-07
2.349963982e-07
-3.896808911e-07
-1.315896324e-06
-1.644913935e-06
-1.687347976e-06
-1.754233134e-06
-1.773021005e-06
)


100
(
-9.874983689e-08
-1.029940195e-07
-1.108505257e-07
-1.239356829e-07
-1.381704701e-07
-1.490250138e-07
-1.598451331e-07
-1.688051357e-07
-1.814333915e-07
-1.940811082e-07
-1.982639448e-07
-2.111102283e-07
-2.213438357e-07
-2.186530897e-07
-2.244763643e-07
-2.365803166e-07
-2.391096902e-07
-2.328769944e-07
-2.431085228e-07
-2.612823981e-07
-2.629436224e-07
-2.586393551e-07
-2.648638528e-07
-2.841397516e-07
-2.925297531e-07
-2.866033548e-07
-2.816826448e-07
-2.865500434e-07
-3.049611662e-07
-3.128561078e-07
-3.05778299e-07
-3.006933988e-07
-2.971406806e-07
-3.148180344e-07
-3.316802183e-07
-3.267007077e-07
-3.197387554e-07
-3.044840655e-07
-3.030136495e-07
-3.275492234e-07
-3.39630819e-07
-3.244530754e-07
-3.079039435e-07
-3.020535338e-07
-3.19016007e-07
-3.367176766e-07
-3.290301521e-07
-3.182495162e-07
-3.162708895e-07
-3.049224479e-07
-3.08741326e-07
-3.339208911e-07
-3.409122882e-07
-3.187491095e-07
-2.888054698e-07
-2.75774465e-07
-3.127900549e-07
-3.282410091e-07
-3.013552645e-07
-3.0979358e-07
-2.937823935e-07
-2.704840679e-07
-3.020967706e-07
-3.165853369e-07
-2.669553758e-07
-2.267146453e-07
-2.325843381e-07
-2.524631473e-07
-2.541782045e-07
-2.409418834e-07
-2.302278806e-07
-2.272213662e-07
-2.211676534e-07
-2.062755713e-07
-1.873064021e-07
-1.666515574e-07
-1.691709077e-07
-1.717732367e-07
-1.58391001e-07
-1.407117531e-07
-1.128009951e-07
-8.260596413e-08
-5.772071308e-08
-6.388619825e-08
-6.654082242e-08
-1.652563583e-08
4.017886875e-08
7.445731441e-08
7.833893578e-08
9.830110446e-08
1.456969047e-07
2.109757182e-07
2.566998838e-07
1.980034945e-07
-5.209423779e-07
-1.397320399e-06
-1.623695593e-06
-1.659628032e-06
-1.753907049e-06
-1.811964401e-06
)


100
(
-8.902158313e-08
-9.312699754e-08
-1.007055006e-07
-1.132916918e-07
-1.270857007e-07
-1.373075274e-07
-1.476810654e-07
-1.583855612e-07
-1.668722597e-07
-1.801648235e-07
-1.900145333e-07
-1.934909245e-07
-2.052859693e-07
-2.133514077e-07
-2.09892128e-07
-2.160499642e-07
-2.292729992e-07
-2.320423704e-07
-2.266002056e-07
-2.343197389e-07
-2.534010514e-07
-2.586184258e-07
-2.53967803e-07
-2.529460255e-07
-2.717818655e-07
-2.872318216e-07
-2.823531357e-07
-2.778422603e-07
-2.740634409e-07
-2.85670916e-07
-3.011669723e-07
-3.031757703e-07
-3.002268802e-07
-2.926302613e-07
-2.880448993e-07
-3.065457675e-07
-3.221915584e-07
-3.152266819e-07
-2.993185761e-07
-2.840228669e-07
-2.967178144e-07
-3.233470687e-07
-3.197922364e-07
-3.023529247e-07
-2.958415168e-07
-2.897073232e-07
-3.018208619e-07
-3.218444132e-07
-3.231759261e-07
-3.150645207e-07
-2.920480739e-07
-2.667334209e-07
-2.975239642e-07
-3.331676192e-07
-3.064585637e-07
-2.791825626e-07
-2.707279144e-07
-2.691210323e-07
-3.000142809e-07
-3.214572846e-07
-3.097715294e-07
-2.616361487e-07
-2.133032862e-07
-2.619677143e-07
-2.791094362e-07
-2.367774386e-07
-2.310708703e-07
-2.23157903e-07
-2.19009952e-07
-2.150380869e-07
-2.023265823e-07
-1.948766849e-07
-2.022279262e-07
-2.009001939e-07
-1.836831682e-07
-1.683544343e-07
-1.527194314e-07
-1.370612441e-07
-1.12577939e-07
-8.167932517e-08
-9.015976905e-08
-9.392246499e-08
-6.7721538e-08
-3.08644072e-08
2.02703439e-08
2.970490639e-08
3.859434122e-08
6.876051627e-08
1.090306135e-07
1.411568937e-07
1.920846282e-07
2.369214669e-07
2.932481637e-07
2.057506276e-07
-6.397919535e-07
-1.451338594e-06
-1.587923977e-06
-1.628485025e-06
-1.720502072e-06
-1.775817123e-06
)


100
(
-8.064064836e-08
-8.434430573e-08
-9.12144208e-08
-1.039130811e-07
-1.162686635e-07
-1.265338793e-07
-1.353293267e-07
-1.464193325e-07
-1.567420506e-07
-1.655172971e-07
-1.77336789e-07
-1.837549098e-07
-1.873789033e-07
-1.986034112e-07
-2.054888988e-07
-2.016351918e-07
-2.071589327e-07
-2.215765311e-07
-2.257226733e-07
-2.212295008e-07
-2.249625566e-07
-2.442079498e-07
-2.541646189e-07
-2.490064814e-07
-2.470121844e-07
-2.570559848e-07
-2.731304187e-07
-2.771052789e-07
-2.724470779e-07
-2.687022409e-07
-2.663123485e-07
-2.830461357e-07
-2.987382282e-07
-2.947828007e-07
-2.858689211e-07
-2.706920059e-07
-2.793189893e-07
-3.054003813e-07
-3.095879596e-07
-2.938138653e-07
-2.795210897e-07
-2.72639088e-07
-2.876114734e-07
-3.018153792e-07
-2.991030356e-07
-2.989090843e-07
-2.930002879e-07
-2.681477781e-07
-2.79104978e-07
-3.118748282e-07
-3.065063798e-07
-2.81165328e-07
-2.589001564e-07
-2.580177041e-07
-2.821070595e-07
-2.97286188e-07
-2.94332886e-07
-2.91020324e-07
-2.504061838e-07
-2.428936483e-07
-2.90248513e-07
-2.791451055e-07
-2.296004963e-07
-2.052136928e-07
-2.064412169e-07
-2.219900449e-07
-2.291981578e-07
-2.234777352e-07
-2.127811178e-07
-2.103939554e-07
-2.057026986e-07
-1.853680194e-07
-1.635275861e-07
-1.508791442e-07
-1.394341204e-07
-1.244085822e-07
-1.315994645e-07
-1.36751973e-07
-1.180290289e-07
-8.904088171e-08
-5.644218112e-08
-3.317274826e-08
-1.548735898e-08
-1.811419651e-08
9.156962093e-09
6.267047625e-08
9.124534572e-08
1.160880616e-07
1.196456328e-07
1.588414552e-07
2.223864869e-07
2.588445351e-07
3.058902456e-07
1.421874126e-07
-6.810953003e-07
-1.433641439e-06
-1.548906958e-06
-1.57772723e-06
-1.689821573e-06
-1.754118131e-06
)


100
(
-7.160267586e-08
-7.553897151e-08
-8.284959982e-08
-9.480903535e-08
-1.058159599e-07
-1.16065562e-07
-1.252381042e-07
-1.340915098e-07
-1.454025618e-07
-1.533197375e-07
-1.62592902e-07
-1.730888633e-07
-1.766350263e-07
-1.804975733e-07
-1.917514927e-07
-1.979874553e-07
-1.93970439e-07
-1.97858378e-07
-2.135267847e-07
-2.203161037e-07
-2.163717444e-07
-2.146441799e-07
-2.332176426e-07
-2.484881924e-07
-2.438433854e-07
-2.416227266e-07
-2.406306491e-07
-2.553646421e-07
-2.705750852e-07
-2.69389776e-07
-2.651252443e-07
-2.552916873e-07
-2.591415621e-07
-2.805643541e-07
-2.898079354e-07
-2.793364832e-07
-2.639483025e-07
-2.558474255e-07
-2.748523405e-07
-2.958307348e-07
-2.872531438e-07
-2.738643627e-07
-2.668494012e-07
-2.627974187e-07
-2.730500967e-07
-2.912919061e-07
-2.946627955e-07
-2.806931379e-07
-2.55011315e-07
-2.392567434e-07
-2.722971038e-07
-2.938177379e-07
-2.696851598e-07
-2.539281846e-07
-2.601337894e-07
-2.54945392e-07
-2.667257531e-07
-2.906907807e-07
-2.662769799e-07
-2.240298498e-07
-2.001455949e-07
-2.366760576e-07
-2.449240573e-07
-2.177609149e-07
-2.147643853e-07
-2.033922574e-07
-2.010436099e-07
-1.970788622e-07
-1.861362024e-07
-1.735020429e-07
-1.569924499e-07
-1.593834623e-07
-1.639398926e-07
-1.510193458e-07
-1.403335056e-07
-1.272827107e-07
-1.11348491e-07
-7.876518686e-08
-4.52330363e-08
-5.406253792e-08
-6.793113393e-08
-5.798755361e-08
-5.525557843e-09
5.564358954e-08
8.876139157e-08
8.956961428e-08
8.250312523e-08
1.206950081e-07
1.580217427e-07
1.835576942e-07
2.31502167e-07
2.921125142e-07
3.476490913e-07
5.013744498e-08
-7.547084745e-07
-1.363613804e-06
-1.509947072e-06
-1.547257835e-06
-1.665216577e-06
-1.749070839e-06
)


100
(
-6.262982024e-08
-6.710658584e-08
-7.509830576e-08
-8.605137239e-08
-9.686661635e-08
-1.057040513e-07
-1.148547794e-07
-1.227455326e-07
-1.33337619e-07
-1.439563549e-07
-1.480676749e-07
-1.582511886e-07
-1.685308639e-07
-1.691826036e-07
-1.729831599e-07
-1.846923803e-07
-1.905542119e-07
-1.869565341e-07
-1.886584867e-07
-2.052371966e-07
-2.154630108e-07