/*--------------------------------*- C++ -*----------------------------------*\
| =========                 |                                                 |
| \\      /  F ield         | OpenFOAM: The Open Source CFD Toolbox           |
|  \\    /   O peration     | Version:  2.3.1                                 |
|   \\  /    A nd           | Web:      www.OpenFOAM.org                      |
|    \\/     M anipulation  |                                                 |
\*---------------------------------------------------------------------------*/
FoamFile
{
    version     2.0;
    format      ascii;
    class       dictionary;
    location    "constant";
    object      DPSI34;
}
// * * * * * * * * * * * * * * * * * * * * * * * * * * * * * * * * * * * * * //

DPSI34_table
100
(

100
(
-1.633870883e-13
-8.635254044e-14
2.176317229e-14
6.369754445e-14
8.096970153e-14
8.518757762e-14
8.194496245e-14
7.7693922e-14
7.14926476e-14
6.631739932e-14
5.814018868e-14
5.047219162e-14
4.687455617e-14
4.082674144e-14
3.59178692e-14
3.402369649e-14
2.99025259e-14
2.615369644e-14
2.525040123e-14
2.260916825e-14
1.937310365e-14
1.819498963e-14
1.719143848e-14
1.47619241e-14
1.288733459e-14
1.25572448e-14
1.170154442e-14
1.006252798e-14
9.019403988e-15
8.806188817e-15
7.884188341e-15
6.536002476e-15
5.944217484e-15
5.817837523e-15
5.523843551e-15
4.832020879e-15
4.324645341e-15
4.222772642e-15
3.958074217e-15
3.34812972e-15
2.904858403e-15
2.825480561e-15
2.639904073e-15
2.222400805e-15
1.931066619e-15
1.890107761e-15
1.848637422e-15
1.604553543e-15
1.366947999e-15
1.339882885e-15
1.27956169e-15
1.081619505e-15
9.174684724e-16
8.955891183e-16
8.263903014e-16
6.965520602e-16
6.083646304e-16
5.608943186e-16
4.956922328e-16
4.386048178e-16
3.879022944e-16
3.389437425e-16
3.100993568e-16
2.88952205e-16
2.553395898e-16
2.200824883e-16
1.998389113e-16
1.81623716e-16
1.532646632e-16
1.314075213e-16
1.230529404e-16
1.064771672e-16
8.293903379e-17
7.951548098e-17
7.153237929e-17
4.939172454e-17
4.929305977e-17
4.279067977e-17
2.846307361e-17
2.74694594e-17
1.60762152e-17
1.349491125e-17
1.129700543e-17
5.852930994e-18
4.730089841e-18
2.104081852e-18
2.178958194e-18
8.498882172e-19
1.96283119e-18
1.63121529e-18
1.155098491e-18
7.606174558e-19
5.225359051e-19
3.62599791e-19
2.168881446e-19
1.238906456e-19
7.617912183e-20
7.280480842e-20
4.35264686e-20
1.75565172e-20
)


100
(
-2.818937872e-13
-1.470726544e-13
2.389175069e-14
7.950981158e-14
1.002377135e-13
9.649868379e-14
9.223798005e-14
8.583005853e-14
7.695705156e-14
7.082656753e-14
6.119325535e-14
5.22490781e-14
4.730500372e-14
4.138597664e-14
3.674225865e-14
3.406820411e-14
3.015649969e-14
2.738803627e-14
2.596174948e-14
2.326707275e-14
2.116226213e-14
1.977625289e-14
1.803280045e-14
1.61206323e-14
1.497674454e-14
1.396197654e-14
1.254194538e-14
1.138838009e-14
1.081791421e-14
1.013254417e-14
9.008552041e-15
8.141353995e-15
7.597369675e-15
7.036741872e-15
6.405318102e-15
5.869849407e-15
5.455434266e-15
5.152603892e-15
4.733861165e-15
4.264155725e-15
3.888728641e-15
3.640006427e-15
3.37738976e-15
3.065015184e-15
2.77551228e-15
2.54842068e-15
2.350444167e-15
2.127438709e-15
1.889675661e-15
1.684479622e-15
1.537078796e-15
1.404211349e-15
1.275502844e-15
1.164151109e-15
1.079839806e-15
9.829399352e-16
8.092976925e-16
5.027098021e-16
-3.072816464e-17
-5.695525219e-16
2.840928078e-17
1.176974522e-15
9.408735768e-16
-1.888242153e-18
1.313348875e-16
7.9350243e-16
4.541709575e-16
-7.346470547e-17
2.964198412e-16
5.919401629e-16
1.627947291e-16
2.044877453e-17
3.388879989e-16
-1.215290138e-16
-5.711121651e-16
4.132638035e-16
5.157102446e-16
-2.641167785e-16
4.113097408e-16
2.915929825e-16
-8.130059273e-17
3.331561702e-16
-2.027231465e-16
1.17343803e-16
2.721672883e-16
-2.913561757e-16
1.520068314e-16
-1.2690039e-16
-1.17505611e-16
2.507454531e-17
-2.453338879e-16
-4.502637233e-16
-5.375942986e-16
-6.553588815e-16
-5.611693315e-16
-3.117010324e-16
-1.148872977e-16
2.187169565e-15
2.491226773e-15
1.119816414e-15
)


100
(
-3.673115366e-13
-1.891281478e-13
2.720316941e-14
8.057332602e-14
9.714817275e-14
9.551252037e-14
9.106320399e-14
8.544697214e-14
7.839801299e-14
7.204995395e-14
6.521103342e-14
5.683328729e-14
5.11165584e-14
4.571628243e-14
4.096742167e-14
3.779689246e-14
3.46035416e-14
3.145479544e-14
2.940269518e-14
2.726461037e-14
2.486190453e-14
2.297855869e-14
2.126576243e-14
1.944819365e-14
1.776414492e-14
1.636257579e-14
1.504361625e-14
1.383873892e-14
1.280922354e-14
1.183204472e-14
1.086438914e-14
9.9174994e-15
9.042177297e-15
8.23495857e-15
7.570827731e-15
7.046250177e-15
6.540506915e-15
5.946630425e-15
5.365269585e-15
4.936655179e-15
4.52797839e-15
4.063277575e-15
3.575088601e-15
3.364522328e-15
3.337036556e-15
3.13431933e-15
2.782564245e-15
2.512620469e-15
2.406207169e-15
2.176600642e-15
1.709362865e-15
1.127748577e-15
9.660404741e-16
1.065819666e-15
9.498773613e-16
6.262684575e-16
6.2586129e-16
7.251464352e-16
2.078594348e-16
-1.057494584e-15
-2.064344007e-15
-9.658602311e-16
1.203511258e-15
1.843505794e-15
8.44576149e-16
4.152522075e-16
8.694717206e-16
9.595430788e-16
7.118022119e-16
7.592350404e-16
9.121445642e-16
7.507046009e-16
6.002635107e-16
1.655517363e-16
-1.485631896e-15
-3.179704026e-15
-1.312469775e-15
9.392204334e-16
2.567214996e-16
2.384030398e-17
-1.126442446e-15
-5.782603302e-16
-1.756101083e-15
-2.507614329e-15
2.417277194e-16
-1.451366815e-15
-1.955755079e-15
-1.372984355e-15
-3.743582272e-15
-5.397410935e-15
-5.328273591e-15
-6.501896704e-15
-1.194885422e-14
-1.040425036e-14
-7.518286508e-15
-1.165445326e-14
1.189033021e-14
3.813398987e-14
2.718875182e-14
1.503889879e-14
)


100
(
-4.14768266e-13
-2.175334631e-13
2.113593985e-14
7.217523119e-14
8.921975006e-14
9.305043662e-14
9.025783456e-14
8.610487397e-14
8.115897495e-14
7.490975597e-14
6.898026553e-14
6.218353962e-14
5.599800298e-14
5.055596481e-14
4.563338856e-14
4.169501294e-14
3.824831357e-14
3.508986057e-14
3.230350757e-14
2.988168133e-14
2.753434843e-14
2.532486718e-14
2.319199176e-14
2.13132645e-14
1.965933643e-14
1.797484016e-14
1.621905192e-14
1.488274671e-14
1.401929521e-14
1.310403851e-14
1.177156343e-14
1.056748681e-14
9.758728099e-15
8.875078874e-15
7.851048414e-15
6.991863207e-15
6.679507192e-15
6.463148693e-15
5.870313643e-15
4.873192401e-15
3.984883475e-15
3.704154814e-15
3.325540063e-15
2.619596733e-15
1.676487802e-15
1.724386456e-15
2.280969218e-15
2.082930316e-15
1.145863166e-15
1.136281965e-15
1.795023227e-15
1.565200837e-15
9.711542716e-16
1.109101345e-15
1.924542707e-15
1.850800667e-15
8.98520215e-16
8.525227804e-16
1.853741816e-15
1.520461621e-15
2.814471945e-17
-8.599978919e-16
8.18225898e-18
1.667880963e-15
2.474473623e-15
2.137862819e-15
1.578822599e-15
9.310587164e-16
-4.339522336e-16
-1.660804625e-15
-2.439948793e-15
-3.574335642e-15
-4.73039778e-15
-2.954313761e-15
-2.434581916e-15
-8.715230771e-15
-5.63159928e-15
2.284811374e-15
-6.717578775e-15
-8.587976159e-15
-7.310934249e-16
-5.638136376e-15
-5.891714722e-15
-2.56816711e-15
-7.89875064e-15
-1.334196391e-14
-1.698988174e-14
-1.749102386e-14
-2.19650923e-14
-3.022410861e-14
-3.183400756e-14
-3.673112815e-14
-3.980022978e-14
-4.87942882e-14
-6.532672781e-14
-6.228210517e-14
9.631693151e-14
2.010542037e-13
1.162582719e-13
7.353338432e-14
)


100
(
-4.339325393e-13
-2.37708972e-13
4.652210947e-15
6.088214759e-14
8.235095053e-14
8.952788485e-14
8.957787991e-14
8.692805423e-14
8.292078112e-14
7.796800089e-14
7.254022167e-14
6.637003929e-14
6.035184522e-14
5.462612881e-14
4.929151655e-14
4.473128099e-14
4.0710403e-14
3.722308645e-14
3.422972131e-14
3.121399115e-14
2.856299989e-14
2.641374678e-14
2.422814907e-14
2.164068186e-14
1.967491635e-14
1.842299138e-14
1.671811497e-14
1.448286784e-14
1.300528791e-14
1.269959457e-14
1.219032183e-14
1.08022581e-14
8.6428266e-15
7.922087316e-15
7.777546506e-15
6.431363178e-15
4.139608333e-15
3.62662214e-15
4.341938844e-15
3.693765329e-15
2.956380333e-15
2.087433195e-15
2.88163506e-15
3.782220994e-15
2.694601129e-15
3.097895902e-16
1.264751701e-15
3.679450562e-15
2.769206796e-15
9.44293945e-16
1.463530502e-15
3.178745909e-15
2.715254084e-15
1.835011542e-15
2.45278256e-15
3.539490798e-15
2.261330541e-15
6.749028568e-16
1.18938844e-15
2.653482612e-15
2.851736178e-15
1.071464826e-15
-1.25159755e-15
-2.593239007e-15
-3.199717388e-15
-3.739622952e-15
-3.896903184e-15
-3.684158487e-15
-3.96100293e-15
-4.43733962e-15
-4.629384523e-15
-7.381496225e-15
-1.602559324e-14
-2.393639689e-14
-1.29002303e-14
-7.609933037e-16
-1.192900022e-14
-1.57154337e-14
-8.179349957e-15
-1.016809933e-14
-1.491119302e-14
-2.570540512e-14
-3.700829639e-14
-3.734626906e-14
-3.484218064e-14
-3.553580441e-14
-4.861909377e-14
-6.816404433e-14
-9.491955516e-14
-8.491114586e-14
-7.446043552e-14
-1.111390129e-13
-1.372557646e-13
-1.710171803e-13
-2.162742476e-13
-1.500400622e-13
3.724900208e-13
6.073835996e-13
3.249033274e-13
2.270123854e-13
)


100
(
-4.510306404e-13
-2.543511633e-13
-9.159328593e-15
5.025344117e-14
7.470215695e-14
8.52477901e-14
8.829743365e-14
8.695457003e-14
8.414429654e-14
7.972138575e-14
7.487317417e-14
6.922725801e-14
6.323332866e-14
5.744773224e-14
5.182223555e-14
4.662590973e-14
4.166596345e-14
3.742559244e-14
3.434608611e-14
3.149712479e-14
2.796547586e-14
2.492596899e-14
2.312667854e-14
2.099250168e-14
1.77174794e-14
1.495985907e-14
1.418304087e-14
1.344772242e-14
1.13508635e-14
8.698905928e-15
8.64370463e-15
9.48500666e-15
8.325892015e-15
5.070135701e-15
5.440476567e-15
7.737203928e-15
6.564066626e-15
1.360596117e-15
7.806191751e-16
4.610547169e-15
4.099829261e-15
1.910796119e-15
1.316544825e-15
4.693834528e-15
6.203538378e-15
2.55799462e-15
-1.062801985e-15
2.825504888e-15
6.324356479e-15
3.672271863e-15
1.349123636e-15
2.450691243e-15
3.895025281e-15
3.164998523e-15
2.253158751e-15
2.130878247e-15
6.314826268e-17
-3.883977324e-15
-7.094000577e-15
-9.318040585e-15
-9.077932677e-15
-6.560165089e-15
-5.376533985e-15
-6.177990211e-15
-6.967387375e-15
-7.042701327e-15
-6.244720504e-15
-5.553181791e-15
-5.818790831e-15
-8.941109262e-15
-1.512539189e-14
-2.181286806e-14
-2.737775638e-14
-3.298747755e-14
-3.956994299e-14
-2.882652479e-14
-1.875183583e-14
-2.956671776e-14
-4.755069748e-14
-6.183907503e-14
-6.619047672e-14
-6.966171667e-14
-7.150977354e-14
-8.283035212e-14
-1.062355552e-13
-1.106675162e-13
-1.141884658e-13
-1.809160541e-13
-1.986112338e-13
-1.569267394e-13
-2.219661853e-13
-2.740274227e-13
-3.21519967e-13
-4.203580323e-13
-5.07175649e-13
-6.624393962e-14
9.803125427e-13
1.189526989e-12
7.079041818e-13
5.440568934e-13
)


100
(
-4.627613275e-13
-2.677692756e-13
-2.207163143e-14
3.863450088e-14
6.567318586e-14
8.010485455e-14
8.557798654e-14
8.583509541e-14
8.386584515e-14
8.027097095e-14
7.539694925e-14
7.016097917e-14
6.448198747e-14
5.854537111e-14
5.244939354e-14
4.689141912e-14
4.14220349e-14
3.542092278e-14
3.088513323e-14
2.864877926e-14
2.611365207e-14
2.183334933e-14
1.769261019e-14
1.653453557e-14
1.493652051e-14
1.029260563e-14
7.929705453e-15
9.496518727e-15
1.027204596e-14
7.709648015e-15
3.53508128e-15
5.372064012e-15
8.914891745e-15
6.463880456e-15
2.128263366e-15
5.363220237e-15
1.03239524e-14
6.203248985e-15
-7.077999477e-16
1.622349657e-15
7.46966694e-15
5.713715702e-15
2.38036823e-15
2.994950973e-15
7.845933045e-15
6.268491505e-15
9.054706695e-16
-1.420575353e-15
2.277436351e-15
4.198657713e-15
4.60622698e-16
-2.493950165e-15
-6.09360896e-15
-7.478566474e-15
-8.675362539e-15
-1.047350167e-14
-1.175528886e-14
-1.238525027e-14
-1.207117352e-14
-1.283999005e-14
-1.40974357e-14
-1.457367215e-14
-1.643930002e-14
-1.508471618e-14
-1.229450197e-14
-1.525317109e-14
-2.376779452e-14
-3.600570054e-14
-4.031685388e-14
-3.818398651e-14
-3.920071036e-14
-4.198579701e-14
-4.369631433e-14
-4.335751588e-14
-4.982194994e-14
-6.895934888e-14
-8.961608658e-14
-9.996517603e-14
-1.036670589e-13
-1.075789538e-13
-1.146601376e-13
-1.431184786e-13
-1.804362758e-13
-1.916295464e-13
-1.930961838e-13
-2.19227016e-13
-2.529906916e-13
-3.13505158e-13
-3.608990055e-13
-3.262684005e-13
-3.469261453e-13
-4.682372642e-13
-6.132043183e-13
-7.956919335e-13
-9.552142399e-13
2.011753245e-13
1.892632222e-12
1.921566898e-12
1.313829816e-12
1.128088853e-12
)


100
(
-4.697219615e-13
-2.779881362e-13
-3.502667514e-14
2.588575267e-14
5.664072471e-14
7.363799323e-14
8.107109072e-14
8.328324396e-14
8.144223703e-14
7.864801278e-14
7.430050885e-14
6.866647414e-14
6.29353286e-14
5.746703919e-14
5.101406772e-14
4.424121733e-14
3.854521337e-14
3.205938065e-14
2.499467227e-14
2.01170034e-14
1.910208458e-14
1.77429152e-14
1.288961711e-14
7.174868575e-15
7.943928877e-15
9.121225913e-15
3.390778999e-15
2.424203171e-15
6.629541192e-15
9.033531251e-15
2.513140533e-15
-8.135027672e-16
7.684686612e-15
1.208713584e-14
5.368966544e-15
5.963677713e-16
8.985386669e-15
1.408301227e-14
5.643574676e-15
-2.115090543e-15
3.525180291e-15
1.028983901e-14
6.595605285e-15
1.919425449e-15
2.645676486e-15
3.678009669e-15
-1.166171168e-15
-8.050695746e-15
-1.385567269e-14
-1.719243103e-14
-1.609845553e-14
-1.593272402e-14
-1.794925738e-14
-2.162622915e-14
-2.578502559e-14
-2.103787486e-14
-1.538653493e-14
-1.653146709e-14
-1.811051055e-14
-2.211294907e-14
-2.322222129e-14
-2.459949289e-14
-3.335116714e-14
-4.71480616e-14
-6.204779632e-14
-6.739285957e-14
-6.245295716e-14
-6.029661455e-14
-6.86902399e-14
-7.93297482e-14
-7.954100316e-14
-7.846858985e-14
-9.253740079e-14
-1.164145877e-13
-1.326300753e-13
-1.335707551e-13
-1.393458109e-13
-1.563271807e-13
-1.683771624e-13
-1.965046384e-13
-2.333780939e-13
-2.506451114e-13
-2.637502453e-13
-2.918756007e-13
-3.396839968e-13
-3.778015797e-13
-3.966969555e-13
-4.50760393e-13
-5.148777148e-13
-5.548637433e-13
-6.805448179e-13
-8.644174844e-13
-1.086427237e-12
-1.439873946e-12
-1.60648054e-12
8.823110427e-13
3.364547849e-12
2.823823518e-12
2.118599532e-12
1.972237757e-12
)


100
(
-4.71000624e-13
-2.857761355e-13
-4.864809513e-14
1.340813434e-14
4.650013957e-14
6.554254785e-14
7.48893233e-14
7.843851335e-14
7.772384875e-14
7.420134082e-14
7.026469662e-14
6.534715372e-14
5.778540001e-14
5.170808678e-14
4.676329967e-14
3.923572369e-14
3.207466211e-14
2.468970696e-14
1.748195787e-14
1.130738837e-14
5.16616222e-15
6.85818208e-15
9.094648693e-15
4.790317979e-15
-6.171708995e-16
5.700335169e-16
4.115092406e-15
-4.169450373e-16
3.107057179e-16
7.059547352e-15
8.1881037e-15
-1.647287977e-15
-1.56815461e-15
1.276500861e-14
1.416128453e-14
4.912719176e-15
2.53033184e-15
1.343372488e-14
1.312927156e-14
1.457689671e-15
-4.191394515e-15
5.328192357e-16
3.695958022e-15
-2.818917179e-15
-9.421601548e-15
-1.75712029e-14
-2.209641928e-14
-2.594311582e-14
-3.181949186e-14
-3.555717165e-14
-3.920068709e-14
-3.824371921e-14
-3.056124267e-14
-2.716265171e-14
-3.148948075e-14
-3.656071831e-14
-4.226067979e-14
-4.105429288e-14
-3.60656731e-14
-4.281467743e-14
-5.85257805e-14
-7.924998486e-14
-9.355774523e-14
-9.618996764e-14
-9.917027147e-14
-1.059937259e-13
-1.130663479e-13
-1.163088233e-13
-1.170293071e-13
-1.348301071e-13
-1.674460115e-13
-1.96007139e-13
-1.952737844e-13
-1.768124326e-13
-1.869086318e-13
-2.105013093e-13
-2.213513814e-13
-2.480406859e-13
-2.85704348e-13
-3.046566812e-13
-3.146069805e-13
-3.348867107e-13
-4.089552311e-13
-4.819166081e-13
-5.238869394e-13
-5.67956856e-13
-6.902596102e-13
-7.452565999e-13
-7.52379326e-13
-9.386369329e-13
-1.203441076e-12
-1.561260175e-12
-2.023270331e-12
-2.439471705e-12
-2.370718711e-12
2.103871841e-12
5.679263309e-12
4.231773714e-12
3.253115632e-12
3.07037325e-12
)


100
(
-4.682468824e-13
-2.913085048e-13
-6.161465021e-14
1.864367935e-15
3.518724703e-14
5.576030336e-14
6.720018734e-14
7.079094208e-14
7.120558301e-14
6.805530925e-14
6.186411192e-14
5.719256763e-14
5.16348221e-14
4.072856481e-14
3.474629623e-14
3.082941497e-14
2.11920933e-14
1.047015416e-14
6.672636704e-15
4.931132863e-15
-1.494651759e-15
-9.280673874e-15
-4.494286911e-15
3.414050333e-15
2.651151067e-16
-3.826280641e-15
-4.955569533e-15
1.215597793e-16
-3.404848754e-16
2.069929588e-15
1.091475483e-14
4.452116778e-15
-6.907276245e-15
1.329091274e-15
1.810903175e-14
1.32947423e-14
5.739849516e-16
6.726954363e-16
6.648561311e-15
5.682631608e-16
-1.390246199e-14
-2.484964292e-14
-2.986415314e-14
-2.701207427e-14
-2.917149843e-14
-3.567648577e-14
-4.526926576e-14
-5.580805594e-14
-5.286246388e-14
-4.856161367e-14
-5.204289337e-14
-5.350266826e-14
-5.652703926e-14
-6.023534447e-14
-5.582616963e-14
-5.994995343e-14
-7.921372403e-14
-9.96952129e-14
-1.228766148e-13
-1.331115692e-13
-1.226854692e-13
-1.180673938e-13
-1.348152761e-13
-1.563514493e-13
-1.639066463e-13
-1.602585362e-13
-1.725176111e-13
-2.017029226e-13
-2.360870883e-13
-2.625613252e-13
-2.592784843e-13
-2.539382207e-13
-2.649349658e-13
-2.757661567e-13
-2.817178541e-13
-3.144887883e-13
-3.623245744e-13
-3.816802529e-13
-3.904900557e-13
-4.216107632e-13
-5.079095544e-13
-5.964404727e-13
-6.575763156e-13
-7.225426204e-13
-8.329859711e-13
-1.00677443e-12
-1.109719239e-12
-1.178707822e-12
-1.395765027e-12
-1.702614664e-12
-2.18192979e-12
-2.658067135e-12
-3.395646246e-12
-4.170210927e-12
-3.049778652e-12
4.65991163e-12
9.124925064e-12
6.241601415e-12
4.93955197e-12
4.634294163e-12
)


100
(
-4.647260884e-13
-2.945475482e-13
-7.210953363e-14
-1.081271724e-14
2.281194052e-14
4.502590397e-14
5.729638912e-14
6.142700342e-14
6.079613294e-14
5.820066958e-14
5.204241042e-14
4.313517964e-14
3.786570656e-14
3.071423409e-14
1.610528794e-14
1.124370769e-14
1.023432839e-14
-2.752036315e-16
-1.198470033e-14
-1.064487156e-14
-6.049497382e-15
-1.090650742e-14
-1.711218986e-14
-1.342787192e-14
-2.6901334e-15
-7.805663696e-16
-3.868147939e-15
-8.41548344e-15
-2.898009012e-15
1.640875806e-15
5.128733002e-15
1.002573441e-14
-1.923795497e-15
-1.259230564e-14
-1.08609083e-15
8.835660926e-15
-1.598031113e-15
-1.562654286e-14
-2.522705062e-14
-3.078367604e-14
-3.784510922e-14
-4.866600293e-14
-5.926119194e-14
-7.402339674e-14
-7.436239598e-14
-6.056576062e-14
-5.856527037e-14
-6.695647834e-14
-7.797846284e-14
-8.935582032e-14
-8.400595279e-14
-7.813922727e-14
-9.203704155e-14
-1.084009816e-13
-1.312958696e-13
-1.665644652e-13
-1.771044816e-13
-1.754891982e-13
-1.90423114e-13
-2.052120153e-13
-2.20697315e-13
-2.114034856e-13
-1.898975362e-13
-2.068404483e-13
-2.463701081e-13
-2.762089221e-13
-3.023114725e-13
-3.027800466e-13
-2.960508915e-13
-3.29213415e-13
-3.665517462e-13
-3.561268756e-13
-3.660814454e-13
-4.347263806e-13
-4.969649938e-13
-5.173610396e-13
-5.238249179e-13
-5.677799294e-13
-6.624359508e-13
-7.853329696e-13
-8.928568452e-13
-9.505488805e-13
-9.897819967e-13
-1.225580695e-12
-1.444845765e-12
-1.597685582e-12
-1.769064476e-12
-2.009223202e-12
-2.399313333e-12
-2.934197607e-12
-3.6579802e-12
-4.620793306e-12
-5.954142838e-12
-6.815454107e-12
-2.529740587e-12
9.671664813e-12
1.369352307e-11
8.875962948e-12
7.337170218e-12
6.983476671e-12
)


100
(
-4.577029811e-13
-2.948384863e-13
-8.118925108e-14
-2.363689889e-14
9.968203312e-15
3.297223547e-14
4.478035954e-14
4.964255626e-14
4.769367886e-14
4.321547086e-14
3.767161706e-14
2.712018533e-14
1.623224309e-14
1.136820518e-14
2.932302595e-15
-1.423479317e-14
-1.537581406e-14
-1.058347223e-14
-1.915878027e-14
-3.11462271e-14
-2.485704926e-14
-1.260630969e-14
-1.620329615e-14
-2.118563374e-14
-2.124775211e-14
-8.605606075e-15
-3.123241199e-16
-3.552014279e-15
-8.444948968e-15
-1.164682347e-14
-6.011849299e-15
1.338525275e-14
-1.935487161e-15
-2.968406483e-14
-3.443735531e-14
-3.344353138e-14
-3.194509087e-14
-4.167011975e-14
-5.364047684e-14
-7.489378213e-14
-8.733113388e-14
-8.459312428e-14
-8.846050375e-14
-9.722282337e-14
-1.082483436e-13
-1.215530112e-13
-1.128655664e-13
-9.346262124e-14
-1.038299886e-13
-1.277308672e-13
-1.49241807e-13
-1.819531027e-13
-2.006810474e-13
-2.06717644e-13
-2.255708077e-13
-2.441293953e-13
-2.806066973e-13
-3.133729723e-13
-2.800413676e-13
-2.535492476e-13
-2.812365072e-13
-3.098849785e-13
-3.353769298e-13
-3.540757151e-13
-3.510634228e-13
-3.497359398e-13
-3.783148344e-13
-4.135376274e-13
-3.826840529e-13
-3.983636132e-13
-5.013866352e-13
-5.984434671e-13
-6.709387894e-13
-6.995184359e-13
-7.453129416e-13
-8.282486068e-13
-9.152376441e-13
-1.041866564e-12
-1.180099217e-12
-1.259690721e-12
-1.357673828e-12
-1.572995577e-12
-1.808060388e-12
-2.028065387e-12
-2.224405758e-12
-2.650296944e-12
-3.032543131e-12
-3.301550887e-12
-4.128110301e-12
-5.059276995e-12
-6.096705229e-12
-7.726587027e-12
-9.577160078e-12
-1.058863622e-11
2.197548837e-13
1.834398396e-11
1.949823627e-11
1.23877302e-11
1.055632761e-11
9.955031245e-12
)


100
(
-4.473362656e-13
-2.924146491e-13
-9.036956885e-14
-3.598303405e-14
-2.235069541e-15
1.967811069e-14
3.070260095e-14
3.442836192e-14
3.214804894e-14
2.346782124e-14
1.644517612e-14
8.960259439e-15
-6.999468993e-15
-1.807084269e-14
-1.977111104e-14
-2.679022191e-14
-4.371233221e-14
-4.061499479e-14
-2.838803732e-14
-3.268504634e-14
-4.155230786e-14
-3.56319578e-14
-2.047710021e-14
-1.906681564e-14
-2.37484113e-14
-2.931429476e-14
-1.834904129e-14
-4.558273909e-15
-8.5478543e-15
-1.70735967e-14
-3.009246566e-14
-3.386491597e-14
-2.6276921e-14
-4.43028492e-14
-7.165548815e-14
-8.336105359e-14
-1.01079143e-13
-9.692484767e-14
-8.804182734e-14
-1.025468055e-13
-1.226564847e-13
-1.490898065e-13
-1.466983504e-13
-1.296296035e-13
-1.370864213e-13
-1.572631554e-13
-1.788648934e-13
-2.072021388e-13
-2.190555105e-13
-2.225218337e-13
-2.455864805e-13
-2.740033244e-13
-3.131502259e-13
-3.786085216e-13
-3.670978302e-13
-3.112020564e-13
-3.285680564e-13
-3.659680441e-13
-3.972668906e-13
-4.254898443e-13
-4.134185644e-13
-4.016057712e-13
-4.293772394e-13
-4.758994871e-13
-5.323300881e-13
-4.806887627e-13
-4.406785678e-13
-5.178695554e-13
-6.088490649e-13
-7.232075296e-13
-8.226627447e-13
-8.984431257e-13
-9.8650895e-13
-1.062370899e-12
-1.149946308e-12
-1.382282356e-12
-1.676437708e-12
-1.777097104e-12
-1.785187511e-12
-1.947466767e-12
-2.294940209e-12
-2.653716452e-12
-2.865061666e-12
-3.110167913e-12
-3.744744161e-12
-4.322805097e-12
-4.566987841e-12
-5.596769971e-12
-7.141044097e-12
-8.423321419e-12
-9.671481156e-12
-1.183672281e-11
-1.480063231e-11
-1.503999824e-11
6.262341575e-12
2.998267041e-11
2.656732041e-11
1.776295172e-11
1.587837123e-11
1.581405278e-11
)


100
(
-4.356338069e-13
-2.896058425e-13
-9.789879604e-14
-4.597059173e-14
-1.516187869e-14
5.150922015e-15
1.573671431e-14
1.578860215e-14
1.234320882e-14
4.20373055e-15
-1.214337824e-14
-1.945967548e-14
-2.655875148e-14
-4.677871082e-14
-5.479633291e-14
-5.008454516e-14
-5.332526556e-14
-6.800383095e-14
-6.204730303e-14
-4.223034008e-14
-4.095818156e-14
-4.84583545e-14
-4.694007153e-14
-3.037328102e-14
-2.320588127e-14
-2.982858936e-14
-3.804209198e-14
-4.166577219e-14
-3.19914767e-14
-3.161023642e-14
-4.89807866e-14
-7.170381582e-14
-1.043215808e-13
-1.121562413e-13
-1.087284099e-13
-1.272410107e-13
-1.461312185e-13
-1.757038357e-13
-1.881243257e-13
-1.600262388e-13
-1.466987804e-13
-1.711028846e-13
-2.028386101e-13
-2.331056415e-13
-2.335566322e-13
-2.286928486e-13
-2.666093608e-13
-3.139845854e-13
-3.535118124e-13
-4.103790345e-13
-4.225314626e-13
-3.830835826e-13
-3.779234299e-13
-4.187801476e-13
-4.713748567e-13
-5.026687655e-13
-4.461243712e-13
-4.286457399e-13
-5.024056917e-13
-5.256213684e-13
-5.803595584e-13
-6.34666639e-13
-5.858636991e-13
-5.57432874e-13
-6.38989779e-13
-7.368761411e-13
-7.986318509e-13
-8.750364046e-13
-9.908460875e-13
-1.116196118e-12
-1.227079325e-12
-1.30763438e-12
-1.419130541e-12
-1.626480645e-12
-1.941893045e-12
-2.249157733e-12
-2.455930762e-12
-2.627329879e-12
-2.777819363e-12
-3.190387933e-12
-3.743350697e-12
-4.021001486e-12
-4.375587995e-12
-5.110235404e-12
-5.811262329e-12
-6.213921057e-12
-7.278242129e-12
-9.372840824e-12
-1.089336205e-11
-1.258048425e-11
-1.498390834e-11
-1.873412027e-11
-2.234985663e-11
-1.869116123e-11
1.544344722e-11
4.424795699e-11
3.549888752e-11
2.509315752e-11
2.203657146e-11
2.12256924e-11
)


100
(
-4.235892204e-13
-2.85443912e-13
-1.035663692e-13
-5.556054938e-14
-2.77469116e-14
-9.717945939e-15
-9.840241602e-16
-2.868422815e-15
-1.248083624e-14
-2.128484484e-14
-3.487274843e-14
-5.50376884e-14
-6.095584228e-14
-6.6661438e-14
-8.677589887e-14
-8.965994254e-14
-7.639797902e-14
-7.521180962e-14
-8.646216511e-14
-7.991516117e-14
-5.511631993e-14
-4.78730125e-14
-5.594660366e-14
-6.452561086e-14
-4.919670737e-14
-3.593466498e-14
-5.00168061e-14
-6.694466171e-14
-9.023000426e-14
-9.736086099e-14
-9.614213027e-14
-1.164616119e-13
-1.468010689e-13
-1.856280585e-13
-2.228219317e-13
-2.124764514e-13
-1.96494675e-13
-2.132182008e-13
-2.437489505e-13
-2.802910367e-13
-2.704342129e-13
-2.327172684e-13
-2.534394241e-13
-3.095831217e-13
-3.582060102e-13
-4.211981081e-13
-4.515221908e-13
-4.490669381e-13
-4.717753098e-13
-4.978886842e-13
-5.444098964e-13
-5.950831099e-13
-5.098147745e-13
-4.241620184e-13
-4.988022174e-13
-5.820750492e-13
-6.337615843e-13
-6.992188011e-13
-6.765908434e-13
-6.449729084e-13
-6.855736238e-13
-7.984771334e-13
-9.254398253e-13
-8.496735666e-13
-8.687870382e-13
-1.086263924e-12
-1.275874184e-12
-1.449071771e-12
-1.538761159e-12
-1.607885234e-12
-1.767145869e-12
-1.993952247e-12
-2.24310235e-12
-2.532536983e-12
-2.844360113e-12
-3.123206778e-12
-3.4439993e-12
-3.912604955e-12
-4.5563753e-12
-5.106114836e-12
-5.398021638e-12
-5.779404818e-12
-6.718585768e-12
-7.849810416e-12
-8.556091915e-12
-9.318898369e-12
-1.095001946e-11
-1.310745041e-11
-1.573467402e-11
-1.864607754e-11
-2.179273339e-11
-2.772764742e-11
-3.306959733e-11
-2.367014875e-11
2.699101917e-11
6.17311159e-11
4.728953894e-11
3.488992487e-11
3.383143347e-11
3.553482641e-11
)


100
(
-4.115994746e-13
-2.801974561e-13
-1.073804713e-13
-6.480681453e-14
-3.982494473e-14
-2.403933422e-14
-1.973689981e-14
-2.347481149e-14
-3.642585637e-14
-5.26327803e-14
-6.510235034e-14
-8.293162916e-14
-1.022565549e-13
-1.03346054e-13
-1.046287718e-13
-1.222438743e-13
-1.21070218e-13
-9.95920381e-14
-9.287437854e-14
-1.014547659e-13
-9.935426543e-14
-7.28280756e-14
-5.957863295e-14
-7.167657475e-14
-8.663307329e-14
-9.114754214e-14
-8.684480817e-14
-1.021713743e-13
-1.335071103e-13
-1.698792513e-13
-2.151771549e-13
-2.168538844e-13
-2.080428906e-13
-2.382376716e-13
-2.778469552e-13
-3.348366506e-13
-3.394509804e-13
-2.941888582e-13
-2.921879727e-13
-3.36263144e-13
-3.855893992e-13
-4.371009416e-13
-4.41554866e-13
-4.407252052e-13
-4.927200255e-13
-5.408105368e-13
-5.915641022e-13
-7.003121969e-13
-6.797875966e-13
-5.669921171e-13
-5.647887148e-13
-6.054132629e-13
-6.479555076e-13
-6.756860436e-13
-6.619279726e-13
-6.884452941e-13
-7.80032778e-13
-8.322936524e-13
-9.738076996e-13
-1.013544128e-12
-8.795298695e-13
-9.463734803e-13
-1.153676199e-12
-1.343390831e-12
-1.555422082e-12
-1.714928654e-12
-1.831913078e-12
-1.99532113e-12
-2.169164536e-12
-2.291303854e-12
-2.483965938e-12
-2.978027134e-12
-3.527243955e-12
-3.811680911e-12
-4.049095923e-12
-4.496871305e-12
-5.051877836e-12
-5.742287753e-12
-6.502775053e-12
-7.077862849e-12
-7.712004186e-12
-8.98058022e-12
-1.02583395e-11
-1.091862782e-11
-1.20613746e-11
-1.411423336e-11
-1.652033526e-11
-1.934998785e-11
-2.154728145e-11
-2.582921319e-11
-3.081533776e-11
-3.791339883e-11
-4.500164263e-11
-2.753917187e-11
3.972589158e-11
8.072988966e-11
6.211698919e-11
4.736317893e-11
5.011700139e-11
5.584734918e-11
)


100
(
-3.96831002e-13
-2.727470215e-13
-1.108102326e-13
-7.276793884e-14
-5.048604867e-14
-3.812197006e-14
-3.814299204e-14
-4.6765649e-14
-6.19027818e-14
-8.50866189e-14
-1.030567015e-13
-1.143729535e-13
-1.34122579e-13
-1.490086214e-13
-1.422771886e-13
-1.380010657e-13
-1.526966404e-13
-1.508423852e-13
-1.225846547e-13
-1.095840886e-13
-1.184399855e-13
-1.286824564e-13
-1.053133043e-13
-8.700115277e-14
-1.102849609e-13
-1.395438692e-13
-1.810210872e-13
-1.919692785e-13
-1.984034542e-13
-2.419621874e-13
-2.867577783e-13
-3.482414947e-13
-3.749097621e-13
-3.407211479e-13
-3.329625367e-13
-3.775235163e-13
-4.413247587e-13
-5.014751566e-13
-4.788920282e-13
-4.376147268e-13
-4.943494729e-13
-5.739353074e-13
-6.422662916e-13
-7.258882476e-13
-7.426821587e-13
-6.959128065e-13
-6.923574915e-13
-7.256390234e-13
-7.917519753e-13
-8.357316066e-13
-7.065989949e-13
-6.268961431e-13
-7.389939193e-13
-8.424470977e-13
-9.073737273e-13
-1.044167008e-12
-1.084190822e-12
-1.039576749e-12
-1.138153236e-12
-1.289540849e-12
-1.436086322e-12
-1.404381047e-12
-1.532654261e-12
-1.90883421e-12
-2.206540742e-12
-2.455510064e-12
-2.602132593e-12
-2.758056093e-12
-3.034136691e-12
-3.442224755e-12
-4.013768897e-12
-4.438504688e-12
-4.746197949e-12
-5.151017048e-12
-5.580249545e-12
-6.308952419e-12
-7.372215967e-12
-8.387859536e-12
-9.293845306e-12
-1.006701641e-11
-1.105397401e-11
-1.243315088e-11
-1.385257887e-11
-1.564016237e-11
-1.882270101e-11
-2.133872119e-11
-2.264011185e-11
-2.63042169e-11
-3.082865077e-11
-3.616762037e-11
-4.787179977e-11
-5.397295119e-11
-5.70126845e-11
-2.609767181e-11
6.154239646e-11
1.023283189e-10
7.95047248e-11
6.301171905e-11
7.057451178e-11
8.154380948e-11
)


100
(
-3.805083078e-13
-2.641195754e-13
-1.131830004e-13
-7.907088596e-14
-6.042059608e-14
-5.204352383e-14
-5.54873174e-14
-7.178972874e-14
-9.09437696e-14
-1.134229782e-13
-1.452513196e-13
-1.579161929e-13
-1.621519065e-13
-1.834588538e-13
-1.929433792e-13
-1.774699545e-13
-1.689680377e-13
-1.807722954e-13
-1.820518243e-13
-1.509472695e-13
-1.329195567e-13
-1.479752795e-13
-1.673075534e-13
-1.714070587e-13
-1.676133914e-13
-1.946412032e-13
-2.440299191e-13
-3.020981381e-13
-3.593925443e-13
-3.713308235e-13
-3.79570494e-13
-4.204232349e-13
-4.840064953e-13
-5.633711662e-13
-5.207666803e-13
-4.503760432e-13
-5.102219675e-13
-6.013262947e-13
-6.797281845e-13
-7.714855499e-13
-7.67829505e-13
-7.348673259e-13
-7.849384697e-13
-8.313593155e-13
-9.256071607e-13
-1.058056952e-12
-9.244391271e-13
-7.284001741e-13
-7.8243571e-13
-8.717320152e-13
-9.436144097e-13
-1.027044981e-12
-1.027780717e-12
-1.031331964e-12
-1.133616063e-12
-1.300696373e-12
-1.557295591e-12
-1.538855005e-12
-1.366584372e-12