/*--------------------------------*- C++ -*----------------------------------*\
| =========                 |                                                 |
| \\      /  F ield         | OpenFOAM: The Open Source CFD Toolbox           |
|  \\    /   O peration     | Version:  2.3.1                                 |
|   \\  /    A nd           | Web:      www.OpenFOAM.org                      |
|    \\/     M anipulation  |                                                 |
\*---------------------------------------------------------------------------*/
FoamFile
{
    version     2.0;
    format      ascii;
    class       dictionary;
    location    "constant";
    object      DPSI7;
}
// * * * * * * * * * * * * * * * * * * * * * * * * * * * * * * * * * * * * * //

DPSI7_table
100
(

100
(
-5.202875323e-09
-5.953728439e-09
-5.408061084e-09
-5.359546387e-09
-5.161786127e-09
-4.697809142e-09
-4.978069356e-09
-4.541206312e-09
-4.598874142e-09
-4.271333572e-09
-4.176931571e-09
-3.973481665e-09
-3.862140792e-09
-3.847487208e-09
-3.724391719e-09
-3.623121264e-09
-3.584348291e-09
-3.50087743e-09
-3.345303968e-09
-3.267192024e-09
-3.165096852e-09
-3.008867309e-09
-2.883978566e-09
-2.788756231e-09
-2.670411797e-09
-2.511372055e-09
-2.415579956e-09
-2.326898062e-09
-2.227436341e-09
-2.081545154e-09
-1.986986498e-09
-1.88750752e-09
-1.787866954e-09
-1.675280005e-09
-1.594806059e-09
-1.519588519e-09
-1.442301932e-09
-1.358934004e-09
-1.276672915e-09
-1.205906907e-09
-1.133171875e-09
-1.065263459e-09
-9.932793873e-10
-9.28914156e-10
-8.632919234e-10
-8.077342613e-10
-7.518157854e-10
-7.045756957e-10
-6.56506363e-10
-6.20333657e-10
-5.860961535e-10
-5.50414997e-10
-5.133336911e-10
-4.830152608e-10
-4.550017959e-10
-4.239314573e-10
-3.972699609e-10
-3.864636446e-10
-4.007390892e-10
-4.511003081e-10
-5.111566376e-10
-4.95336734e-10
-4.341661544e-10
-4.242756028e-10
-4.596244611e-10
-4.481177003e-10
-4.096586356e-10
-4.231394944e-10
-4.509853701e-10
-4.248613697e-10
-4.039777075e-10
-4.323380187e-10
-4.406717343e-10
-4.248298049e-10
-4.963619343e-10
-5.459609846e-10
-4.738094873e-10
-5.043824037e-10
-5.413213946e-10
-4.674954953e-10
-5.272963248e-10
-5.114317972e-10
-5.035248363e-10
-5.857424945e-10
-5.109141204e-10
-5.732817717e-10
-6.065496998e-10
-5.838124728e-10
-6.832675956e-10
-6.585404403e-10
-7.381175564e-10
-7.797660414e-10
-9.084833424e-10
-9.687947496e-10
-1.120642821e-09
-1.17022355e-09
-1.271955076e-09
-1.218117595e-09
-5.01529811e-10
-1.657683475e-10
)


100
(
-5.201320696e-09
-6.073323798e-09
-5.564747198e-09
-5.406015197e-09
-5.046551633e-09
-4.737584798e-09
-4.621629564e-09
-4.442160332e-09
-4.271160049e-09
-4.081560473e-09
-3.918091139e-09
-3.661741632e-09
-3.514386891e-09
-3.408513112e-09
-3.261649373e-09
-3.147424162e-09
-3.053564055e-09
-2.916435181e-09
-2.812071122e-09
-2.698765116e-09
-2.570531913e-09
-2.450125921e-09
-2.339668429e-09
-2.228981356e-09
-2.106988197e-09
-2.000767182e-09
-1.905299485e-09
-1.813244697e-09
-1.719549833e-09
-1.632243756e-09
-1.553565242e-09
-1.464719303e-09
-1.380829382e-09
-1.306304602e-09
-1.244341914e-09
-1.183638463e-09
-1.123519883e-09
-1.069549364e-09
-1.024577921e-09
-9.796543754e-10
-9.294517742e-10
-8.864018611e-10
-8.505842332e-10
-8.213192347e-10
-7.805476238e-10
-7.424885878e-10
-7.090769017e-10
-6.845459523e-10
-6.570336542e-10
-6.308666461e-10
-6.114701944e-10
-6.024398915e-10
-6.025395393e-10
-5.936261286e-10
-5.854313402e-10
-5.804055321e-10
-5.897258507e-10
-5.843446105e-10
-5.859076468e-10
-6.08331854e-10
-6.726882622e-10
-7.304030637e-10
-7.466611013e-10
-7.209268548e-10
-7.01788425e-10
-7.08990208e-10
-7.141302474e-10
-7.072126697e-10
-6.994998777e-10
-7.033099355e-10
-6.994502748e-10
-6.950166219e-10
-6.951593606e-10
-7.000856147e-10
-7.314502293e-10
-8.171649393e-10
-9.146451112e-10
-9.179063665e-10
-9.236282559e-10
-9.650667321e-10
-9.785278347e-10
-1.049577205e-09
-1.077932057e-09
-1.188625358e-09
-1.242480787e-09
-1.285778508e-09
-1.393181453e-09
-1.469346205e-09
-1.574083075e-09
-1.741798918e-09
-1.906890165e-09
-2.080683943e-09
-2.301724304e-09
-2.605916745e-09
-2.818468986e-09
-3.105989663e-09
-3.403985423e-09
-2.578012498e-09
-1.346669574e-09
-6.072525016e-10
)


100
(
-5.201332991e-09
-6.163092048e-09
-5.782154793e-09
-5.253121505e-09
-4.929891594e-09
-4.729188358e-09
-4.182849463e-09
-4.162103938e-09
-3.769405189e-09
-3.584932853e-09
-3.402991359e-09
-3.057489527e-09
-2.878014662e-09
-2.658148972e-09
-2.445671244e-09
-2.322674922e-09
-2.186778104e-09
-1.998867365e-09
-1.911679574e-09
-1.824651696e-09
-1.682907184e-09
-1.591443524e-09
-1.51891191e-09
-1.440419314e-09
-1.335247086e-09
-1.28287128e-09
-1.222083483e-09
-1.163122225e-09
-1.092300527e-09
-1.065008649e-09
-1.026568275e-09
-9.917796903e-10
-9.466570414e-10
-9.21706133e-10
-8.964755792e-10
-8.807208724e-10
-8.63668906e-10
-8.529217429e-10
-8.519527024e-10
-8.512251874e-10
-8.590888404e-10
-8.693238578e-10
-8.792361072e-10
-8.934206572e-10
-9.118265305e-10
-9.491848476e-10
-9.649900329e-10
-9.802736758e-10
-9.9545657e-10
-1.038388675e-09
-1.050098277e-09
-1.067113645e-09
-1.085276794e-09
-1.121195456e-09
-1.128444753e-09
-1.128424993e-09
-1.138561355e-09
-1.170899247e-09
-1.156176235e-09
-1.105165985e-09
-1.081218046e-09
-1.131382918e-09
-1.199391844e-09
-1.21568748e-09
-1.178634698e-09
-1.165775766e-09
-1.181203009e-09
-1.178348052e-09
-1.178560242e-09
-1.243053942e-09
-1.312560887e-09
-1.366783248e-09
-1.445203097e-09
-1.554644673e-09
-1.586645817e-09
-1.641207509e-09
-1.819463143e-09
-1.877936377e-09
-1.93069231e-09
-2.145349817e-09
-2.195000612e-09
-2.302582223e-09
-2.490714687e-09
-2.519403038e-09
-2.720270881e-09
-2.884668347e-09
-3.091275285e-09
-3.371860653e-09
-3.564139985e-09
-3.89654005e-09
-4.213577161e-09
-4.567202885e-09
-4.882780655e-09
-5.32637858e-09
-5.809230847e-09
-6.423615832e-09
-6.960859556e-09
-4.678649676e-09
-3.096905675e-09
-1.7249351e-09
)


100
(
-5.202273119e-09
-5.960173933e-09
-5.746858945e-09
-5.155277039e-09
-5.030132632e-09
-4.564034407e-09
-4.173125585e-09
-3.839315915e-09
-3.602132296e-09
-3.230502297e-09
-3.090919162e-09
-2.752943866e-09
-2.50973943e-09
-2.328288916e-09
-2.09350652e-09
-1.939509151e-09
-1.847808236e-09
-1.720707056e-09
-1.599185834e-09
-1.549359407e-09
-1.496972734e-09
-1.420997471e-09
-1.36857388e-09
-1.342247377e-09
-1.325763857e-09
-1.291328112e-09
-1.271342362e-09
-1.260862665e-09
-1.26145264e-09
-1.25191623e-09
-1.244073936e-09
-1.247512421e-09
-1.257011013e-09
-1.280461143e-09
-1.274977922e-09
-1.284244365e-09
-1.305569657e-09
-1.363290759e-09
-1.385024791e-09
-1.417568295e-09
-1.459354926e-09
-1.505832136e-09
-1.55211627e-09
-1.555551434e-09
-1.575698753e-09
-1.624489437e-09
-1.710769788e-09
-1.715112598e-09
-1.723051283e-09
-1.764763874e-09
-1.826614702e-09
-1.824429018e-09
-1.803818301e-09
-1.822835522e-09
-1.848441955e-09
-1.832606534e-09
-1.795191229e-09
-1.833456687e-09
-1.862527442e-09
-1.839187962e-09
-1.750751902e-09
-1.693774985e-09
-1.704240879e-09
-1.779028681e-09
-1.847839347e-09
-1.89766456e-09
-1.956637919e-09
-2.045879404e-09
-2.131361586e-09
-2.211220497e-09
-2.303824927e-09
-2.412717095e-09
-2.553799323e-09
-2.727195572e-09
-2.872641279e-09
-2.89143695e-09
-2.913102838e-09
-3.109107325e-09
-3.253291615e-09
-3.369062647e-09
-3.562230081e-09
-3.701462982e-09
-3.9142858e-09
-4.066120059e-09
-4.334935208e-09
-4.582296583e-09
-4.797979442e-09
-5.116342366e-09
-5.411417112e-09
-5.672110199e-09
-5.920523668e-09
-6.314003385e-09
-6.598310862e-09
-7.000808822e-09
-7.614108829e-09
-8.318535642e-09
-8.514859073e-09
-5.884288656e-09
-4.560177881e-09
-2.868805549e-09
)


100
(
-5.204253208e-09
-5.816519906e-09
-5.710974641e-09
-5.368823472e-09
-5.132586747e-09
-4.478883255e-09
-4.231155949e-09
-3.71025426e-09
-3.538016801e-09
-3.186640893e-09
-2.944592441e-09
-2.735902976e-09
-2.44235595e-09
-2.27689354e-09
-2.115136709e-09
-1.942719268e-09
-1.853419096e-09
-1.807826074e-09
-1.744434587e-09
-1.678510581e-09
-1.667442221e-09
-1.67080694e-09
-1.658279767e-09
-1.639925716e-09
-1.662565402e-09
-1.711526973e-09
-1.759523489e-09
-1.779279402e-09
-1.808350519e-09
-1.844224736e-09
-1.897813444e-09
-1.90555716e-09
-1.933199304e-09
-1.969286769e-09
-2.042431133e-09
-2.033140225e-09
-2.033073444e-09
-2.056333703e-09
-2.178096047e-09
-2.199222113e-09
-2.20901435e-09
-2.226957071e-09
-2.302810798e-09
-2.327017643e-09
-2.291905192e-09
-2.249742476e-09
-2.32824397e-09
-2.399698715e-09
-2.35996766e-09
-2.308106114e-09
-2.352870546e-09
-2.392571627e-09
-2.380975905e-09
-2.350091021e-09
-2.376008827e-09
-2.41265293e-09
-2.426884954e-09
-2.445473519e-09
-2.51747232e-09
-2.624612133e-09
-2.71376179e-09
-2.756542603e-09
-2.7848443e-09
-2.844094293e-09
-2.95069348e-09
-3.07745356e-09
-3.181702225e-09
-3.263214007e-09
-3.334983072e-09
-3.389300143e-09
-3.461023153e-09
-3.522139331e-09
-3.587923424e-09
-3.669413335e-09
-3.835593384e-09
-3.981932004e-09
-4.017066916e-09
-4.161501642e-09
-4.350566411e-09
-4.436822799e-09
-4.620416217e-09
-4.83349852e-09
-5.023950885e-09
-5.265386533e-09
-5.483304231e-09
-5.643378617e-09
-5.778051062e-09
-5.908450426e-09
-6.202588997e-09
-6.349963964e-09
-6.405995802e-09
-6.677801312e-09
-6.900080416e-09
-7.299270151e-09
-7.751569939e-09
-8.45929607e-09
-7.140149423e-09
-5.828030685e-09
-5.127792546e-09
-3.490280256e-09
)


100
(
-5.117439835e-09
-5.902345365e-09
-5.893044379e-09
-5.604719918e-09
-5.11092495e-09
-4.661808534e-09
-4.272420143e-09
-3.876803137e-09
-3.546473677e-09
-3.337705316e-09
-3.01551308e-09
-2.859219188e-09
-2.661769959e-09
-2.452387986e-09
-2.338981019e-09
-2.232966044e-09
-2.123948137e-09
-2.092951066e-09
-2.113064016e-09
-2.116393013e-09
-2.091913648e-09
-2.117537055e-09
-2.173875973e-09
-2.22675977e-09
-2.230751244e-09
-2.296561386e-09
-2.412466321e-09
-2.505029538e-09
-2.535409334e-09
-2.568356487e-09
-2.632285527e-09
-2.723966341e-09
-2.721060061e-09
-2.707501922e-09
-2.765752246e-09
-2.845023867e-09
-2.797735741e-09
-2.721439371e-09
-2.766276626e-09
-2.857684102e-09
-2.827560864e-09
-2.784824905e-09
-2.78092198e-09
-2.847260873e-09
-2.849828491e-09
-2.773728499e-09
-2.749719775e-09
-2.838959607e-09
-2.920469216e-09
-2.877390038e-09
-2.865467587e-09
-2.928332484e-09
-3.010756043e-09
-3.065420599e-09
-3.095357835e-09
-3.180645217e-09
-3.284702484e-09
-3.356230507e-09
-3.420974957e-09
-3.505225343e-09
-3.632754529e-09
-3.757541247e-09
-3.863107473e-09
-3.965079248e-09
-4.022998034e-09
-4.083521966e-09
-4.149396624e-09
-4.215754639e-09
-4.334885875e-09
-4.417071237e-09
-4.48834499e-09
-4.56457844e-09
-4.637325906e-09
-4.65046779e-09
-4.662083306e-09
-4.776463215e-09
-4.883734136e-09
-4.960745403e-09
-5.090941651e-09
-5.219264965e-09
-5.330403277e-09
-5.445511651e-09
-5.574131242e-09
-5.661185905e-09
-5.729976524e-09
-5.818760694e-09
-5.90735232e-09
-5.963987548e-09
-6.185232217e-09
-6.360221188e-09
-6.380209578e-09
-6.471109423e-09
-6.853434623e-09
-7.318604638e-09
-8.04373478e-09
-8.753279982e-09
-5.792466303e-09
-5.194411755e-09
-4.894290679e-09
-3.62539251e-09
)


100
(
-4.968591672e-09
-5.970312954e-09
-6.068024527e-09
-5.731683863e-09
-5.168426499e-09
-4.906276818e-09
-4.379922958e-09
-4.133484944e-09
-3.725655685e-09
-3.539515195e-09
-3.325290342e-09
-3.103197654e-09
-3.004878749e-09
-2.850748446e-09
-2.713978061e-09
-2.66206532e-09
-2.617089946e-09
-2.559772782e-09
-2.591682476e-09
-2.675479686e-09
-2.747071858e-09
-2.751382944e-09
-2.800920628e-09
-2.895171014e-09
-3.00216276e-09
-2.994740847e-09
-3.03998213e-09
-3.174144112e-09
-3.268895719e-09
-3.297436729e-09
-3.277722249e-09
-3.404965641e-09
-3.44544404e-09
-3.391285381e-09
-3.298328338e-09
-3.398881763e-09
-3.445695006e-09
-3.360253292e-09
-3.203117355e-09
-3.281188749e-09
-3.357678102e-09
-3.306958758e-09
-3.211266893e-09
-3.2300455e-09
-3.308725789e-09
-3.328020625e-09
-3.278761801e-09
-3.291191784e-09
-3.447732053e-09
-3.583420627e-09
-3.649679429e-09
-3.684988305e-09
-3.786710973e-09
-3.897077944e-09
-4.021791908e-09
-4.154654001e-09
-4.223853149e-09
-4.264338671e-09
-4.310063961e-09
-4.345468475e-09
-4.380430703e-09
-4.403454029e-09
-4.500007524e-09
-4.613674766e-09
-4.708740842e-09
-4.81108822e-09
-4.922021681e-09
-5.008897836e-09
-5.097523151e-09
-5.230342177e-09
-5.35174141e-09
-5.426338713e-09
-5.483037365e-09
-5.501787646e-09
-5.466625295e-09
-5.45438507e-09
-5.485572208e-09
-5.519737655e-09
-5.538522348e-09
-5.562606759e-09
-5.630133136e-09
-5.670556326e-09
-5.659849754e-09
-5.736694434e-09
-5.842490684e-09
-6.019489203e-09
-6.233228271e-09
-6.473285105e-09
-6.699396934e-09
-7.025691825e-09
-7.460318745e-09
-8.050757154e-09
-8.905983675e-09
-9.918641633e-09
-1.137993452e-08
-1.218795254e-08
-7.555299408e-09
-5.66997453e-09
-4.700224617e-09
-3.624479691e-09
)


100
(
-4.90847956e-09
-5.964718494e-09
-6.144367659e-09
-5.783551924e-09
-5.441982684e-09
-5.097016109e-09
-4.670279676e-09
-4.366174326e-09
-4.084688577e-09
-3.802595103e-09
-3.725222048e-09
-3.529514146e-09
-3.403190042e-09
-3.381523377e-09
-3.275736107e-09
-3.205624186e-09
-3.218284946e-09
-3.220825741e-09
-3.230885032e-09
-3.29971146e-09
-3.437522441e-09
-3.573148254e-09
-3.577216195e-09
-3.604750228e-09
-3.69528462e-09
-3.780645647e-09
-3.738808756e-09
-3.742829435e-09
-3.866730146e-09
-3.931970838e-09
-3.915890399e-09
-3.869811063e-09
-4.021034173e-09
-4.0116955e-09
-3.878672145e-09
-3.784403684e-09
-3.889565326e-09
-3.920692115e-09
-3.755935206e-09
-3.669763753e-09
-3.764156614e-09
-3.867485026e-09
-3.815590608e-09
-3.792160021e-09
-3.853025042e-09
-3.997445012e-09
-4.060712691e-09
-4.09330406e-09
-4.147730668e-09
-4.332586673e-09
-4.459245089e-09
-4.592799023e-09
-4.66841441e-09
-4.705269796e-09
-4.776321323e-09
-4.875167748e-09
-4.963429772e-09
-5.046042111e-09
-5.069892582e-09
-5.104585536e-09
-5.143637411e-09
-5.168376062e-09
-5.222145277e-09
-5.273930849e-09
-5.36603395e-09
-5.460634255e-09
-5.555046525e-09
-5.634662098e-09
-5.65778688e-09
-5.718378029e-09
-5.825873424e-09
-5.90324473e-09
-5.95445634e-09
-5.965364684e-09
-5.959548661e-09
-5.960772112e-09
-5.979509909e-09
-5.996178436e-09
-6.089611154e-09
-6.191708744e-09
-6.284360729e-09
-6.402782523e-09
-6.546613605e-09
-6.871171284e-09
-7.248564838e-09
-7.716519201e-09
-8.187991017e-09
-8.944144908e-09
-9.277169025e-09
-9.818315069e-09
-1.091840912e-08
-1.217315677e-08
-1.374463563e-08
-1.561621371e-08
-1.744682245e-08
-1.813957546e-08
-1.173956318e-08
-8.417629142e-09
-5.989528008e-09
-3.977807384e-09
)


100
(
-4.908236278e-09
-5.850865296e-09
-6.120483207e-09
-5.936090865e-09
-5.742835298e-09
-5.272025613e-09
-5.044729937e-09
-4.638903902e-09
-4.507368767e-09
-4.234177392e-09
-4.107589648e-09
-4.106396198e-09
-3.946637003e-09
-3.919859581e-09
-3.992090088e-09
-3.935500062e-09
-3.930173168e-09
-4.01402405e-09
-4.099839793e-09
-4.100358241e-09
-4.155459232e-09
-4.30179252e-09
-4.471638285e-09
-4.43556896e-09
-4.384992047e-09
-4.444306524e-09
-4.474185077e-09
-4.413778037e-09
-4.36452672e-09
-4.448873749e-09
-4.470507883e-09
-4.340290862e-09
-4.401133396e-09
-4.554321661e-09
-4.524701159e-09
-4.307275039e-09
-4.287183799e-09
-4.414100114e-09
-4.451567867e-09
-4.322927137e-09
-4.308494161e-09
-4.465430881e-09
-4.64599116e-09
-4.70456062e-09
-4.726790971e-09
-4.821386841e-09
-4.928847767e-09
-5.018887164e-09
-5.114911316e-09
-5.13706116e-09
-5.203970416e-09
-5.310500135e-09
-5.406252736e-09
-5.490651477e-09
-5.522658603e-09
-5.494107881e-09
-5.604896622e-09
-5.733663676e-09
-5.836767545e-09
-5.937559122e-09
-5.985962566e-09
-6.013651007e-09
-6.019348794e-09
-6.04926126e-09
-6.088702513e-09
-6.090792525e-09
-6.099465101e-09
-6.194969225e-09
-6.293380932e-09
-6.349245323e-09
-6.396488181e-09
-6.465403171e-09
-6.541784273e-09
-6.619937752e-09
-6.719092545e-09
-6.860357845e-09
-7.120335849e-09
-7.383894344e-09
-7.634166895e-09
-7.906399328e-09
-8.231923869e-09
-8.714871115e-09
-9.257262773e-09
-9.855673528e-09
-1.047494793e-08
-1.121408514e-08
-1.21518228e-08
-1.297209888e-08
-1.377451881e-08
-1.495233579e-08
-1.644616953e-08
-1.832313427e-08
-2.022777487e-08
-2.304691977e-08
-2.540716681e-08
-2.457827427e-08
-1.662462753e-08
-1.268302716e-08
-9.105939624e-09
-5.131668169e-09
)


100
(
-4.90854187e-09
-5.78268124e-09
-6.156315099e-09
-6.173377924e-09
-5.940533007e-09
-5.576106059e-09
-5.374142336e-09
-5.080626743e-09
-4.8854034e-09
-4.794573947e-09
-4.587381679e-09
-4.626198813e-09
-4.68053296e-09
-4.586940982e-09
-4.662610526e-09
-4.835357715e-09
-4.822501783e-09
-4.863719709e-09
-4.951907822e-09
-5.082143644e-09
-5.040468368e-09
-5.023676817e-09
-5.14256076e-09
-5.269202613e-09
-5.244621679e-09
-5.134525317e-09
-5.123438121e-09
-5.106699869e-09
-5.040292708e-09
-4.953104104e-09
-5.005239394e-09
-4.974444401e-09
-4.832920128e-09
-4.96105758e-09
-5.143098797e-09
-5.076670878e-09
-4.969110443e-09
-4.999964126e-09
-5.200785857e-09
-5.257522787e-09
-5.270384705e-09
-5.294859089e-09
-5.478537183e-09
-5.624762723e-09
-5.800150096e-09
-5.860355347e-09
-5.872343538e-09
-5.91825661e-09
-5.980280302e-09
-6.038903236e-09
-6.112214256e-09
-6.072579104e-09
-6.103241763e-09
-6.209189374e-09
-6.311694796e-09
-6.381453915e-09
-6.480555499e-09
-6.49548466e-09
-6.596297065e-09
-6.703837869e-09
-6.797914389e-09
-6.876044517e-09
-6.856004129e-09
-6.822552675e-09
-6.885747635e-09
-6.979076645e-09
-7.059608635e-09
-7.158593325e-09
-7.256164794e-09
-7.376195515e-09
-7.516112138e-09
-7.696223398e-09
-7.855755586e-09
-8.191093865e-09
-8.659280409e-09
-9.149544744e-09
-9.604398722e-09
-1.006424606e-08
-1.055473999e-08
-1.117160869e-08
-1.192898494e-08
-1.276696214e-08
-1.35298126e-08
-1.413101455e-08
-1.521913994e-08
-1.614026165e-08
-1.739688323e-08
-1.825004675e-08
-1.98087452e-08
-2.157222415e-08
-2.367640683e-08
-2.611542857e-08
-2.911977464e-08
-3.291700023e-08
-3.60790708e-08
-3.103933315e-08
-2.141646328e-08
-1.716169534e-08
-1.301745028e-08
-7.343243721e-09
)


100
(
-4.74912449e-09
-5.80735157e-09
-6.270769191e-09
-6.386010329e-09
-6.088821671e-09
-5.958009498e-09
-5.658193054e-09
-5.598843907e-09
-5.321908382e-09
-5.324969609e-09
-5.269140917e-09
-5.175751055e-09
-5.371040062e-09
-5.48649363e-09
-5.439843828e-09
-5.600176425e-09
-5.846254747e-09
-5.819342747e-09
-5.790917541e-09
-5.885792671e-09
-6.03550765e-09
-5.934754633e-09
-5.809388197e-09
-5.894007236e-09
-5.983078002e-09
-6.001037426e-09
-5.859657517e-09
-5.765220856e-09
-5.735541862e-09
-5.650421512e-09
-5.683964051e-09
-5.682113688e-09
-5.467581071e-09
-5.538813569e-09
-5.721377381e-09
-5.987325201e-09
-5.985007844e-09
-5.995896401e-09
-6.059651426e-09
-6.220065533e-09
-6.329242174e-09
-6.38290589e-09
-6.384993166e-09
-6.485999418e-09
-6.636285976e-09
-6.788432318e-09
-6.922518685e-09
-6.899723515e-09
-6.817972187e-09
-6.882226171e-09
-6.943139953e-09
-7.010336145e-09
-7.107763511e-09
-7.142946597e-09
-7.19073596e-09
-7.315356271e-09
-7.376244158e-09
-7.473614417e-09
-7.557910557e-09
-7.526116516e-09
-7.570947774e-09
-7.730292152e-09
-7.903071093e-09
-8.064840053e-09
-8.217644187e-09
-8.385440992e-09
-8.580009482e-09
-8.775223133e-09
-8.984650851e-09
-9.090641715e-09
-9.399693353e-09
-9.877650602e-09
-1.048709657e-08
-1.113898151e-08
-1.176829415e-08
-1.244921541e-08
-1.316070439e-08
-1.392053425e-08
-1.485206041e-08
-1.584879693e-08
-1.677603772e-08
-1.765895519e-08
-1.877655639e-08
-1.991975624e-08
-2.127254726e-08
-2.249283197e-08
-2.422895305e-08
-2.584213309e-08
-2.785008337e-08
-3.054354115e-08
-3.34124875e-08
-3.662621354e-08
-4.120473988e-08
-4.573707055e-08
-4.955697666e-08
-3.769443973e-08
-2.688776314e-08
-2.222691412e-08
-1.729205656e-08
-1.1253566e-08
)


100
(
-4.40440387e-09
-5.800290404e-09
-6.374581315e-09
-6.453179717e-09
-6.34083817e-09
-6.289199872e-09
-6.042598502e-09
-6.007211063e-09
-5.92789023e-09
-5.824845691e-09
-5.99034926e-09
-5.960398597e-09
-6.008581837e-09
-6.313355643e-09
-6.464489296e-09
-6.412795331e-09
-6.59853588e-09
-6.859777802e-09
-6.800020065e-09
-6.671242226e-09
-6.732181474e-09
-6.822128401e-09
-6.734194778e-09
-6.564451533e-09
-6.561209808e-09
-6.630861811e-09
-6.71022345e-09
-6.588827321e-09
-6.438902573e-09
-6.436344913e-09
-6.386665612e-09
-6.497884496e-09
-6.545445289e-09
-6.4560059e-09
-6.554974964e-09
-6.819394832e-09
-7.028410377e-09
-7.191320824e-09
-7.170799215e-09
-7.190871818e-09
-7.258072045e-09
-7.364942438e-09
-7.492536428e-09
-7.496677664e-09
-7.429252381e-09
-7.497671237e-09
-7.634938945e-09
-7.758908805e-09
-7.868766838e-09
-7.891075453e-09
-7.893843029e-09
-7.995650844e-09
-8.080962896e-09
-8.175103622e-09
-8.349774297e-09
-8.346622334e-09
-8.308208357e-09
-8.411705657e-09
-8.543027599e-09
-8.7164861e-09
-8.955954508e-09
-9.149542291e-09
-9.459640106e-09
-9.818689569e-09
-1.017311416e-08
-1.053078374e-08
-1.06936543e-08
-1.09448905e-08
-1.134411384e-08
-1.18506521e-08
-1.247905836e-08
-1.315017189e-08
-1.394514468e-08
-1.473053572e-08
-1.545554754e-08
-1.623452075e-08
-1.742419166e-08
-1.883061611e-08
-2.001258731e-08
-2.100986838e-08
-2.213015942e-08
-2.357770289e-08
-2.525354083e-08
-2.691387857e-08
-2.83316927e-08
-3.064032443e-08
-3.264705101e-08
-3.48332987e-08
-3.817913277e-08
-4.209615613e-08
-4.613736281e-08
-5.021344932e-08
-5.552281836e-08
-6.114314276e-08
-6.44823136e-08
-4.563851111e-08
-3.53543396e-08
-2.898852657e-08
-2.282059198e-08
-1.517518121e-08
)


100
(
-4.21883922e-09
-5.719215688e-09
-6.371648801e-09
-6.499597219e-09
-6.638197216e-09
-6.513949097e-09
-6.510512717e-09
-6.358081573e-09
-6.550614189e-09
-6.470873317e-09
-6.565443363e-09
-6.856039313e-09
-6.824399718e-09
-6.970002926e-09
-7.345302599e-09
-7.477320287e-09
-7.362244093e-09
-7.525610996e-09
-7.766438905e-09
-7.690715518e-09
-7.438444367e-09
-7.463526337e-09
-7.52003362e-09
-7.481824731e-09
-7.292540351e-09
-7.203940102e-09
-7.284744761e-09
-7.378482962e-09
-7.418853115e-09
-7.311302361e-09
-7.249956494e-09
-7.32290002e-09
-7.595395556e-09
-7.66962709e-09
-7.690762453e-09
-7.722112498e-09
-7.899262651e-09
-8.066304911e-09
-8.300223062e-09
-8.408567929e-09
-8.315597538e-09
-8.279433036e-09
-8.34233029e-09
-8.397920222e-09
-8.48286864e-09
-8.439842804e-09
-8.42044827e-09
-8.577306187e-09
-8.79676358e-09
-8.927675406e-09
-9.106184874e-09
-9.148146315e-09
-9.116875642e-09
-9.167667421e-09
-9.307197476e-09
-9.46852618e-09
-9.706856653e-09
-9.741844592e-09
-9.980001425e-09
-1.041736116e-08
-1.082070305e-08
-1.129972691e-08
-1.175182417e-08
-1.202725099e-08
-1.235521592e-08
-1.283267545e-08
-1.337833314e-08
-1.396047264e-08
-1.462914109e-08
-1.552524593e-08
-1.635748286e-08
-1.714238494e-08
-1.783618943e-08
-1.865392031e-08
-1.973242523e-08
-2.107970323e-08
-2.249792478e-08
-2.395440437e-08
-2.533177281e-08
-2.668772091e-08
-2.862824947e-08
-3.073316706e-08
-3.248065764e-08
-3.457891352e-08
-3.712639696e-08
-3.984721002e-08
-4.177735675e-08
-4.539182347e-08
-5.034034614e-08
-5.446066101e-08
-5.981980167e-08
-6.526905943e-08
-7.272046234e-08
-7.939706248e-08
-7.930744766e-08
-5.709855674e-08
-4.750723133e-08
-3.897041681e-08
-3.114272027e-08
-2.482816127e-08
)


100
(
-4.21803305e-09
-5.586586319e-09
-6.312329599e-09
-6.657804945e-09
-6.857198938e-09
-6.775612545e-09
-6.909370854e-09
-6.859383725e-09
-6.984210965e-09
-7.234942677e-09
-7.191531067e-09
-7.470930503e-09
-7.786226249e-09
-7.771398121e-09
-7.954727475e-09
-8.355369969e-09
-8.444802966e-09
-8.248465095e-09
-8.363933038e-09
-8.565473586e-09
-8.510938981e-09
-8.22410218e-09
-8.167400057e-09
-8.214998485e-09
-8.28680867e-09
-8.099593994e-09
-7.955804172e-09
-8.064248817e-09
-8.2257541e-09
-8.418071653e-09
-8.44281089e-09
-8.395948471e-09
-8.470783215e-09
-8.660837787e-09
-8.776832502e-09
-8.946781324e-09
-8.96423869e-09
-8.970805367e-09
-9.143016648e-09
-9.332218849e-09
-9.491821525e-09
-9.439218693e-09
-9.264681737e-09
-9.322805215e-09
-9.441701917e-09
-9.566669865e-09
-9.733670936e-09
-9.821946843e-09
-9.863352534e-09
-1.001275603e-08
-1.015203735e-08
-1.03594301e-08
-1.058203054e-08
-1.054959035e-08
-1.049733294e-08
-1.08411366e-08
-1.128131313e-08
-1.177910637e-08
-1.234301512e-08
-1.270496789e-08
-1.305501661e-08
-1.349241401e-08
-1.409905369e-08
-1.471226538e-08
-1.498165469e-08
-1.553226362e-08
-1.649403343e-08
-1.755192324e-08
-1.863215894e-08
-1.955669059e-08
-2.038197576e-08
-2.133577126e-08
-2.244359746e-08
-2.367694287e-08
-2.5123263e-08
-2.667560129e-08
-2.799972158e-08
-2.938610835e-08
-3.136090182e-08
-3.389314328e-08
-3.629622457e-08
-3.837098952e-08
-4.059174346e-08
-4.374256524e-08
-4.709271739e-08
-4.967941539e-08
-5.286435456e-08
-5.760896166e-08
-6.207327795e-08
-6.737676103e-08
-7.336529753e-08
-8.03691059e-08
-9.073561853e-08
-9.925731812e-08
-9.602871301e-08
-7.361274956e-08
-6.252443492e-08
-5.228368328e-08
-4.255805961e-08
-3.409199837e-08
)


100
(
-4.21775021e-09
-5.492570572e-09
-6.314384249e-09
-6.811202063e-09
-6.955328289e-09
-7.126588979e-09
-7.180721832e-09
-7.43479698e-09
-7.419677107e-09
-7.801466126e-09
-8.046207242e-09
-8.05657842e-09
-8.476473427e-09
-8.794338844e-09
-8.740372206e-09
-8.916407434e-09
-9.305313012e-09
-9.376785923e-09
-9.11126243e-09
-9.162064803e-09
-9.345445798e-09
-9.374515713e-09
-9.084426445e-09
-8.957259889e-09
-9.02857117e-09
-9.127960475e-09
-9.122992579e-09
-9.044837201e-09
-9.094467784e-09
-9.332526695e-09
-9.574701874e-09
-9.84182405e-09
-9.798077482e-09
-9.7091982e-09
-9.820484436e-09
-9.99654805e-09
-1.023515758e-08
-1.028100511e-08
-1.01431219e-08
-1.01434756e-08
-1.033696244e-08
-1.05180664e-08
-1.067910146e-08
-1.068391018e-08
-1.071155404e-08
-1.088682121e-08
-1.105708806e-08
-1.119933851e-08
-1.150688159e-08
-1.156135373e-08
-1.154688588e-08
-1.170029645e-08
-1.200279429e-08
-1.235060088e-08
-1.274857006e-08
-1.307164858e-08
-1.351806113e-08
-1.420193526e-08
-1.473097249e-08
-1.543265148e-08
-1.58883325e-08
-1.605662364e-08
-1.652416742e-08
-1.732567056e-08
-1.828440326e-08
-1.935146376e-08
-2.039742865e-08
-2.148695602e-08
-2.262584908e-08
-2.373893676e-08
-2.475427608e-08
-2.594959516e-08
-2.771514429e-08
-2.962740701e-08
-3.129294663e-08
-3.277836755e-08
-3.454421833e-08
-3.657195772e-08
-3.906399713e-08
-4.192176881e-08
-4.436545921e-08
-4.69763859e-08
-5.084942522e-08
-5.449502862e-08
-5.75547442e-08
-6.144020814e-08
-6.673462439e-08
-7.198360709e-08
-7.723812333e-08
-8.265018759e-08
-9.05308307e-08
-9.81329747e-08
-1.090055583e-07
-1.191684989e-07
-1.138568433e-07
-9.332021715e-08
-7.9808566e-08
-6.779889351e-08
-5.610725953e-08
-4.18914857e-08
)


100
(
-3.937174879e-09
-5.42440055e-09
-6.329497168e-09
-6.86457855e-09
-7.079450004e-09
-7.436634563e-09
-7.499089511e-09
-7.841568029e-09
-8.076698536e-09
-8.24856088e-09
-8.801326646e-09
-9.01235734e-09
-9.099637787e-09
-9.556847725e-09
-9.837910676e-09
-9.713596799e-09
-9.852806706e-09
-1.022554741e-08
-1.031542519e-08
-1.002289782e-08
-1.000198002e-08
-1.019633153e-08
-1.037880757e-08
-1.011919114e-08
-9.918524498e-09
-1.006589183e-08
-1.024327796e-08
-1.048807545e-08
-1.046776472e-08
-1.045318517e-08
-1.065732365e-08
-1.09139546e-08
-1.122894897e-08
-1.133231597e-08
-1.119174281e-08
-1.105801439e-08
-1.120433244e-08
-1.138818323e-08
-1.160132728e-08
-1.151951838e-08
-1.144390473e-08
-1.164210991e-08
-1.196988419e-08
-1.221928698e-08
-1.251219209e-08
-1.264649381e-08
-1.267784115e-08
-1.282340229e-08
-1.304523299e-08
-1.334591182e-08
-1.37229522e-08
-1.375641791e-08
-1.39648408e-08
-1.463059698e-08
-1.537207716e-08
-1.593487899e-08
-1.669888697e-08
-1.711195469e-08
-1.746610114e-08
-1.810679086e-08
-1.881001773e-08
-1.960000456e-08
-1.995238899e-08
-2.076863816e-08
-2.217686285e-08
-2.354335672e-08
-2.484657458e-08
-2.595863389e-08
-2.709032131e-08
-2.852087404e-08
-3.0290685e-08
-3.235156788e-08
-3.42237213e-08
-3.613611113e-08
-3.799769089e-08
-3.994787396e-08
-4.245425095e-08
-4.541452723e-08
-4.835597294e-08
-5.125681078e-08
-5.438934059e-08
-5.815208942e-08
-6.233380007e-08
-6.603734719e-08
-7.041181145e-08
-7.733916477e-08
-8.376460385e-08
-8.937088722e-08
-9.670702015e-08
-1.036278897e-07
-1.1293009e-07
-1.29940563e-07
-1.363090167e-07
-1.474449243e-07
-1.336150465e-07
-1.139411437e-07
-9.886056791e-08
-8.504776165e-08
-7.138635332e-08
-5.908509536e-08
)


100
(
-3.464942457e-09
-5.304344632e-09
-6.307451581e-09
-6.838634152e-09
-7.271923029e-09
-7.579835524e-09
-7.921310341e-09
-8.13151268e-09
-8.721196289e-09
-8.927125723e-09
-9.306243687e-09
-9.97989771e-09
-1.007813914e-08
-1.017606512e-08
-1.065173058e-08
-1.089680933e-08
-1.071204986e-08
-1.08105722e-08
-1.116360787e-08
-1.133676694e-08
-1.105320212e-08
-1.096254426e-08
-1.119993676e-08
-1.142293651e-08
-1.142791656e-08
-1.132106962e-08
-1.142643166e-08
-1.167451739e-08
-1.191771709e-08
-1.214702143e-08
-1.214066484e-08
-1.211521627e-08
-1.234606504e-08
-1.262987953e-08
-1.290628609e-08
-1.270803079e-08
-1.241989746e-08
-1.249112496e-08
-1.274130758e-08
-1.301585326e-08
-1.334688688e-08
-1.345918084e-08
-1.355219753e-08
-1.383089115e-08
-1.407888078e-08
-1.446883178e-08
-1.501423532e-08
-1.505714876e-08
-1.495402272e-08
-1.533781842e-08
-1.58738646e-08
-1.652339886e-08
-1.72629869e-08
-1.781993217e-08
-1.836699869e-08
-1.906021598e-08
-1.980241615e-08
-2.071043122e-08
-2.114090751e-08
-2.125533491e-08
-2.212224055e-08
-2.335059536e-08
-2.457938374e-08
-2.591638371e-08
-2.724127488e-08
-2.842483833e-08
-2.978953269e-08
-3.129637238e-08
-3.275552206e-08
-3.457034933e-08
-3.707296028e-08
-3.968261431e-08
-4.173630665e-08
-4.372543805e-08
-4.628706888e-08
-4.961081848e-08
-5.26372274e-08
-5.571252568e-08
-5.874458002e-08
-6.232891605e-08
-6.710307423e-08
-7.236926811e-08
-7.608029099e-08
-8.011352684e-08
-8.694764655e-08
-9.474576052e-08
-1.02178027e-07
-1.099974964e-07
-1.187366219e-07
-1.292865916e-07
-1.398858145e-07
-1.566458854e-07
-1.698697536e-07
-1.815739081e-07
-1.630074106e-07
-1.356116068e-07
-1.188362003e-07
-1.037073538e-07
-8.834958365e-08
-7.547961553e-08
)


100
(
-3.273252256e-09
-5.110125198e-09
-6.204109886e-09
-6.848212804e-09
-7.436109879e-09
-7.698627888e-09
-8.263462886e-09
-8.571231084e-09
-9.082955588e-09
-9.733239897e-09
-9.931308753e-09
-1.046085126e-08
-1.11546506e-08
-1.11488778e-08
-1.123354344e-08
-1.171411533e-08
-1.19754818e-08
-1.175726794e-08