/*--------------------------------*- C++ -*----------------------------------*\
| =========                 |                                                 |
| \\      /  F ield         | OpenFOAM: The Open Source CFD Toolbox           |
|  \\    /   O peration     | Version:  2.3.1                                 |
|   \\  /    A nd           | Web:      www.OpenFOAM.org                      |
|    \\/     M anipulation  |                                                 |
\*---------------------------------------------------------------------------*/
FoamFile
{
    version     2.0;
    format      ascii;
    class       dictionary;
    location    "constant";
    object      DPSI29;
}
// * * * * * * * * * * * * * * * * * * * * * * * * * * * * * * * * * * * * * //

DPSI29_table
100
(

100
(
-5.163083261e-08
-4.23788746e-08
-2.771301228e-08
-1.947340239e-08
-1.411827009e-08
-1.012280067e-08
-7.413408988e-09
-5.30061971e-09
-3.536047657e-09
-2.389433377e-09
-1.116939345e-09
2.560112254e-11
2.656596907e-10
1.14880771e-09
1.782052331e-09
1.782579751e-09
2.410435753e-09
2.957480251e-09
2.866481305e-09
3.210988132e-09
3.691485769e-09
3.741176218e-09
3.767693708e-09
4.100312159e-09
4.308958811e-09
4.211741283e-09
4.295549951e-09
4.61424806e-09
4.745269873e-09
4.644829473e-09
4.72810916e-09
4.910610323e-09
4.915226675e-09
4.818101293e-09
4.848584692e-09
5.130600011e-09
5.267014158e-09
5.152455505e-09
5.137658228e-09
5.310806328e-09
5.38290836e-09
5.270603243e-09
5.230208665e-09
5.322262942e-09
5.34400624e-09
5.241975828e-09
5.162802458e-09
5.371297543e-09
5.539903087e-09
5.437813344e-09
5.38748617e-09
5.504030957e-09
5.570801528e-09
5.476878546e-09
5.443219399e-09
5.494217284e-09
5.470606192e-09
5.333549113e-09
5.290882162e-09
5.449503803e-09
5.487614039e-09
5.318122158e-09
5.32216953e-09
5.50548866e-09
5.502607461e-09
5.312527193e-09
5.421287196e-09
5.592376891e-09
5.456069069e-09
5.377132783e-09
5.549192344e-09
5.564426929e-09
5.384853526e-09
5.53730144e-09
5.608457595e-09
5.421530925e-09
5.553599436e-09
5.578635343e-09
5.475084344e-09
5.559774227e-09
5.43695252e-09
5.483690837e-09
5.473687406e-09
5.417619013e-09
5.385509161e-09
5.339644597e-09
5.308278949e-09
5.225338929e-09
5.258289127e-09
5.186353211e-09
5.111405443e-09
5.035321173e-09
4.999302772e-09
4.940760635e-09
4.796478679e-09
4.591732162e-09
4.527806728e-09
4.879613098e-09
6.123479832e-09
6.979452132e-09
)


100
(
-5.146488843e-08
-4.276268707e-08
-2.872118136e-08
-2.050593826e-08
-1.511661564e-08
-1.117156108e-08
-8.279980833e-09
-6.048022149e-09
-4.307263124e-09
-2.929827679e-09
-1.796339581e-09
-6.474139723e-10
-1.698812553e-11
5.937085737e-10
1.293608023e-09
1.632137289e-09
1.945341589e-09
2.497415457e-09
2.809314993e-09
2.945834528e-09
3.29703974e-09
3.619796426e-09
3.730463711e-09
3.826381473e-09
4.105795351e-09
4.278929775e-09
4.264876202e-09
4.307960605e-09
4.576332446e-09
4.76986414e-09
4.74290389e-09
4.754102171e-09
4.900105605e-09
4.992888864e-09
4.93814488e-09
4.906993589e-09
5.018970829e-09
5.234263412e-09
5.290560008e-09
5.222517356e-09
5.224841121e-09
5.37812668e-09
5.457497162e-09
5.391014613e-09
5.339935935e-09
5.422824459e-09
5.478435272e-09
5.402792492e-09
5.324668429e-09
5.363161931e-09
5.522007207e-09
5.566548034e-09
5.512034822e-09
5.527981136e-09
5.65232902e-09
5.699060576e-09
5.540166241e-09
5.064240574e-09
3.792043414e-09
2.053816065e-09
3.368008367e-09
7.015028368e-09
6.599213769e-09
3.156703953e-09
3.538573784e-09
6.78917396e-09
5.662746598e-09
2.638666377e-09
4.440285048e-09
6.768962752e-09
4.320705646e-09
2.792780456e-09
6.042527947e-09
4.703301357e-09
1.681829299e-09
5.623587235e-09
5.570629e-09
2.353012377e-09
5.614596404e-09
4.845577171e-09
2.830293288e-09
4.826241744e-09
2.453020469e-09
4.218464077e-09
4.251883402e-09
2.738732752e-09
3.368973599e-09
1.697488094e-09
1.808117186e-09
1.107849599e-09
2.099366386e-10
-2.343665553e-10
-2.948357469e-10
-6.221687846e-10
-7.786675988e-10
-3.132516736e-10
4.368711772e-09
3.17227952e-08
4.768158468e-08
4.076022493e-08
)


100
(
-5.146251266e-08
-4.31034108e-08
-2.937256712e-08
-2.129763396e-08
-1.599074905e-08
-1.203845659e-08
-9.039976965e-09
-6.794451138e-09
-4.991304842e-09
-3.558196484e-09
-2.350718174e-09
-1.23694405e-09
-4.201163688e-10
2.116855157e-10
8.425839519e-10
1.341014018e-09
1.697506014e-09
2.067650637e-09
2.484081487e-09
2.794127252e-09
3.011015015e-09
3.27491844e-09
3.555879483e-09
3.74421011e-09
3.859451163e-09
4.034128642e-09
4.211074499e-09
4.296291618e-09
4.34261438e-09
4.462862676e-09
4.668930299e-09
4.778719211e-09
4.778644919e-09
4.806307333e-09
4.918399919e-09
4.993972456e-09
4.980023694e-09
4.933752486e-09
4.994751586e-09
5.172691217e-09
5.217306301e-09
5.13402622e-09
5.030486992e-09
5.189732985e-09
5.416523565e-09
5.418804872e-09
5.308832692e-09
5.279313057e-09
5.427368134e-09
5.443579652e-09
5.136072144e-09
4.55872229e-09
4.583991414e-09
4.94649915e-09
4.81560089e-09
4.131173889e-09
4.307416604e-09
4.892719949e-09
4.09059106e-09
1.384020497e-09
-8.523370447e-10
7.956608074e-10
4.608377768e-09
6.356418239e-09
4.367763065e-09
2.892737365e-09
3.999325484e-09
5.041703835e-09
4.370622908e-09
3.871153926e-09
4.613151281e-09
4.549142486e-09
3.955294325e-09
3.245741631e-09
1.477416724e-09
-8.500361494e-11
1.867162208e-09
4.120714007e-09
2.315786115e-09
2.085083489e-09
2.855580688e-09
6.119751941e-10
4.751630055e-10
9.462932289e-10
-8.348008453e-10
-7.928648691e-10
-9.159296426e-10
-2.380521798e-09
-2.370062934e-09
-2.367791523e-09
-3.026055446e-09
-3.849426566e-09
-3.473120509e-09
-4.445642558e-09
-5.896833345e-09
-4.426757535e-09
1.978842004e-08
5.688030218e-08
6.481202972e-08
5.825309718e-08
)


100
(
-5.131494297e-08
-4.327061467e-08
-2.979048523e-08
-2.189596744e-08
-1.675367579e-08
-1.282912092e-08
-9.745963676e-09
-7.477683673e-09
-5.69559646e-09
-4.173961428e-09
-2.949790767e-09
-1.820648219e-09
-9.039959567e-10
-2.159656488e-10
4.006482481e-10
9.357974972e-10
1.367563626e-09
1.727273026e-09
2.048592128e-09
2.421713506e-09
2.751714553e-09
2.965156812e-09
3.163469398e-09
3.452810989e-09
3.697727885e-09
3.795533119e-09
3.87331723e-09
4.054350475e-09
4.228869862e-09
4.291396025e-09
4.289371003e-09
4.426895078e-09
4.618126551e-09
4.641330067e-09
4.577914872e-09
4.559682613e-09
4.71273966e-09
4.850273005e-09
4.797278885e-09
4.544686614e-09
4.379969579e-09
4.547974491e-09
4.569409826e-09
4.257054818e-09
3.697754762e-09
3.913433706e-09
4.461185451e-09
4.27414088e-09
3.359413074e-09
3.488220229e-09
4.326740758e-09
4.120444966e-09
3.223247128e-09
3.322515877e-09
4.444981217e-09
4.342221683e-09
2.789414164e-09
2.72220199e-09
4.372198366e-09
3.884604785e-09
1.573262451e-09
4.227874609e-10
1.547169793e-09
3.532310798e-09
4.840544972e-09
4.447520312e-09
3.515008334e-09
3.16592252e-09
2.584949351e-09
2.292566253e-09
2.253574481e-09
1.763167292e-09
9.876514879e-10
3.111028146e-10
7.792641139e-10
1.83507793e-09
1.111239004e-10
-2.076232904e-09
3.218431644e-10
9.001776965e-10
-1.779723213e-09
-1.792458497e-09
-1.43953482e-09
-2.609872815e-09
-3.258135777e-09
-2.912890824e-09
-2.799342792e-09
-3.362064382e-09
-3.702002521e-09
-4.355061679e-09
-5.225360579e-09
-5.014739778e-09
-6.896983853e-09
-8.600799438e-09
-8.417917529e-09
-7.998106165e-09
3.417509832e-08
7.452943128e-08
7.188234664e-08
6.820615151e-08
)


100
(
-5.076572908e-08
-4.308623807e-08
-3.013405154e-08
-2.24192241e-08
-1.740136031e-08
-1.35113673e-08
-1.047623516e-08
-8.124795412e-09
-6.365721784e-09
-4.830107036e-09
-3.553435307e-09
-2.497366557e-09
-1.480784733e-09
-7.036800599e-10
-9.288569589e-11
4.530700451e-10
9.201575734e-10
1.32393296e-09
1.657750862e-09
1.937243634e-09
2.275918226e-09
2.602440632e-09
2.811181222e-09
2.961983568e-09
3.24120579e-09
3.525767698e-09
3.595244816e-09
3.540491811e-09
3.618533497e-09
3.859079969e-09
4.001131365e-09
3.946926794e-09
3.741394235e-09
3.903831988e-09
4.127984853e-09
3.926788151e-09
3.367421134e-09
3.419900343e-09
3.880439882e-09
3.754742254e-09
3.358112254e-09
2.93350185e-09
3.416007727e-09
3.925346e-09
3.309519645e-09
1.985509918e-09
2.63517553e-09
4.043942014e-09
3.336681914e-09
1.934477329e-09
2.38253477e-09
3.750628944e-09
3.261051429e-09
2.190686393e-09
2.652991447e-09
3.847845369e-09
2.873716396e-09
1.420969776e-09
1.82592918e-09
2.910873408e-09
2.919786805e-09
2.03995061e-09
1.753956102e-09
2.215091432e-09
2.519958972e-09
2.169198468e-09
1.223787951e-09
1.02741625e-09
1.378958382e-09
9.682435146e-10
3.496665551e-10
9.350902027e-11
1.02680412e-09
1.774942175e-09
-4.734136828e-10
-2.906445812e-09
-1.567674955e-09
-5.551894868e-10
-2.296513555e-09
-3.74389279e-09
-3.501517659e-09
-1.7553622e-09
-1.306289374e-09
-2.924037109e-09
-3.638687936e-09
-4.703360351e-09
-5.25938727e-09
-3.947628617e-09
-2.333852023e-09
-4.498233937e-09
-8.513328469e-09
-7.06677952e-09
-7.857242066e-09
-1.076433317e-08
-1.138489348e-08
-7.19909762e-09
4.490678697e-08
8.391283273e-08
7.505138693e-08
7.178074015e-08
)


100
(
-5.031531697e-08
-4.284824628e-08
-3.023451543e-08
-2.272458716e-08
-1.797565675e-08
-1.41352293e-08
-1.117373939e-08
-8.855540102e-09
-7.038000406e-09
-5.620721117e-09
-4.220807485e-09
-3.11873811e-09
-2.177811508e-09
-1.296637402e-09
-6.231908068e-10
-8.447989858e-11
3.802001181e-10
7.900982452e-10
1.165031767e-09
1.46783939e-09
1.688746489e-09
1.942295461e-09
2.241900677e-09
2.456503281e-09
2.578101596e-09
2.763745625e-09
3.041516016e-09
3.117019189e-09
2.914307321e-09
2.677872294e-09
2.907600795e-09
3.229737018e-09
3.097457135e-09
2.544580035e-09
2.824400529e-09
3.458343762e-09
3.215118697e-09
1.932773692e-09
1.991965606e-09
3.177868465e-09
3.039275542e-09
2.081060443e-09
1.70413258e-09
2.883339831e-09
3.439960121e-09
1.870127899e-09
3.229381399e-10
1.98793689e-09
3.454675995e-09
2.067474145e-09
8.814997499e-10
1.713982058e-09
2.696535451e-09
2.186203197e-09
1.538942569e-09
1.778731848e-09
1.86340306e-09
1.66365893e-09
1.56452991e-09
9.93585029e-10
7.611841185e-10
1.440911529e-09
1.802887396e-09
1.033276484e-09
6.255694589e-11
1.463028236e-10
8.481996506e-10
5.194233373e-10
-2.81684752e-10
-6.476937665e-10
-7.904309618e-11
6.554712507e-10
4.366230588e-10
-7.580529295e-10
-7.58341982e-10
-1.278672587e-09
-3.279522612e-09
-3.854493941e-09
-2.716673297e-09
-9.158638687e-10
-1.430267069e-09
-4.340681573e-09
-4.704964716e-09
-3.671910993e-09
-3.62815987e-09
-3.805616383e-09
-4.274767133e-09
-3.342939532e-09
-4.458805282e-09
-6.71835952e-09
-6.770038786e-09
-7.575550426e-09
-9.913555372e-09
-1.185024974e-08
-1.383845692e-08
2.497485349e-09
5.392176327e-08
8.127080217e-08
7.426637454e-08
7.173027177e-08
)


100
(
-4.940342453e-08
-4.229830373e-08
-3.010874751e-08
-2.302702657e-08
-1.84225481e-08
-1.471350053e-08
-1.182378645e-08
-9.601288272e-09
-7.722939248e-09
-6.304176232e-09
-5.042975321e-09
-3.805602487e-09
-2.856247939e-09
-2.003748409e-09
-1.250292397e-09
-6.728898466e-10
-2.164227115e-10
1.467762787e-10
4.695153576e-10
8.022321251e-10
1.062036083e-09
1.180921969e-09
1.261458545e-09
1.522431432e-09
1.784163333e-09
1.874322569e-09
2.124108332e-09
2.499109424e-09
2.491972077e-09
2.000781989e-09
1.483788566e-09
1.916623567e-09
2.499337251e-09
2.067734722e-09
1.31930445e-09
1.966603039e-09
2.894100663e-09
2.043396526e-09
5.670314719e-10
1.188596745e-09
2.602862855e-09
2.104788928e-09
9.439917482e-10
9.766760886e-10
2.410930722e-09
2.006730755e-09
3.596615551e-10
-1.93402955e-10
1.229836239e-09
1.860367248e-09
7.693065321e-10
4.69741864e-10
7.146464959e-10
1.509763893e-09
1.811306527e-09
1.518318264e-09
9.402174443e-10
5.254160436e-10
8.30525924e-10
9.74752015e-10
2.90382308e-10
-6.241343453e-10
-1.14590636e-09
-3.847632542e-10
1.427888723e-10
-4.304684792e-10
-4.286595151e-10
-4.756149512e-10
-1.591919409e-10
4.398027509e-10
-1.371982225e-10
-1.536789142e-09
-1.888733332e-09
-1.451707259e-09
-1.955236775e-09
-1.693971572e-09
-1.294896895e-09
-1.228709484e-09
-1.713423599e-09
-3.64482908e-09
-4.075920212e-09
-3.33893654e-09
-3.024888258e-09
-3.320292654e-09
-4.105430958e-09
-4.327191239e-09
-3.766369052e-09
-2.946863593e-09
-4.380561275e-09
-7.117708998e-09
-7.621245438e-09
-8.454754578e-09
-1.07706957e-08
-1.339787088e-08
-1.674184278e-08
1.074364227e-08
6.137489872e-08
7.695760937e-08
7.126443329e-08
6.994845412e-08
)


100
(
-4.828830229e-08
-4.153248388e-08
-2.982424856e-08
-2.317292078e-08
-1.870976848e-08
-1.528390617e-08
-1.246651933e-08
-1.029563862e-08
-8.591765829e-09
-7.003866788e-09
-5.791262981e-09
-4.600585442e-09
-3.560703772e-09
-2.746466043e-09
-1.993253211e-09
-1.372524457e-09
-9.029756205e-10
-5.586690223e-10
-3.249493426e-10
-1.342697707e-10
1.45605441e-10
3.780669804e-10
3.850481259e-10
2.532682385e-10
5.420659965e-10
1.011939825e-09
1.188264205e-09
1.621367749e-09
2.04234437e-09
1.869051778e-09
7.804151585e-10
3.144583207e-10
1.335808705e-09
1.894530305e-09
9.143533705e-10
1.899207952e-10
1.414455648e-09
2.183709772e-09
7.345136054e-10
-6.12406453e-10
4.929605688e-10
1.787050154e-09
9.77456312e-10
-1.946716648e-11
3.959352642e-10
1.069212955e-09
5.149414246e-10
-2.688449405e-10
-3.511158121e-10
1.463943588e-10
8.723834487e-10
1.06777754e-09
7.856535482e-10
7.319933051e-11
-6.486569816e-10
7.831072213e-11
8.820875126e-10
3.003402057e-10
-4.878626876e-10
-9.115781691e-10
-4.446540715e-10
-3.334979983e-10
-9.124667064e-10
-7.473142036e-10
-5.751718169e-10
-6.773665011e-10
-1.33216206e-10
1.655682797e-10
-1.272886592e-09
-2.763408608e-09
-2.293337576e-09
-1.707700325e-09
-1.425184423e-09
-7.715486694e-10
-9.567901685e-10
-7.720452008e-10
-1.458582982e-09
-3.457510617e-09
-3.681051361e-09
-2.522197447e-09
-1.932667398e-09
-2.377401464e-09
-3.144511831e-09
-3.617691519e-09
-3.931530289e-09
-3.894841611e-09
-3.856771611e-09
-3.999883929e-09
-5.317722278e-09
-7.355038271e-09
-8.251449994e-09
-9.153966444e-09
-1.156000593e-08
-1.560327457e-08
-1.838165024e-08
1.859727456e-08
6.636304621e-08
7.309497956e-08
6.81613053e-08
6.602316335e-08
)


100
(
-4.716544224e-08
-4.068739898e-08
-2.945471645e-08
-2.314336685e-08
-1.899080465e-08
-1.576496578e-08
-1.313525259e-08
-1.095634845e-08
-9.31040898e-09
-7.767756403e-09
-6.490722137e-09
-5.462453957e-09
-4.363975447e-09
-3.497822378e-09
-2.812188706e-09
-2.190484377e-09
-1.71160631e-09
-1.390616914e-09
-1.16382235e-09
-1.033916305e-09
-1.009507512e-09
-7.278907362e-10
-4.115184246e-10
-4.392372634e-10
-6.566966845e-10
-4.487529003e-10
1.862036046e-10
6.218380971e-10
1.232409043e-09
1.635834548e-09
1.047851893e-09
-4.488876864e-10
-6.282002269e-10
7.791764918e-10
9.090143461e-10
-2.583953065e-10
-5.726230989e-10
8.533477438e-10
8.826837739e-10
-6.189286893e-10
-1.206270245e-09
-1.899083128e-10
5.255895762e-10
-1.135391669e-10
-4.362986416e-10
-3.768395959e-10
1.302579579e-10
3.772737773e-10
1.725856605e-10
-1.52365035e-10
-7.396565378e-10
-8.413193046e-10
-8.94731506e-11
2.263590589e-10
-5.865366714e-10
-1.507920928e-09
-1.821049691e-09
-1.188934867e-09
-5.530302889e-10
-6.776106283e-10
-4.535097253e-10
-3.507227345e-10
-5.888331013e-10
-3.393960913e-10
-2.117403307e-10
-1.097151698e-09
-2.221180684e-09
-2.251311156e-09
-1.732838211e-09
-1.855519915e-09
-1.505756156e-09
-1.288561239e-09
-1.126161839e-09
-3.225380607e-10
-1.536980631e-09
-3.343172555e-09
-3.075645278e-09
-2.038437232e-09
-1.66513341e-09
-1.915012699e-09
-2.431451524e-09
-2.911592429e-09
-3.143793597e-09
-3.176118645e-09
-3.145885621e-09
-3.864545174e-09
-4.636922477e-09
-5.325342608e-09
-6.302166619e-09
-7.316927631e-09
-8.469126689e-09
-1.093656033e-08
-1.436167247e-08
-1.728088576e-08
-1.796792578e-08
2.496322935e-08
6.982339269e-08
7.054008346e-08
6.644718097e-08
6.406863608e-08
)


100
(
-4.601628021e-08
-3.978819968e-08
-2.896117032e-08
-2.291701168e-08
-1.926276554e-08
-1.61811125e-08
-1.370445092e-08
-1.165707111e-08
-9.989355044e-09
-8.655783777e-09
-7.200082113e-09
-6.163538965e-09
-5.299796858e-09
-4.357800727e-09
-3.651712242e-09
-3.097169555e-09
-2.651422002e-09
-2.391060034e-09
-2.111139211e-09
-1.844086519e-09
-1.800700756e-09
-1.924402513e-09
-1.624166782e-09
-1.157564909e-09
-1.159098711e-09
-1.401584127e-09
-1.407761411e-09
-6.954547708e-10
7.255126597e-11
8.043805288e-10
1.153174942e-09
-1.337817718e-10
-1.711249133e-09
-1.284973941e-09
1.367538449e-10
-2.694643474e-10
-1.407313293e-09
-1.189196838e-09
-2.327498861e-10
-4.153539806e-10
-1.307001433e-09
-1.515450171e-09
-9.854142714e-10
-1.174269804e-10
7.386539732e-11
-1.57514937e-10
-6.856306422e-10
-1.232349048e-09
-8.550764876e-10
-3.710319189e-10
-6.931908785e-10
-1.355946303e-09
-1.918398222e-09
-1.860806207e-09
-1.128869371e-09
-1.053366517e-09
-1.533176549e-09
-1.346113944e-09
-1.129824598e-09
-9.640034466e-10
-3.074394003e-10
5.11411997e-11
-8.552104372e-10
-2.05412315e-09
-2.108246937e-09
-1.521932069e-09
-1.720054628e-09
-1.804564687e-09
-1.3742865e-09
-1.366672848e-09
-9.385484222e-10
-9.023191671e-10
-2.229742257e-09
-3.070031407e-09
-2.553959558e-09
-1.892582354e-09
-1.74802156e-09
-1.864503893e-09
-2.159861259e-09
-2.499672677e-09
-2.804875271e-09
-2.809698296e-09
-2.684884004e-09
-3.167917162e-09
-3.952165906e-09
-4.762257868e-09
-5.705987986e-09
-6.263623662e-09
-7.139691621e-09
-8.179883581e-09
-1.024006167e-08
-1.232879575e-08
-1.570823982e-08
-2.009086244e-08
-1.613982674e-08
3.342046334e-08
7.272292544e-08
6.795265319e-08
6.574818627e-08
6.338653203e-08
)


100
(
-4.499215667e-08
-3.887909038e-08
-2.830109941e-08
-2.27459329e-08
-1.940761259e-08
-1.652393531e-08
-1.418735483e-08
-1.234757782e-08
-1.063590362e-08
-9.321303404e-09
-8.109232701e-09
-6.878680806e-09
-6.038605392e-09
-5.32446603e-09
-4.602088794e-09
-4.039644211e-09
-3.595663947e-09
-3.315528361e-09
-3.194092254e-09
-2.886790397e-09
-2.542359554e-09
-2.522977013e-09
-2.684175716e-09
-2.487545573e-09
-1.967437581e-09
-1.817678254e-09
-2.07954268e-09
-2.298730251e-09
-1.639316994e-09
-6.318703872e-10
2.377043484e-10
1.646112797e-10
-1.439977087e-09
-2.619394362e-09
-1.901768876e-09
-9.901860384e-10
-1.385031356e-09
-1.869475034e-09
-1.72367022e-09
-1.161407283e-09
-7.955576587e-10
-8.364694137e-10
-1.06912058e-09
-1.545436585e-09
-1.442382888e-09
-7.603492043e-10
-6.57277415e-10
-1.314647577e-09
-2.141998091e-09
-2.503098402e-09
-1.847745443e-09
-1.303233234e-09
-1.694317663e-09
-1.965930062e-09
-1.878878787e-09
-1.711437705e-09
-1.096352535e-09
-4.780850729e-10
-5.810779067e-10
-1.282238451e-09
-2.164581861e-09
-1.970449045e-09
-1.287441614e-09
-1.705184751e-09
-2.283374059e-09
-1.727522757e-09
-1.190610049e-09
-7.392838966e-10
-4.539477474e-10
-1.773334101e-09
-3.128622815e-09
-2.5649115e-09
-2.141955697e-09
-2.337141823e-09
-2.168490493e-09
-2.153395096e-09
-2.243318522e-09
-2.457990089e-09
-2.649191668e-09
-2.650258347e-09
-2.69373636e-09
-3.033890051e-09
-3.489692468e-09
-4.102732926e-09
-4.97594773e-09
-5.237881662e-09
-5.966576387e-09
-7.36338899e-09
-8.130569175e-09
-9.842551651e-09
-1.184423159e-08
-1.437987401e-08
-1.871867291e-08
-2.222324419e-08
-9.215984957e-09
4.375196357e-08
7.292796017e-08
6.537504922e-08
6.490824728e-08
6.270951067e-08
)


100
(
-4.367171948e-08
-3.776552425e-08
-2.752927327e-08
-2.251651396e-08
-1.942764535e-08
-1.683249513e-08
-1.459561082e-08
-1.286831451e-08
-1.142495887e-08
-9.9615848e-09
-8.845020739e-09
-7.728688595e-09
-6.765660075e-09
-6.137068555e-09
-5.589022802e-09
-5.049755623e-09
-4.5836861e-09
-4.212137239e-09
-4.031073021e-09
-3.989774392e-09
-3.64702882e-09
-3.214749697e-09
-3.196949645e-09
-3.381518147e-09
-3.337078768e-09
-2.803124513e-09
-2.47813067e-09
-2.718299041e-09
-2.937439724e-09
-2.608282253e-09
-1.661430371e-09
-4.899524298e-10
-1.124518165e-09
-2.688183992e-09
-3.102849234e-09
-2.560029977e-09
-1.835882538e-09
-1.616958842e-09
-1.546143514e-09
-1.779385152e-09
-1.751142457e-09
-1.313195524e-09
-1.149573449e-09
-1.470635507e-09
-2.169830321e-09
-2.74820934e-09
-2.351440638e-09
-1.635783202e-09
-1.934118029e-09
-2.588639643e-09
-2.760319088e-09
-2.615361924e-09
-1.89808252e-09
-1.080934079e-09
-8.19779887e-10
-9.812331713e-10
-1.802887746e-09
-2.451602432e-09
-1.76291432e-09
-1.27877828e-09
-1.983901481e-09
-2.566518218e-09
-2.429779286e-09
-1.77152202e-09
-9.839668488e-10
-6.52324726e-10
-1.418634615e-09
-2.468297001e-09
-1.876304999e-09
-1.810625719e-09
-2.839742871e-09
-2.771178657e-09
-2.509394907e-09
-2.557682895e-09
-2.699824561e-09
-2.728706252e-09
-2.578748536e-09
-2.618977379e-09
-2.876855401e-09
-3.22401014e-09
-3.629476286e-09
-4.034995302e-09
-4.629308882e-09
-4.812266005e-09
-5.145558455e-09
-5.93794342e-09
-7.334884707e-09
-8.329108181e-09
-9.594151905e-09
-1.157076796e-08
-1.353498814e-08
-1.658039793e-08
-2.023910507e-08
-2.388603737e-08
3.759215466e-10
5.401523852e-08
7.013877354e-08
6.254442003e-08
6.403588793e-08
6.190111825e-08
)


100
(
-4.206317118e-08
-3.642852472e-08
-2.679675678e-08
-2.213853619e-08
-1.928164909e-08
-1.702295101e-08
-1.50468368e-08
-1.328420852e-08
-1.198473525e-08
-1.062951951e-08
-9.467010782e-09
-8.561968774e-09
-7.585247741e-09
-6.864769065e-09
-6.411108471e-09
-5.996552116e-09
-5.587673465e-09
-5.192722652e-09
-4.862239536e-09
-4.725327242e-09
-4.691324418e-09
-4.38587377e-09
-3.938826713e-09
-3.85019942e-09
-4.038991266e-09
-4.129847776e-09
-3.668611555e-09
-3.197820103e-09
-3.309682516e-09
-3.485750341e-09
-3.384342024e-09
-2.698478731e-09
-1.933871449e-09
-2.243522001e-09
-2.815533783e-09
-2.802499382e-09
-2.720548768e-09
-2.215212785e-09
-1.703185209e-09
-1.77879436e-09
-2.210521489e-09
-2.77119216e-09
-2.582726915e-09
-2.032938516e-09
-2.150125572e-09
-2.770848011e-09
-3.268815436e-09
-3.346663895e-09
-2.832733199e-09
-2.202657663e-09
-1.836177617e-09
-1.585573072e-09
-1.732691716e-09
-2.276629187e-09
-1.958856132e-09
-1.209932593e-09
-1.571943285e-09
-2.505182558e-09
-3.090964684e-09
-2.992475483e-09
-2.168457811e-09
-1.325234178e-09
-1.134352437e-09
-1.651807387e-09
-2.47056525e-09
-1.93907987e-09
-1.530450972e-09
-2.526856363e-09
-3.099987953e-09
-2.959727081e-09
-2.670500401e-09
-2.433130899e-09
-2.396857947e-09
-2.578933436e-09
-2.819977483e-09
-3.206336577e-09
-3.563173688e-09
-3.751959192e-09
-3.981583382e-09
-4.161638949e-09
-4.231035885e-09
-4.487660434e-09
-5.091945571e-09
-5.712599496e-09
-6.511257771e-09
-7.087364496e-09
-7.772673351e-09
-9.496217246e-09
-1.137284412e-08
-1.311253538e-08
-1.457213372e-08
-1.716117351e-08
-2.155017413e-08
-2.368839712e-08
9.817252277e-09
5.788916677e-08
6.544847343e-08
6.109766209e-08
6.20792646e-08
6.016921597e-08
)


100
(
-4.055552621e-08
-3.515647336e-08
-2.594111959e-08
-2.156983032e-08
-1.917503046e-08
-1.709718335e-08
-1.530730681e-08
-1.367250133e-08
-1.239396351e-08
-1.136534988e-08
-1.004311499e-08
-9.160838468e-09
-8.469903026e-09
-7.642288277e-09
-7.112089565e-09
-6.784184602e-09
-6.462256761e-09
-6.145897459e-09
-5.816857583e-09
-5.514830438e-09
-5.380841713e-09
-5.353191591e-09
-5.132468315e-09
-4.684816234e-09
-4.486678503e-09
-4.635443142e-09
-4.720269177e-09
-4.483818202e-09
-3.990217307e-09
-3.767417855e-09
-3.806879594e-09
-3.684305258e-09
-3.456662873e-09
-2.962026527e-09
-2.587520549e-09
-2.618408439e-09
-2.746017103e-09
-3.099611598e-09
-3.163313073e-09
-2.64119341e-09
-2.38920199e-09
-2.860174766e-09
-3.487789826e-09
-3.747567854e-09
-3.312330273e-09
-2.824845361e-09
-2.896209181e-09
-2.921063806e-09
-2.678085397e-09
-2.542651503e-09
-2.19997559e-09
-1.577591773e-09
-1.420575201e-09
-2.059186014e-09
-2.96551785e-09
-3.31202303e-09
-2.602792601e-09
-2.199454615e-09
-2.450853516e-09
-2.171758512e-09
-2.166053373e-09
-2.277147777e-09
-1.701206146e-09
-1.516919861e-09
-2.573667016e-09
-3.482898442e-09
-3.319121235e-09
-2.867613454e-09
-2.732251868e-09
-2.772775546e-09
-2.845644617e-09
-2.884520841e-09
-2.952289764e-09
-3.173878738e-09
-3.638107248e-09
-4.162196649e-09
-4.138811046e-09
-3.981273356e-09
-4.186329597e-09
-4.572152831e-09
-5.017083407e-09
-5.699202723e-09
-6.266135509e-09
-6.284820645e-09
-6.646394368e-09
-7.970162926e-09
-9.509434999e-09
-1.091066506e-08
-1.15365182e-08
-1.278845971e-08
-1.506801178e-08
-1.865570972e-08
-2.290216591e-08
-2.132326872e-08
1.562011629e-08
5.643111353e-08
5.981787733e-08
5.862732984e-08
6.006857169e-08
5.879695551e-08
)


100
(
-3.916014432e-08
-3.391462181e-08
-2.500749185e-08
-2.098898909e-08
-1.894661371e-08
-1.70883609e-08
-1.544128218e-08
-1.407815545e-08
-1.268433036e-08
-1.173819156e-08
-1.083029205e-08
-9.710732507e-09
-9.023147588e-09
-8.486539875e-09
-7.846684872e-09
-7.450690219e-09
-7.206752293e-09
-6.951077395e-09
-6.713020931e-09
-6.450629314e-09
-6.162802907e-09
-6.008881243e-09
-5.98865985e-09
-5.870005499e-09
-5.428091936e-09
-5.082072579e-09
-5.119897836e-09
-5.137502893e-09
-4.995709961e-09
-4.555806343e-09
-4.088292567e-09
-3.868885468e-09
-3.727547679e-09
-3.68902252e-09
-3.666000586e-09
-3.313855885e-09
-2.992598726e-09
-3.144427226e-09
-3.658705789e-09
-4.119229338e-09
-3.884765229e-09
-3.347633543e-09
-3.439433861e-09
-3.842887996e-09
-3.912127984e-09
-3.686502677e-09
-3.100616622e-09
-2.439344422e-09
-2.083055223e-09
-2.060169741e-09
-2.531234179e-09
-3.047886458e-09
-2.610481076e-09
-2.117487272e-09
-2.690905943e-09
-3.324914063e-09
-3.343794783e-09
-2.98018457e-09
-2.231147907e-09
-1.634010809e-09
-1.730029442e-09
-2.669347285e-09
-3.548411099e-09
-2.970107954e-09
-2.725024932e-09
-3.334881154e-09
-3.412155979e-09
-3.318148016e-09
-3.29295813e-09
-3.392810294e-09
-3.538750314e-09
-3.517565249e-09
-3.392891233e-09
-3.49178063e-09
-3.793722184e-09
-4.16884623e-09
-4.488298438e-09
-4.681720574e-09
-5.107314621e-09
-5.761276268e-09
-5.661266401e-09
-5.605471887e-09
-6.218673746e-09
-7.044377963e-09
-8.362868958e-09
-9.139648473e-09
-9.575299971e-09
-1.019545588e-08
-1.144428024e-08
-1.306249708e-08
-1.548086232e-08
-1.897175591e-08
-2.319269184e-08
-1.972930404e-08
1.773737968e-08
5.193430644e-08
5.356306197e-08
5.452349991e-08
5.589483798e-08
5.47307405e-08
)


100
(
-3.792408463e-08
-3.272514767e-08
-2.39906276e-08
-2.04398637e-08
-1.859888148e-08
-1.699183307e-08
-1.544953216e-08
-1.42241476e-08
-1.313144979e-08
-1.200269886e-08
-1.125666214e-08
-1.041807507e-08
-9.530780553e-09
-9.034917131e-09
-8.645118469e-09
-8.153718687e-09
-7.845341428e-09
-7.660740012e-09
-7.46437919e-09
-7.294408863e-09
-7.085624715e-09
-6.79718621e-09
-6.603807983e-09
-6.560383017e-09
-6.439122175e-09
-6.072542374e-09
-5.636632827e-09
-5.405402908e-09
-5.272230627e-09
-5.086228018e-09
-4.84888256e-09
-4.416510816e-09
-3.998700294e-09
-3.888113324e-09
-4.058632646e-09
-4.390487672e-09
-4.310724912e-09
-3.876588905e-09
-3.814968774e-09
-4.252404775e-09
-4.673309848e-09
-4.708299785e-09
-4.219294256e-09
-3.698122722e-09
-3.452586656e-09
-3.182944488e-09
-3.025975774e-09
-3.149405407e-09
-2.875005505e-09
-2.334623868e-09
-2.42043994e-09
-3.072753252e-09
-3.659207773e-09
-3.633155969e-09
-3.090115373e-09
-2.682234042e-09
-2.548012374e-09
-2.460903392e-09
-2.913307909e-09
-3.021974693e-09
-2.44834877e-09
-2.698723549e-09
-3.633216146e-09
-4.063761925e-09
-3.946289946e-09
-3.664498478e-09
-3.422245298e-09
-3.350296716e-09
-3.438674806e-09
-3.556965831e-09
-3.668909366e-09
-3.865022682e-09
-4.061811611e-09
-4.33927986e-09
-4.697163516e-09
-4.853504578e-09
-4.668293372e-09
-4.763048667e-09
-5.199346467e-09
-5.725893086e-09
-6.1010455e-09
-6.256569221e-09
-7.012663262e-09
-7.5937118e-09
-8.454469519e-09
-9.420912922e-09
-9.856022641e-09
-1.054744891e-08
-1.084446895e-08
-1.243331565e-08
-1.558779928e-08
-1.746208459e-08
-2.121859563e-08
-1.76278382e-08
1.590983339e-08
4.463798815e-08
4.661509836e-08
4.895490866e-08
5.056552372e-08
4.925340155e-08
)


100
(
-3.640378457e-08
-3.136390583e-08
-2.301450948e-08
-1.978680035e-08
-1.811096478e-08
-1.677444845e-08
-1.550617717e-08
-1.422507332e-08
-1.332359885e-08
-1.231247308e-08
-1.148141781e-08
-1.09256499e-08
-1.017585169e-08
-9.500848106e-09
-9.173178643e-09
-8.901921276e-09
-8.531651055e-09
-8.279008985e-09
-8.138750016e-09
-7.998119319e-09
-7.873466511e-09
-7.686940507e-09
-7.390792935e-09
-7.133511952e-09
-6.990389483e-09
-6.79996219e-09
-6.450895915e-09
-5.938698876e-09
-5.498008826e-09
-5.241055791e-09
-5.074545656e-09
-5.031135716e-09
-4.890213385e-09
-4.556974282e-09
-4.384871983e-09
-4.63395091e-09
-5.088349323e-09
-5.303131679e-09
-4.949108405e-09
-4.530945265e-09
-4.571737543e-09
-4.652710218e-09
-4.47939416e-09
-4.147688602e-09
-3.651398169e-09
-3.105616124e-09
-2.830896979e-09
-3.019237564e-09
-3.559000512e-09
-3.862264758e-09
-3.431660222e-09
-3.123483093e-09
-3.418158315e-09
-3.542586153e-09
-3.321506977e-09
-3.156988397e-09
-2.820766055e-09
-2.445922638e-09
-2.835837845e-09
-3.708842068e-09
-4.166914126e-09
-3.715436474e-09
-3.555290092e-09
-3.863240156e-09
-3.813180714e-09
-3.758246504e-09
-3.79563926e-09
-3.899778979e-09
-4.004214604e-09
-4.10279031e-09
-4.349573996e-09
-4.378358173e-09
-4.263795405e-09
-4.436736548e-09
-4.687742761e-09
-4.757399029e-09
-4.711760886e-09
-5.378282253e-09
-6.247571844e-09
-6.026462098e-09
-5.725467936e-09
-5.843580313e-09
-7.091451324e-09
-8.552050314e-09
-9.247776076e-09
-9.376207195e-09
-9.067262694e-09
-9.57988583e-09
-1.04242676e-08
-1.172358257e-08
-1.451401321e-08
-1.726848395e-08
-2.094015837e-08
-1.406563503e-08
1.496631947e-08
3.607719945e-08
3.916748105e-08
4.292838707e-08
4.461148451e-08
4.349445382e-08
)


100
(
-3.478310933e-08
-2.993270773e-08
-2.201060244e-08
-1.903228447e-08
-1.766016611e-08
-1.642637299e-08
-1.533324076e-08
-1.417112617e-08
-1.331017646e-08
-1.266833427e-08
-1.164554132e-08
-1.110451958e-08
-1.077839342e-08
-1.009744354e-08
-9.587964547e-09
-9.39925073e-09
-9.222740062e-09
-8.958842994e-09
-8.73521859e-09
-8.620843362e-09
-8.520215885e-09
-8.386282372e-09
-8.17935704e-09
-7.840153343e-09
-7.484812547e-09
-7.169412955e-09
-6.84646854e-09
-6.492032721e-09
-6.085163358e-09
-5.65846184e-09
-5.335733052e-09
-5.253191482e-09
-5.439966116e-09
-5.614576403e-09
-5.418558537e-09
-5.140621757e-09
-5.265347712e-09
-5.615951843e-09
-5.765250584e-09
-5.528161332e-09
-4.935498382e-09
-4.380305563e-09
-4.047860561e-09
-3.825109986e-09
-3.844433575e-09
-3.945457005e-09
-3.671908716e-09
-3.3429691e-09
-3.580203814e-09
-4.102694846e-09
-4.336546916e-09
-4.089308314e-09
-3.565852958e-09