/*--------------------------------*- C++ -*----------------------------------*\
| =========                 |                                                 |
| \\      /  F ield         | OpenFOAM: The Open Source CFD Toolbox           |
|  \\    /   O peration     | Version:  2.3.1                                 |
|   \\  /    A nd           | Web:      www.OpenFOAM.org                      |
|    \\/     M anipulation  |                                                 |
\*---------------------------------------------------------------------------*/
FoamFile
{
    version     2.0;
    format      ascii;
    class       dictionary;
    location    "constant";
    object      DPSI4;
}
// * * * * * * * * * * * * * * * * * * * * * * * * * * * * * * * * * * * * * //

DPSI4_table
100
(

100
(
3.865552962e-07
4.970678001e-07
5.691238532e-07
6.406006007e-07
6.906196967e-07
7.349616882e-07
8.151037932e-07
8.376201685e-07
9.022690672e-07
9.376666566e-07
9.598967523e-07
1.025213139e-06
1.040464559e-06
1.082674589e-06
1.152980927e-06
1.169391197e-06
1.197479576e-06
1.300373097e-06
1.315846126e-06
1.332929327e-06
1.417559608e-06
1.464809375e-06
1.478896301e-06
1.511980031e-06
1.593246765e-06
1.605172177e-06
1.619781525e-06
1.674803641e-06
1.782017907e-06
1.795807124e-06
1.808894283e-06
1.851966668e-06
1.914783663e-06
1.925644898e-06
1.940542336e-06
1.990191165e-06
2.106267419e-06
2.170643186e-06
2.183248634e-06
2.221140185e-06
2.309113188e-06
2.378279855e-06
2.390469327e-06
2.420104235e-06
2.480938978e-06
2.542078134e-06
2.556295327e-06
2.57943796e-06
2.688362088e-06
2.799573518e-06
2.861865217e-06
2.887015907e-06
2.96235533e-06
3.042872928e-06
3.095961964e-06
3.120914138e-06
3.167348601e-06
3.219108237e-06
3.256314537e-06
3.296546383e-06
3.348105372e-06
3.476200494e-06
3.56943677e-06
3.577895673e-06
3.630782662e-06
3.792291063e-06
3.89431532e-06
3.869261355e-06
4.009224874e-06
4.15647244e-06
4.220816063e-06
4.259390538e-06
4.458136185e-06
4.572184968e-06
4.554376695e-06
4.689972209e-06
4.927176875e-06
4.926184825e-06
5.053924073e-06
5.322953252e-06
5.317098224e-06
5.548003163e-06
5.726418001e-06
5.746913023e-06
6.123525862e-06
6.165598288e-06
6.374960215e-06
6.632794614e-06
6.719947293e-06
7.026796219e-06
7.154277269e-06
7.399463239e-06
7.514109619e-06
7.725250488e-06
7.813765682e-06
7.999244991e-06
8.043192425e-06
7.829771966e-06
6.616971734e-06
5.792200954e-06
)


100
(
3.863861019e-07
4.982717437e-07
5.72089708e-07
6.45671327e-07
6.859336617e-07
7.441206634e-07
7.982228505e-07
8.514888975e-07
8.959530016e-07
9.576317867e-07
9.773400124e-07
1.038637342e-06
1.066634084e-06
1.097235704e-06
1.167588589e-06
1.204012999e-06
1.226930116e-06
1.299975295e-06
1.36137254e-06
1.377804551e-06
1.432961847e-06
1.496525084e-06
1.537199606e-06
1.562368122e-06
1.615638535e-06
1.663718604e-06
1.690384384e-06
1.728254984e-06
1.797798751e-06
1.859267868e-06
1.900206662e-06
1.931393788e-06
1.974475614e-06
2.013272536e-06
2.046568134e-06
2.081368454e-06
2.157614789e-06
2.229836055e-06
2.297705788e-06
2.351512385e-06
2.411122842e-06
2.470876935e-06
2.525710386e-06
2.588539043e-06
2.631885534e-06
2.677869452e-06
2.719445004e-06
2.766970929e-06
2.851730183e-06
2.928757685e-06
3.001556737e-06
3.07648527e-06
3.182155911e-06
3.240480069e-06
3.290776407e-06
3.344722813e-06
3.443607424e-06
3.47891215e-06
3.514209523e-06
3.564144756e-06
3.667313429e-06
3.718797555e-06
3.81751536e-06
3.913199142e-06
3.986806048e-06
4.062305491e-06
4.19086236e-06
4.318925969e-06
4.384809039e-06
4.517894415e-06
4.659442473e-06
4.805531284e-06
4.917316819e-06
5.06096963e-06
5.211425641e-06
5.323574767e-06
5.403556937e-06
5.583923162e-06
5.789472588e-06
5.94566414e-06
6.115803132e-06
6.269045147e-06
6.540387295e-06
6.590687323e-06
6.880814994e-06
7.093098732e-06
7.268268892e-06
7.53462039e-06
7.745241565e-06
7.984161416e-06
8.176951128e-06
8.409011826e-06
8.59227356e-06
8.75373365e-06
8.931587213e-06
9.087198385e-06
9.112127271e-06
8.519499779e-06
7.371301903e-06
6.512658772e-06
)


100
(
3.863106551e-07
4.960870703e-07
5.736576318e-07
6.298546803e-07
6.788917603e-07
7.529913439e-07
7.767107281e-07
8.630131937e-07
8.862855714e-07
9.563097925e-07
9.959168777e-07
1.03260594e-06
1.092952261e-06
1.111670225e-06
1.155544307e-06
1.225582297e-06
1.258763721e-06
1.285108907e-06
1.359851422e-06
1.427317453e-06
1.444215163e-06
1.494748375e-06
1.562110813e-06
1.616546322e-06
1.631832655e-06
1.687823959e-06
1.740706126e-06
1.784302071e-06
1.800647287e-06
1.871350786e-06
1.941325345e-06
2.006149438e-06
2.029746694e-06
2.07629574e-06
2.12205806e-06
2.164943392e-06
2.196282195e-06
2.244794396e-06
2.326437904e-06
2.403407883e-06
2.475185768e-06
2.532703806e-06
2.593836869e-06
2.654640378e-06
2.706496577e-06
2.777843835e-06
2.823460996e-06
2.869707714e-06
2.912197155e-06
2.997170254e-06
3.044916745e-06
3.124733688e-06
3.204028441e-06
3.306535814e-06
3.360298251e-06
3.415990335e-06
3.497695841e-06
3.632451396e-06
3.698619829e-06
3.737995594e-06
3.848789664e-06
3.920305302e-06
3.957759215e-06
4.093119392e-06
4.212358486e-06
4.250192962e-06
4.316519138e-06
4.525168314e-06
4.616765048e-06
4.705855315e-06
4.824699667e-06
4.984381138e-06
5.026441289e-06
5.15562585e-06
5.407789827e-06
5.491622081e-06
5.436322488e-06
5.742639966e-06
5.957273319e-06
5.867430651e-06
6.154548651e-06
6.27239023e-06
6.370742427e-06
6.607618049e-06
6.63662556e-06
6.88663699e-06
6.975366623e-06
7.055021433e-06
7.265656747e-06
7.290516141e-06
7.452581183e-06
7.52507044e-06
7.665580532e-06
7.756998854e-06
7.898148791e-06
7.925426461e-06
7.931202551e-06
7.066100509e-06
6.849277414e-06
6.464458291e-06
)


100
(
3.863575969e-07
4.823968807e-07
5.600480165e-07
6.117370629e-07
6.841471383e-07
7.393744277e-07
7.864165122e-07
8.432614578e-07
9.016223698e-07
9.376169125e-07
1.01481501e-06
1.036735871e-06
1.088210443e-06
1.141839773e-06
1.160149504e-06
1.213025991e-06
1.283585914e-06
1.317338326e-06
1.343479406e-06
1.4204037e-06
1.490194114e-06
1.51601382e-06
1.558409522e-06
1.629660507e-06
1.695184327e-06
1.719199352e-06
1.763313041e-06
1.821124232e-06
1.874618079e-06
1.903080334e-06
1.946909028e-06
2.022894326e-06
2.092375696e-06
2.153106967e-06
2.175938569e-06
2.220994096e-06
2.263501081e-06
2.326193857e-06
2.344781094e-06
2.397569815e-06
2.479306133e-06
2.560931268e-06
2.62881356e-06
2.645457367e-06
2.707153177e-06
2.795371727e-06
2.920731152e-06
2.935028576e-06
2.969669782e-06
3.058112546e-06
3.173424207e-06
3.205768684e-06
3.226590121e-06
3.344633737e-06
3.473769629e-06
3.533056622e-06
3.535986164e-06
3.709131836e-06
3.866796273e-06
3.970692566e-06
4.013000194e-06
4.161735194e-06
4.235052199e-06
4.294065302e-06
4.383046969e-06
4.492908006e-06
4.523145314e-06
4.59364176e-06
4.750595793e-06
4.826360806e-06
4.879205264e-06
4.949915615e-06
5.097533375e-06
5.135564839e-06
5.153205484e-06
5.363459635e-06
5.633794999e-06
5.639586502e-06
5.701996748e-06
5.886420843e-06
6.008022837e-06
6.189976461e-06
6.16009449e-06
6.385419407e-06
6.472527989e-06
6.505833971e-06
6.701127727e-06
6.756959403e-06
6.817743948e-06
6.86333098e-06
6.998176341e-06
7.129100153e-06
7.170840764e-06
7.355440274e-06
7.386887264e-06
7.449052168e-06
7.359536276e-06
6.763883109e-06
6.615176268e-06
6.355876281e-06
)


100
(
3.865329484e-07
4.705715623e-07
5.449731596e-07
6.141342712e-07
6.875865124e-07
7.211701266e-07
7.963975979e-07
8.222272678e-07
9.060446131e-07
9.403075085e-07
9.987955622e-07
1.060874159e-06
1.081060636e-06
1.143699019e-06
1.192139547e-06
1.212486863e-06
1.270984606e-06
1.342475228e-06
1.379864693e-06
1.402215761e-06
1.480466803e-06
1.55300309e-06
1.591686389e-06
1.622282159e-06
1.69644518e-06
1.764981838e-06
1.810469447e-06
1.839349626e-06
1.89528154e-06
1.946371451e-06
1.996506449e-06
2.013804904e-06
2.077297087e-06
2.149762651e-06
2.233371481e-06
2.247238908e-06
2.275892059e-06
2.325034193e-06
2.439175767e-06
2.461633705e-06
2.481408928e-06
2.533782962e-06
2.659210555e-06
2.73638441e-06
2.757341277e-06
2.769557093e-06
2.937687108e-06
3.089687057e-06
3.111651041e-06
3.10907973e-06
3.250684256e-06
3.378289867e-06
3.435769934e-06
3.454517437e-06
3.575113864e-06
3.714181994e-06
3.795208622e-06
3.826736554e-06
3.928707876e-06
4.072985153e-06
4.168809095e-06
4.224664389e-06
4.320069213e-06
4.381126674e-06
4.455019638e-06
4.556665975e-06
4.656201109e-06
4.698452793e-06
4.752012077e-06
4.828041165e-06
4.959201456e-06
5.03705318e-06
5.10361763e-06
5.149829946e-06
5.226315763e-06
5.291225101e-06
5.533538071e-06
5.574347768e-06
5.638195575e-06
5.879073727e-06
5.890773007e-06
5.921676558e-06
6.137799326e-06
6.173868224e-06
6.243928327e-06
6.312606656e-06
6.403143358e-06
6.485891631e-06
6.55471993e-06
6.666994519e-06
6.740445112e-06
6.826402552e-06
6.926701027e-06
6.985536043e-06
7.083585866e-06
7.112536076e-06
6.712051189e-06
6.543547796e-06
6.394101159e-06
6.226527685e-06
)


100
(
3.809551238e-07
4.697391161e-07
5.450833744e-07
6.16539035e-07
6.711847944e-07
7.256694223e-07
7.866074537e-07
8.330016945e-07
8.845930284e-07
9.569994357e-07
9.810032564e-07
1.057344518e-06
1.106475547e-06
1.134421457e-06
1.199351579e-06
1.245470217e-06
1.267580259e-06
1.328154109e-06
1.400852077e-06
1.44471528e-06
1.467455591e-06
1.538801742e-06
1.614159563e-06
1.66871431e-06
1.690258195e-06
1.757946389e-06
1.830367547e-06
1.873292853e-06
1.888692086e-06
1.932551076e-06
1.999822834e-06
2.072318002e-06
2.089617818e-06
2.115224179e-06
2.212787549e-06
2.315383487e-06
2.335937116e-06
2.33261468e-06
2.435821308e-06
2.565957122e-06
2.598882672e-06
2.617689213e-06
2.677603578e-06
2.816339543e-06
2.898578469e-06
2.896032182e-06
2.93207101e-06
3.109029031e-06
3.268002329e-06
3.282034764e-06
3.315578264e-06
3.445786925e-06
3.582481134e-06
3.648750341e-06
3.662646808e-06
3.751490092e-06
3.863569421e-06
3.901817056e-06
3.927658591e-06
3.981390849e-06
4.082544752e-06
4.17120514e-06
4.26025631e-06
4.386709971e-06
4.481816362e-06
4.588393347e-06
4.694282082e-06
4.753804489e-06
4.864472427e-06
4.927705436e-06
4.979674187e-06
5.040909317e-06
5.135037914e-06
5.260728337e-06
5.393250422e-06
5.406097807e-06
5.396469111e-06
5.560266557e-06
5.620712728e-06
5.660871746e-06
5.725619153e-06
5.795623496e-06
5.940234421e-06
6.043655548e-06
6.119544856e-06
6.221879919e-06
6.269139774e-06
6.31591034e-06
6.367215877e-06
6.545478615e-06
6.602499193e-06
6.617356275e-06
6.737540386e-06
6.775434724e-06
6.864615325e-06
6.912963949e-06
6.352613577e-06
6.403747883e-06
6.305504662e-06
6.210553476e-06
)


100
(
3.712534633e-07
4.683056556e-07
5.450074832e-07
6.09830634e-07
6.54373382e-07
7.316184409e-07
7.682659817e-07
8.435359034e-07
8.712155591e-07
9.46526778e-07
9.983877901e-07
1.036442535e-06
1.114481014e-06
1.154136699e-06
1.189634625e-06
1.254502979e-06
1.300611502e-06
1.324132284e-06
1.383123923e-06
1.457169054e-06
1.51020351e-06
1.533953284e-06
1.594014274e-06
1.672365481e-06
1.743696415e-06
1.766331681e-06
1.814041537e-06
1.88721266e-06
1.929236211e-06
1.951573993e-06
1.975593099e-06
2.093328175e-06
2.166821512e-06
2.189672993e-06
2.195652966e-06
2.331500798e-06
2.434476161e-06
2.4560185e-06
2.418995687e-06
2.561973775e-06
2.697876393e-06
2.741134381e-06
2.740623432e-06
2.82748194e-06
2.970929896e-06
3.055227807e-06
3.053395069e-06
3.089269336e-06
3.271118549e-06
3.403544444e-06
3.438885778e-06
3.444588282e-06
3.526993594e-06
3.612751655e-06
3.692569087e-06
3.774807525e-06
3.822806879e-06
3.856501536e-06
3.928897679e-06
4.003856568e-06
4.072014569e-06
4.127044293e-06
4.254496089e-06
4.383761004e-06
4.463686204e-06
4.534749312e-06
4.62560934e-06
4.696727191e-06
4.749283663e-06
4.851432507e-06
4.952680964e-06
5.054914131e-06
5.169523685e-06
5.253006969e-06
5.288848673e-06
5.430257203e-06
5.407531605e-06
5.459526389e-06
5.526992631e-06
5.62395451e-06
5.735292741e-06
5.80716962e-06
5.808558932e-06
5.91415211e-06
5.997991495e-06
6.09481531e-06
6.187875833e-06
6.266729531e-06
6.310185549e-06
6.377106371e-06
6.498987927e-06
6.547839935e-06
6.614730658e-06
6.66997032e-06
6.735984684e-06
6.789529827e-06
6.329521301e-06
6.393460575e-06
6.337774996e-06
6.274842076e-06
)


100
(
3.673000682e-07
4.641866395e-07
5.391367505e-07
5.944927522e-07
6.568790161e-07
7.218943914e-07
7.691355683e-07
8.298386319e-07
8.821647444e-07
9.214027123e-07
1.00548699e-06
1.041348212e-06
1.093619574e-06
1.170122728e-06
1.203293646e-06
1.243448811e-06
1.308491725e-06
1.356723986e-06
1.381402883e-06
1.435921504e-06
1.512026127e-06
1.57664437e-06
1.601536688e-06
1.647035145e-06
1.72871313e-06
1.807136089e-06
1.844797737e-06
1.89811072e-06
1.977714835e-06
2.015656268e-06
2.026175064e-06
2.052834585e-06
2.196837572e-06
2.269129927e-06
2.275122582e-06
2.301415032e-06
2.448120055e-06
2.552420673e-06
2.528950745e-06
2.543677797e-06
2.684361722e-06
2.825647967e-06
2.856367723e-06
2.886520058e-06
2.973138902e-06
3.120761254e-06
3.165218821e-06
3.17322011e-06
3.181875744e-06
3.311649856e-06
3.376663238e-06
3.443533595e-06
3.481474697e-06
3.522999796e-06
3.609406855e-06
3.727136627e-06
3.839822067e-06
3.941589887e-06
4.000453963e-06
4.079100477e-06
4.159917273e-06
4.196099782e-06
4.237479211e-06
4.276137949e-06
4.363530045e-06
4.439493172e-06
4.523770872e-06
4.632358794e-06
4.695043874e-06
4.800526281e-06
4.940779287e-06
5.022174994e-06
5.098850033e-06
5.152190638e-06
5.190919261e-06
5.279704041e-06
5.413426337e-06
5.48259551e-06
5.561279062e-06
5.617725514e-06
5.649177597e-06
5.720909802e-06
5.798328519e-06
5.856997121e-06
5.919772367e-06
5.976964005e-06
6.04868018e-06
6.139449098e-06
6.253342154e-06
6.298045102e-06
6.32677778e-06
6.412002882e-06
6.483498717e-06
6.566703661e-06
6.605796837e-06
6.593005989e-06
6.247506638e-06
6.341529529e-06
6.326355436e-06
6.271026821e-06
)


100
(
3.673066014e-07
4.53852733e-07
5.256342452e-07
5.871751044e-07
6.591632265e-07
7.028241812e-07
7.752658047e-07
8.099933446e-07
8.86937874e-07
9.219969214e-07
9.811541404e-07
1.058472895e-06
1.085588786e-06
1.148693154e-06
1.223987544e-06
1.253682134e-06
1.295512309e-06
1.360611676e-06
1.414923537e-06
1.441011005e-06
1.487623745e-06
1.565615469e-06
1.643453757e-06
1.670274047e-06
1.700148406e-06
1.78328056e-06
1.864999828e-06
1.925961366e-06
1.988082834e-06
2.069005256e-06
2.102542624e-06
2.070353144e-06
2.152261282e-06
2.299232851e-06
2.371304425e-06
2.347960568e-06
2.413063276e-06
2.562665895e-06
2.654356986e-06
2.63640482e-06
2.669050677e-06
2.803401327e-06
2.937650703e-06
2.979004892e-06
2.992147308e-06
3.054656474e-06
3.121791867e-06
3.16343778e-06
3.208761664e-06
3.228355118e-06
3.294193914e-06
3.394560699e-06
3.496606764e-06
3.594801342e-06
3.652902355e-06
3.669003504e-06
3.790257888e-06
3.912215798e-06
3.998999889e-06
4.07905662e-06
4.130481198e-06
4.179232081e-06
4.208033264e-06
4.271024549e-06
4.365981359e-06
4.431389013e-06
4.497112349e-06
4.628719071e-06
4.732633064e-06
4.773372513e-06
4.815514327e-06
4.873052856e-06
4.949186984e-06
5.077074454e-06
5.201372207e-06
5.266274393e-06
5.375347032e-06
5.423379559e-06
5.440985275e-06
5.498539127e-06
5.598326328e-06
5.674965813e-06
5.715454624e-06
5.749768343e-06
5.802588743e-06
5.85593627e-06
5.929609283e-06
6.030694939e-06
6.130115323e-06
6.16414154e-06
6.195412435e-06
6.274339179e-06
6.346228732e-06
6.414200221e-06
6.388381496e-06
6.345328276e-06
6.085798804e-06
6.182617207e-06
6.184604152e-06
6.156781815e-06
)


100
(
3.674083296e-07
4.459222411e-07
5.171505744e-07
5.86995499e-07
6.485214459e-07
6.983631991e-07
7.662834033e-07
8.139935684e-07
8.685546034e-07
9.331532924e-07
9.62788466e-07
1.038110824e-06
1.103182392e-06
1.131031381e-06
1.201438769e-06
1.276354332e-06
1.304944809e-06
1.346053887e-06
1.412113834e-06
1.474638055e-06
1.501290779e-06
1.537480948e-06
1.617636996e-06
1.697135504e-06
1.741011043e-06
1.765877297e-06
1.835470851e-06
1.920896441e-06
2.002362834e-06
2.078718738e-06
2.160641942e-06
2.169027662e-06
2.147647202e-06
2.251211423e-06
2.401015059e-06
2.444742095e-06
2.456688509e-06
2.523992983e-06
2.676084868e-06
2.729174644e-06
2.745481795e-06
2.752869397e-06
2.850576771e-06
2.924692131e-06
3.005787742e-06
3.04060392e-06
3.070070461e-06
3.127810392e-06
3.20738199e-06
3.289931912e-06
3.374670192e-06
3.402707521e-06
3.465876199e-06
3.571711018e-06
3.675254744e-06
3.733908129e-06
3.795800086e-06
3.810807031e-06
3.884488077e-06
3.966877977e-06
4.060113879e-06
4.180661894e-06
4.240157529e-06
4.280101798e-06
4.384013924e-06
4.48548809e-06
4.525388436e-06
4.56301499e-06
4.593238645e-06
4.647770949e-06
4.750265917e-06
4.8900806e-06
4.927949422e-06
5.042133604e-06
5.164819721e-06
5.208152127e-06
5.22480364e-06
5.291765629e-06
5.390053e-06
5.46518753e-06
5.506467377e-06
5.552427436e-06
5.590712225e-06
5.655960711e-06
5.713051288e-06
5.786734193e-06
5.823499323e-06
5.90325515e-06
5.958563893e-06
6.034735461e-06
6.109629827e-06
6.184319067e-06
6.25268495e-06
6.257681674e-06
6.331911005e-06
6.027762683e-06
5.829181813e-06
5.958469703e-06
5.946425332e-06
5.952151092e-06
)


100
(
3.640714122e-07
4.441245648e-07
5.154618127e-07
5.852423746e-07
6.321123892e-07
7.007871602e-07
7.463892898e-07
8.202918649e-07
8.533180976e-07
9.241113222e-07
9.744928072e-07
1.008867745e-06
1.091982275e-06
1.148741139e-06
1.176665148e-06
1.250962955e-06
1.328644393e-06
1.358403149e-06
1.394663624e-06
1.462035175e-06
1.534948369e-06
1.563237374e-06
1.587014786e-06
1.667451187e-06
1.749398695e-06
1.813580433e-06
1.838679409e-06
1.885739585e-06
1.9737119e-06
2.056352028e-06
2.170595183e-06
2.253482609e-06
2.21185763e-06
2.242163172e-06
2.349725077e-06
2.498351216e-06
2.533577675e-06
2.562014552e-06
2.609589027e-06
2.698512208e-06
2.742927957e-06
2.766165171e-06
2.770051434e-06
2.833372353e-06
2.931553582e-06
3.038440382e-06
3.143245423e-06
3.182494956e-06
3.196202858e-06
3.283536998e-06
3.372093902e-06
3.454210371e-06
3.532253735e-06
3.562925902e-06
3.597145033e-06
3.675903939e-06
3.726913044e-06
3.812414705e-06
3.905736931e-06
3.935991865e-06
4.003981997e-06
4.135395502e-06
4.262859816e-06
4.335517242e-06
4.358761505e-06
4.381416503e-06
4.429133134e-06
4.503281825e-06
4.612820082e-06
4.629650234e-06
4.716976278e-06
4.849700114e-06
4.926189714e-06
4.965066837e-06
5.007868858e-06
5.108976966e-06
5.209937928e-06
5.271223163e-06
5.307875819e-06
5.350069602e-06
5.394400184e-06
5.463184349e-06
5.559278268e-06
5.631423717e-06
5.660222122e-06
5.717610164e-06
5.752038537e-06
5.80370339e-06
5.872881892e-06
5.94557206e-06
6.030463559e-06
6.102899197e-06
6.171965363e-06
6.219387994e-06
6.365699136e-06
5.745660538e-06
5.634656509e-06
5.784346899e-06
5.74107345e-06
5.729702966e-06
)


100
(
3.565649119e-07
4.421064222e-07
5.137775704e-07
5.715224567e-07
6.279625852e-07
6.950311043e-07
7.402743318e-07
8.056191369e-07
8.60201579e-07
9.028567377e-07
9.773656405e-07
1.016664979e-06
1.061906694e-06
1.142656779e-06
1.194465052e-06
1.222694658e-06
1.298964566e-06
1.379315508e-06
1.413406374e-06
1.441991591e-06
1.512571242e-06
1.585869907e-06
1.626271274e-06
1.650026833e-06
1.714760724e-06
1.799120818e-06
1.880423403e-06
1.912491999e-06
1.939476089e-06
2.020860332e-06
2.10716437e-06
2.245802627e-06
2.309546556e-06
2.302843415e-06
2.335150694e-06
2.436073585e-06
2.522401516e-06
2.584600777e-06
2.593849623e-06
2.622178433e-06
2.67582783e-06
2.751120119e-06
2.83384939e-06
2.87984653e-06
2.899772e-06
2.976048495e-06
3.087916612e-06
3.195439457e-06
3.277854166e-06
3.31671858e-06
3.345593339e-06
3.406942305e-06
3.463630539e-06
3.527647972e-06
3.626689152e-06
3.659272463e-06
3.678718962e-06
3.771643623e-06
3.884425123e-06
3.99259387e-06
4.079362838e-06
4.094515574e-06
4.140282124e-06
4.211176506e-06
4.281721905e-06
4.37091019e-06
4.402940052e-06
4.465498199e-06
4.600543286e-06
4.71927636e-06
4.732353379e-06
4.728483294e-06
4.798365973e-06
4.859272462e-06
4.93659281e-06
5.004187676e-06
5.08613491e-06
5.168136896e-06
5.217812916e-06
5.285175538e-06
5.386525517e-06
5.438866336e-06
5.490469407e-06
5.546585946e-06
5.633563653e-06
5.690745231e-06
5.73361475e-06
5.796617204e-06
5.871890038e-06
5.944678729e-06
6.032785806e-06
6.100788379e-06
6.176142112e-06
6.273275848e-06
6.181102976e-06
5.614010677e-06
5.719041816e-06
5.695573666e-06
5.683880483e-06
5.676472466e-06
)


100
(
3.52449471e-07
4.379603338e-07
5.054178064e-07
5.580799567e-07
6.276848964e-07
6.783025285e-07
7.42629797e-07
7.838340233e-07
8.606820155e-07
9.00388083e-07
9.562370967e-07
1.027610068e-06
1.058350636e-06
1.11170873e-06
1.19280544e-06
1.242518364e-06
1.268392378e-06
1.344614318e-06
1.427596371e-06
1.468974859e-06
1.488225556e-06
1.559776253e-06
1.634601722e-06
1.689011452e-06
1.713413091e-06
1.758596024e-06
1.844649672e-06
1.926142778e-06
1.986422014e-06
2.014187391e-06
2.063227782e-06
2.151128436e-06
2.296072609e-06
2.35011676e-06
2.360422465e-06
2.368463302e-06
2.429331765e-06
2.499893302e-06
2.595800222e-06
2.664552993e-06
2.684880524e-06
2.727603092e-06
2.810672953e-06
2.894961658e-06
2.977054682e-06
3.008570399e-06
3.037034229e-06
3.123276031e-06
3.231466202e-06
3.289762307e-06
3.356693307e-06
3.381460452e-06
3.386065799e-06
3.442526161e-06
3.5529481e-06
3.67273056e-06
3.791789169e-06
3.789545985e-06
3.833897047e-06
3.934203645e-06
3.991345292e-06
4.057786874e-06
4.107819232e-06
4.110801505e-06
4.175108006e-06
4.325641045e-06
4.470354255e-06
4.537089831e-06
4.546202429e-06
4.649021241e-06
4.679373723e-06
4.710775495e-06
4.762026811e-06
4.821846528e-06
4.882945109e-06
4.931436919e-06
5.000997927e-06
5.084318404e-06
5.195606212e-06
5.270331833e-06
5.318104035e-06
5.369907202e-06
5.442504915e-06
5.546259552e-06
5.58925477e-06
5.623527004e-06
5.728194404e-06
5.767865153e-06
5.836869475e-06
5.902891299e-06
5.953749973e-06
6.036358241e-06
6.087167545e-06
6.097194728e-06
5.972196979e-06
5.634573446e-06
5.859432976e-06
5.774286997e-06
5.776282711e-06
5.759096143e-06
)


100
(
3.524715045e-07
4.312826638e-07
4.94795226e-07
5.562504945e-07
6.207082439e-07
6.683085979e-07
7.35500132e-07
7.819399808e-07
8.392449891e-07
9.064850506e-07
9.402764135e-07
1.005548926e-06
1.069321856e-06
1.101270117e-06
1.159837338e-06
1.241655407e-06
1.291160301e-06
1.314893016e-06
1.388929636e-06
1.472795189e-06
1.522942392e-06
1.543025338e-06
1.603904945e-06
1.680262785e-06
1.751690722e-06
1.776583508e-06
1.80497911e-06
1.883838092e-06
1.967441157e-06
2.045349617e-06
2.087186312e-06
2.117063503e-06
2.182283917e-06
2.272649677e-06
2.324485994e-06
2.382095828e-06
2.41314587e-06
2.446890316e-06
2.536882775e-06
2.638206472e-06
2.736510722e-06
2.77973526e-06
2.788905865e-06
2.86059713e-06
2.948538834e-06
3.026892981e-06
3.095327808e-06
3.124814289e-06
3.139107311e-06
3.192602153e-06
3.25609236e-06
3.359250266e-06
3.465770242e-06
3.487772393e-06
3.478700358e-06
3.594315354e-06
3.720358665e-06
3.818031804e-06
3.866001102e-06
3.85169156e-06
3.841253956e-06
3.907899024e-06
4.058744123e-06
4.206798971e-06
4.211659114e-06
4.250405904e-06
4.386534882e-06
4.468115771e-06
4.516782315e-06
4.554679072e-06
4.628648872e-06
4.719287725e-06
4.805149188e-06
4.842752342e-06
4.880391045e-06
4.927633361e-06
4.986922957e-06
5.050189815e-06
5.136959205e-06
5.204151494e-06
5.274882707e-06
5.343106999e-06
5.430813025e-06
5.472934132e-06
5.527905935e-06
5.621646093e-06
5.691436179e-06
5.733021934e-06
5.777521368e-06
5.829464228e-06
5.89442364e-06
5.925111433e-06
5.947723987e-06
6.003538446e-06
5.982173365e-06
5.761622572e-06
5.89009356e-06
5.914332837e-06
5.9302535e-06
5.902618068e-06
)


100
(
3.525738735e-07
4.26722683e-07
4.907512129e-07
5.543238066e-07
6.054813812e-07
6.677284663e-07
7.174600574e-07
7.837868231e-07
8.208433259e-07
8.912872263e-07
9.456552461e-07
9.792461317e-07
1.052050654e-06
1.112395486e-06
1.143786088e-06
1.205014867e-06
1.287493402e-06
1.340102112e-06
1.362014862e-06
1.430255402e-06
1.514789975e-06
1.577069291e-06
1.597901917e-06
1.644828301e-06
1.722732166e-06
1.794054908e-06
1.839409647e-06
1.86843864e-06
1.91797571e-06
2.002013618e-06
2.07700391e-06
2.146325153e-06
2.169422332e-06
2.192591011e-06
2.263277785e-06
2.345884641e-06
2.43961246e-06
2.496313553e-06
2.515452444e-06
2.568160199e-06
2.671638427e-06
2.771801871e-06
2.850514942e-06
2.883084429e-06
2.915462735e-06
2.976655989e-06
3.034065813e-06
3.083979201e-06
3.166259422e-06
3.206138235e-06
3.227447107e-06
3.298786377e-06
3.41149796e-06
3.518499866e-06
3.580143552e-06
3.59162819e-06
3.607135829e-06
3.691566799e-06
3.736307815e-06
3.823124476e-06
3.893510478e-06
3.894993287e-06
3.966238106e-06
4.12173304e-06
4.252219323e-06
4.292060704e-06
4.30234818e-06
4.337816261e-06
4.420589203e-06
4.505029838e-06
4.570602131e-06
4.639706052e-06
4.711372594e-06
4.780420394e-06
4.840158853e-06
4.911411867e-06
4.97767525e-06
5.025294685e-06
5.056608236e-06
5.124939174e-06
5.22098187e-06
5.309082517e-06
5.356146353e-06
5.392425257e-06
5.486186941e-06
5.589828783e-06
5.628972582e-06
5.673928883e-06
5.712337077e-06
5.769087045e-06
5.858630791e-06
5.931583547e-06
5.999104894e-06
6.102592347e-06
5.886000174e-06
5.830085735e-06
5.891266539e-06
5.938491457e-06
5.987603263e-06
6.023422608e-06
)


100
(
3.492392048e-07
4.2468577e-07
4.883031713e-07
5.465178683e-07
5.95970995e-07
6.629410813e-07
7.072984047e-07
7.702606233e-07
8.228638958e-07
8.662837462e-07
9.386045055e-07
9.852648975e-07
1.025276478e-06
1.097939496e-06
1.155816336e-06
1.185750156e-06
1.247028297e-06
1.330259899e-06
1.387529135e-06
1.409526162e-06
1.468296395e-06
1.553638014e-06
1.630755051e-06
1.652966878e-06
1.682493335e-06
1.759973341e-06
1.832147544e-06
1.901057713e-06
1.930675621e-06
1.9559316e-06
2.017935439e-06
2.091837361e-06
2.177522687e-06
2.234913181e-06
2.259008227e-06
2.287456048e-06
2.375574733e-06
2.471248712e-06
2.564879724e-06
2.596264773e-06
2.620348826e-06
2.695240625e-06
2.79745765e-06
2.869167689e-06
2.931083088e-06
2.961280649e-06
2.973144412e-06
3.025920837e-06
3.108578402e-06
3.207829385e-06
3.305779956e-06
3.318376405e-06
3.342862815e-06
3.451908203e-06
3.553671009e-06
3.576551867e-06
3.62089353e-06
3.61798196e-06
3.645738102e-06
3.758439786e-06
3.886016641e-06
4.001311829e-06
3.988624076e-06
4.016327878e-06
4.12578476e-06
4.178510193e-06
4.234480224e-06
4.294176328e-06
4.357043747e-06
4.43537403e-06
4.510918386e-06
4.565920989e-06
4.602073277e-06
4.686439499e-06
4.774983906e-06
4.850443171e-06
4.90663488e-06
4.939032434e-06
5.004019528e-06
5.092569223e-06
5.14238859e-06
5.193884143e-06
5.22277955e-06
5.347790772e-06
5.448778067e-06
5.471820835e-06
5.540056917e-06
5.618189184e-06
5.679571264e-06
5.711132385e-06
5.746468574e-06
5.820750399e-06
5.906010157e-06
5.89105419e-06
5.661316241e-06
5.773528153e-06
5.861204016e-06
5.880165944e-06
5.917212666e-06
5.965059164e-06
)


100
(
3.43406684e-07
4.225107163e-07
4.849364621e-07
5.352541343e-07
5.93666934e-07
6.469786715e-07
7.063602994e-07
7.504181592e-07
8.195739065e-07
8.605916377e-07
9.137342364e-07
9.87064853e-07
1.025697637e-06
1.06888187e-06
1.142501459e-06
1.19953937e-06
1.228172372e-06
1.287140977e-06
1.37002942e-06
1.434910938e-06
1.457450138e-06
1.503237547e-06
1.589305458e-06
1.664516468e-06
1.708190732e-06
1.73766848e-06
1.793561612e-06
1.866482688e-06
1.926390092e-06
1.978065961e-06
2.005509915e-06
2.038206361e-06
2.119543959e-06
2.209888854e-06
2.301150382e-06
2.326386654e-06
2.333103391e-06
2.398825909e-06
2.497071169e-06
2.588624672e-06
2.668062684e-06
2.70141011e-06
2.720878763e-06
2.775749757e-06
2.829417394e-06
2.915206247e-06
3.02704397e-06
3.057672554e-06
3.056977443e-06
3.142391321e-06
3.246528487e-06
3.341087471e-06
3.408694471e-06
3.424489683e-06
3.43649514e-06
3.485755327e-06
3.555275939e-06
3.66677031e-06
3.717573721e-06
3.718707387e-06
3.812055276e-06
3.943345596e-06
4.006869905e-06
4.030865075e-06
4.045640261e-06
4.086656566e-06
4.157666196e-06
4.239731387e-06
4.299537726e-06
4.35536424e-06
4.426093588e-06
4.497903128e-06
4.566926533e-06
4.635038892e-06
4.717809757e-06
4.785987745e-06
4.791915489e-06
4.841510514e-06
4.919424171e-06
5.013201616e-06
5.082867339e-06
5.13339949e-06
5.177100573e-06
5.235517936e-06
5.32215694e-06
5.396081464e-06
5.471773613e-06
5.53595644e-06
5.627401763e-06
5.683512063e-06
5.703462811e-06
5.738087091e-06
5.76735635e-06
5.852221988e-06
5.69028189e-06
5.644882059e-06
5.757209568e-06
5.774812053e-06
5.792500879e-06
5.827259002e-06
)


100
(
3.410323581e-07
4.180833938e-07
4.782240815e-07
5.296294981e-07
5.901114967e-07
6.33851749e-07
6.990016198e-07
7.450142185e-07
7.997313408e-07
8.61496802e-07
8.987348307e-07
9.600430813e-07
1.031045044e-06
1.064867773e-06
1.109983361e-06
1.184447557e-06
1.24348129e-06
1.271119649e-06
1.324021388e-06
1.406901658e-06
1.48199382e-06
1.505791174e-06
1.535650367e-06
1.619985086e-06
1.695290569e-06
1.763202093e-06
1.792324369e-06
1.815373815e-06
1.878785018e-06
1.945695974e-06
2.03008816e-06
2.067524186e-06
2.090384774e-06
2.14430603e-06
2.239134848e-06
2.330089301e-06
2.39447298e-06
2.401477094e-06
2.430838486e-06
2.51428265e-06
2.606133184e-06
2.667360231e-06
2.735390192e-06
2.749105408e-06
2.770117557e-06
2.824840433e-06
2.935980869e-06
3.048726884e-06
3.136107832e-06
3.13654295e-06
3.17254821e-06
3.276483257e-06
3.329111352e-06
3.387814101e-06
3.444079488e-06
3.477338847e-06
3.489875323e-06
3.603796001e-06
3.716485689e-06
3.798798266e-06
3.821681459e-06
3.844325748e-06
3.932808598e-06
3.979858598e-06
4.04485367e-06
4.092987507e-06
4.144940444e-06
4.214802624e-06
4.27906988e-06
4.329344674e-06
4.365880666e-06
4.416823972e-06
4.498978863e-06
4.567969225e-06
4.631497516e-06
4.704259773e-06
4.772906843e-06
4.848768544e-06
4.900356881e-06
4.917740923e-06
4.975014047e-06
5.080055396e-06
5.180903018e-06
5.223888173e-06
5.240330373e-06
5.309355972e-06
5.404046271e-06
5.483096804e-06
5.543986475e-06
5.638833802e-06
5.724428154e-06
5.781227534e-06
5.856538208e-06
5.873807589e-06
5.682632228e-06
5.530751191e-06
5.599186173e-06
5.644216489e-06
5.662533768e-06
5.705888933e-06
)


100
(
3.411086993e-07
4.130633744e-07
4.722078279e-07
5.269129515e-07
5.785169817e-07
6.312414355e-07
6.818066122e-07
7.435714251e-07
7.82287258e-07
8.446169689e-07
9.001246665e-07
9.352285852e-07
1.003598481e-06
1.071587442e-06
1.103054256e-06
1.148453379e-06
1.223676383e-06
1.286220526e-06
1.314229037e-06
1.357763877e-06
1.440841904e-06
1.513675944e-06
1.554307233e-06
1.585312271e-06
1.646960667e-06