/*--------------------------------*- C++ -*----------------------------------*\
| =========                 |                                                 |
| \\      /  F ield         | OpenFOAM: The Open Source CFD Toolbox           |
|  \\    /   O peration     | Version:  2.3.1                                 |
|   \\  /    A nd           | Web:      www.OpenFOAM.org                      |
|    \\/     M anipulation  |                                                 |
\*---------------------------------------------------------------------------*/
FoamFile
{
    version     2.0;
    format      ascii;
    class       dictionary;
    location    "constant";
    object      DPSI20;
}
// * * * * * * * * * * * * * * * * * * * * * * * * * * * * * * * * * * * * * //

DPSI20_table
100
(

100
(
1.517024328e-09
1.097238567e-09
6.717094874e-10
2.837764455e-10
1.881142857e-11
-2.633479657e-10
-4.174876528e-10
-5.647335298e-10
-6.653495752e-10
-7.488180575e-10
-7.75841637e-10
-8.427208698e-10
-8.537103232e-10
-8.929662643e-10
-9.479088456e-10
-9.537434818e-10
-9.765285915e-10
-1.044297776e-09
-1.037198637e-09
-1.048493244e-09
-1.091136494e-09
-1.100703065e-09
-1.096413269e-09
-1.103918828e-09
-1.125198698e-09
-1.105960317e-09
-1.109814209e-09
-1.12459593e-09
-1.162826284e-09
-1.141615137e-09
-1.141091165e-09
-1.139102927e-09
-1.150645526e-09
-1.137154756e-09
-1.142360871e-09
-1.157731097e-09
-1.190359866e-09
-1.203488009e-09
-1.194585767e-09
-1.198706375e-09
-1.212025833e-09
-1.227793319e-09
-1.218122423e-09
-1.217125623e-09
-1.214882575e-09
-1.224931443e-09
-1.217984013e-09
-1.222693758e-09
-1.230382514e-09
-1.250408865e-09
-1.257941427e-09
-1.251227438e-09
-1.243504491e-09
-1.245328757e-09
-1.246505343e-09
-1.231391501e-09
-1.214707986e-09
-1.209377188e-09
-1.224908269e-09
-1.307734804e-09
-1.488432486e-09
-1.46825929e-09
-1.323883682e-09
-1.368239495e-09
-1.536387788e-09
-1.527800974e-09
-1.406591906e-09
-1.516661586e-09
-1.649440759e-09
-1.594462758e-09
-1.547541702e-09
-1.693229187e-09
-1.756333135e-09
-1.665727702e-09
-1.966597209e-09
-2.235403817e-09
-1.883997172e-09
-2.12603773e-09
-2.384158136e-09
-2.009772158e-09
-2.427026912e-09
-2.370917325e-09
-2.364684491e-09
-2.871853092e-09
-2.523331616e-09
-2.945637073e-09
-3.13623605e-09
-3.153534373e-09
-3.707826053e-09
-3.734625383e-09
-4.246576322e-09
-4.654912489e-09
-5.424526473e-09
-5.978197033e-09
-6.929306922e-09
-7.565201939e-09
-8.50081759e-09
-8.858627543e-09
-5.20214619e-09
-2.552346116e-09
)


100
(
1.516439161e-09
1.140265849e-09
7.280605521e-10
3.332221753e-10
4.740128862e-11
-2.357111757e-10
-4.071216791e-10
-5.756781585e-10
-6.770407168e-10
-7.943665544e-10
-8.263241495e-10
-8.989706615e-10
-9.284582703e-10
-9.54699522e-10
-1.01911838e-09
-1.049729753e-09
-1.063697397e-09
-1.105068706e-09
-1.152538971e-09
-1.152452843e-09
-1.168483294e-09
-1.197567204e-09
-1.214570989e-09
-1.209797502e-09
-1.208857203e-09
-1.220369207e-09
-1.222235236e-09
-1.222841515e-09
-1.232819034e-09
-1.249354733e-09
-1.258657648e-09
-1.246703183e-09
-1.242729911e-09
-1.24512135e-09
-1.251648192e-09
-1.253725165e-09
-1.267866083e-09
-1.284693626e-09
-1.30562491e-09
-1.314366579e-09
-1.315439114e-09
-1.324666604e-09
-1.335852266e-09
-1.352230882e-09
-1.345559711e-09
-1.347264124e-09
-1.349625598e-09
-1.359669468e-09
-1.367262948e-09
-1.375221113e-09
-1.386674567e-09
-1.402875984e-09
-1.433884418e-09
-1.4425313e-09
-1.457242002e-09
-1.467088664e-09
-1.506024156e-09
-1.506254161e-09
-1.51974681e-09
-1.545085645e-09
-1.654489764e-09
-1.785022327e-09
-1.830158142e-09
-1.79389239e-09
-1.778643977e-09
-1.85370283e-09
-1.896744444e-09
-1.902328134e-09
-1.921285776e-09
-1.976415887e-09
-2.003216108e-09
-2.017486721e-09
-2.062807043e-09
-2.103717583e-09
-2.183377085e-09
-2.479231148e-09
-2.907053481e-09
-2.886874407e-09
-2.895096136e-09
-3.150145139e-09
-3.186166826e-09
-3.508245448e-09
-3.598479622e-09
-4.073891553e-09
-4.287278536e-09
-4.504748458e-09
-4.958340867e-09
-5.308869954e-09
-5.764340148e-09
-6.422968849e-09
-7.068171561e-09
-7.779845112e-09
-8.664983917e-09
-9.732810713e-09
-1.071322611e-08
-1.194043177e-08
-1.324224915e-08
-1.115979126e-08
-7.186225055e-09
-4.183977791e-09
)


100
(
1.516579909e-09
1.222021027e-09
8.370269921e-10
4.251810557e-10
1.194233487e-10
-1.730287649e-10
-3.698958746e-10
-5.760304624e-10
-6.863094065e-10
-8.240904194e-10
-8.983010955e-10
-9.532186897e-10
-1.032456335e-09
-1.04646326e-09
-1.084745427e-09
-1.158710871e-09
-1.183617609e-09
-1.184338188e-09
-1.239504768e-09
-1.294260347e-09
-1.274518738e-09
-1.290299753e-09
-1.325651001e-09
-1.350027871e-09
-1.320707568e-09
-1.332895441e-09
-1.344041022e-09
-1.350033652e-09
-1.323266914e-09
-1.345601132e-09
-1.364045808e-09
-1.380658479e-09
-1.360411398e-09
-1.3637494e-09
-1.367328099e-09
-1.372681378e-09
-1.368807902e-09
-1.375192354e-09
-1.403421617e-09
-1.425018143e-09
-1.44632413e-09
-1.462321807e-09
-1.483797289e-09
-1.51005217e-09
-1.532939886e-09
-1.581905696e-09
-1.600790386e-09
-1.627039298e-09
-1.647764593e-09
-1.716539331e-09
-1.73697565e-09
-1.781543672e-09
-1.81841595e-09
-1.888026182e-09
-1.911171618e-09
-1.934582891e-09
-1.969667863e-09
-2.054923301e-09
-2.070913706e-09
-2.022018818e-09
-1.951539572e-09
-2.046574915e-09
-2.233048181e-09
-2.25873077e-09
-2.160399177e-09
-2.164498762e-09
-2.287130341e-09
-2.272179438e-09
-2.248007679e-09
-2.441858417e-09
-2.658254491e-09
-2.777637262e-09
-2.963146652e-09
-3.30080609e-09
-3.33514461e-09
-3.404899987e-09
-4.057097425e-09
-4.10702215e-09
-4.174083534e-09
-5.032617433e-09
-4.986803114e-09
-5.34651135e-09
-6.012321248e-09
-5.917538061e-09
-6.68995688e-09
-7.031509354e-09
-7.59249357e-09
-8.334064321e-09
-8.706429991e-09
-9.541339692e-09
-1.019732731e-08
-1.101952639e-08
-1.152349543e-08
-1.260562029e-08
-1.351435083e-08
-1.480936583e-08
-1.609348935e-08
-1.130902071e-08
-9.17756382e-09
-6.749127227e-09
)


100
(
1.516990798e-09
1.291622908e-09
9.23936562e-10
5.279574363e-10
2.116539346e-10
-9.009203378e-11
-3.15818878e-10
-5.191111958e-10
-6.840732703e-10
-7.959137956e-10
-9.362710428e-10
-9.787854994e-10
-1.047390911e-09
-1.115378909e-09
-1.119323961e-09
-1.166127778e-09
-1.239608428e-09
-1.256306937e-09
-1.251339805e-09
-1.311207655e-09
-1.360517713e-09
-1.34820967e-09
-1.354641292e-09
-1.392324319e-09
-1.422436526e-09
-1.40170561e-09
-1.404018661e-09
-1.41758713e-09
-1.429163197e-09
-1.417595043e-09
-1.420705758e-09
-1.447464662e-09
-1.465580017e-09
-1.485227932e-09
-1.474907596e-09
-1.489261935e-09
-1.500692973e-09
-1.545377425e-09
-1.54873566e-09
-1.581196024e-09
-1.629586231e-09
-1.680271138e-09
-1.735488574e-09
-1.742169355e-09
-1.784253704e-09
-1.845291911e-09
-1.962115559e-09
-1.970159124e-09
-2.002071873e-09
-2.072211304e-09
-2.176708796e-09
-2.200677554e-09
-2.204314267e-09
-2.270392132e-09
-2.341972827e-09
-2.36392684e-09
-2.337327228e-09
-2.439846534e-09
-2.518069371e-09
-2.548338238e-09
-2.45193249e-09
-2.365681336e-09
-2.408562243e-09
-2.602336108e-09
-2.786601879e-09
-2.888106699e-09
-3.036025874e-09
-3.274581053e-09
-3.490708503e-09
-3.679513679e-09
-3.902654728e-09
-4.159321477e-09
-4.428692934e-09
-4.749711553e-09
-5.059089382e-09
-5.010229554e-09
-4.901482664e-09
-5.527172315e-09
-5.920509051e-09
-6.104471838e-09
-6.668606505e-09
-6.863004614e-09
-7.230118443e-09
-7.202391697e-09
-7.781682795e-09
-8.211905508e-09
-8.500359759e-09
-8.914257413e-09
-9.040051553e-09
-8.691130221e-09
-8.943586251e-09
-9.366070852e-09
-9.007496797e-09
-9.079365344e-09
-9.195825252e-09
-9.36917437e-09
-9.94341079e-09
-9.192637965e-09
-9.461254651e-09
-8.395815014e-09
)


100
(
1.517665333e-09
1.356752148e-09
1.011436884e-09
6.489873005e-10
3.158610896e-10
1.394061683e-11
-2.423381987e-10
-4.307112464e-10
-6.386840537e-10
-7.620665541e-10
-8.911485572e-10
-1.002270909e-09
-1.03086899e-09
-1.111802901e-09
-1.165219905e-09
-1.167158998e-09
-1.219588232e-09
-1.288861569e-09
-1.307367115e-09
-1.297600547e-09
-1.357055002e-09
-1.404866199e-09
-1.410236003e-09
-1.403518238e-09
-1.443715872e-09
-1.473739683e-09
-1.480204116e-09
-1.470042719e-09
-1.486208233e-09
-1.498789469e-09
-1.522864963e-09
-1.513454193e-09
-1.542508518e-09
-1.573836587e-09
-1.635160837e-09
-1.629569012e-09
-1.643380736e-09
-1.668272067e-09
-1.780642381e-09
-1.79673147e-09
-1.819300945e-09
-1.853187277e-09
-1.954397686e-09
-2.008840585e-09
-2.014200445e-09
-1.998201232e-09
-2.126321338e-09
-2.242396114e-09
-2.239835449e-09
-2.213843235e-09
-2.316476329e-09
-2.400283445e-09
-2.43251652e-09
-2.427274683e-09
-2.503416352e-09
-2.588066858e-09
-2.641576627e-09
-2.68700777e-09
-2.830093023e-09
-3.033112595e-09
-3.235510812e-09
-3.384716945e-09
-3.475082824e-09
-3.632241861e-09
-3.887484567e-09
-4.19218129e-09
-4.414979154e-09
-4.610411477e-09
-4.816489598e-09
-4.930619612e-09
-5.038890104e-09
-5.087901231e-09
-5.120765918e-09
-5.140678576e-09
-5.401483935e-09
-5.618224172e-09
-5.49741702e-09
-5.798160682e-09
-6.053266009e-09
-5.647237787e-09
-5.62212934e-09
-5.643874678e-09
-5.520344736e-09
-5.587655536e-09
-5.276800512e-09
-4.625399958e-09
-4.101931512e-09
-3.378172629e-09
-2.138337936e-09
-1.211596945e-09
-1.382680629e-10
1.464677666e-09
2.74682581e-09
4.616937188e-09
6.409468413e-09
7.68223315e-09
7.087054714e-09
-7.282612685e-10
-5.645267422e-09
-8.394083031e-09
)


100
(
1.51635798e-09
1.430581767e-09
1.126113044e-09
7.754937194e-10
4.275311501e-10
1.282772487e-10
-1.396582149e-10
-3.506629198e-10
-5.407845154e-10
-7.224497603e-10
-8.189908177e-10
-9.614004922e-10
-1.044331719e-09
-1.078264044e-09
-1.157496788e-09
-1.202481447e-09
-1.205441199e-09
-1.257418799e-09
-1.322547931e-09
-1.347137885e-09
-1.338407181e-09
-1.386270121e-09
-1.433518598e-09
-1.459511982e-09
-1.446487455e-09
-1.480297024e-09
-1.514041301e-09
-1.523464138e-09
-1.508550012e-09
-1.521261733e-09
-1.561188518e-09
-1.62225645e-09
-1.625759789e-09
-1.628317023e-09
-1.696952747e-09
-1.781723781e-09
-1.783831533e-09
-1.75738152e-09
-1.834097534e-09
-1.94697565e-09
-1.958467989e-09
-1.964024781e-09
-1.994004792e-09
-2.103744498e-09
-2.159412391e-09
-2.137284119e-09
-2.141710764e-09
-2.276815636e-09
-2.401205032e-09
-2.391240307e-09
-2.406985296e-09
-2.506693232e-09
-2.626400301e-09
-2.729005969e-09
-2.80462823e-09
-2.949913166e-09
-3.124440613e-09
-3.276374876e-09
-3.438185637e-09
-3.601978805e-09
-3.821248158e-09
-4.064698781e-09
-4.291871632e-09
-4.457997679e-09
-4.527686962e-09
-4.615638481e-09
-4.677214933e-09
-4.616168077e-09
-4.61903748e-09
-4.565204342e-09
-4.478363906e-09
-4.441573016e-09
-4.460627566e-09
-4.337681477e-09
-4.15265921e-09
-4.05108241e-09
-3.532709118e-09
-2.814633972e-09
-2.247319217e-09
-1.629239058e-09
-9.109861312e-10
-1.174753285e-10
8.943439176e-10
2.241937423e-09
3.715964055e-09
5.178295659e-09
6.975813114e-09
8.71784872e-09
1.039841431e-08
1.172767775e-08
1.370227589e-08
1.576854103e-08
1.721095027e-08
1.916293933e-08
2.088673549e-08
2.251435698e-08
2.192611678e-08
1.290944799e-08
4.162772836e-09
-6.472373892e-09
)


100
(
1.512516465e-09
1.502723531e-09
1.241247197e-09
9.005140738e-10
5.540552907e-10
2.556034153e-10
-1.462380655e-11
-2.534546293e-10
-4.329374795e-10
-6.321457576e-10
-7.770443281e-10
-8.794140268e-10
-1.013321515e-09
-1.075683807e-09
-1.115820833e-09
-1.187687073e-09
-1.227102226e-09
-1.229386594e-09
-1.272905347e-09
-1.329608623e-09
-1.360474297e-09
-1.354959997e-09
-1.385191537e-09
-1.432799054e-09
-1.48261083e-09
-1.48402894e-09
-1.503309798e-09
-1.543081682e-09
-1.555825989e-09
-1.554865625e-09
-1.548993473e-09
-1.650285511e-09
-1.712098388e-09
-1.721485748e-09
-1.694689158e-09
-1.807576199e-09
-1.888110655e-09
-1.892385143e-09
-1.820590431e-09
-1.941838696e-09
-2.048844796e-09
-2.067570444e-09
-2.041192756e-09
-2.099777322e-09
-2.210541117e-09
-2.271808193e-09
-2.252272612e-09
-2.265177852e-09
-2.423683388e-09
-2.553106724e-09
-2.629846709e-09
-2.685374408e-09
-2.808177906e-09
-2.945805692e-09
-3.13300686e-09
-3.340899077e-09
-3.467941688e-09
-3.545479633e-09
-3.640237147e-09
-3.713349301e-09
-3.720952085e-09
-3.670213139e-09
-3.717425139e-09
-3.702654245e-09
-3.483774515e-09
-3.19903145e-09
-2.994667828e-09
-2.751303298e-09
-2.465576218e-09
-2.254982961e-09
-1.956286384e-09
-1.586232175e-09
-1.151169202e-09
-4.201680761e-10
7.199234049e-10
1.850586701e-09
2.854240601e-09
4.084256553e-09
5.418301816e-09
6.535765479e-09
7.81360316e-09
9.332513934e-09
1.107098118e-08
1.252317459e-08
1.381391012e-08
1.483742454e-08
1.592153411e-08
1.662730219e-08
1.661677806e-08
1.706033649e-08
1.744474614e-08
1.714213911e-08
1.706529434e-08
1.68092372e-08
1.6658908e-08
1.71865333e-08
1.919034205e-08
1.96705674e-08
1.537517789e-08
-2.728363554e-09
)


100
(
1.510536423e-09
1.567100136e-09
1.345055468e-09
1.018333875e-09
6.992084695e-10
3.899466084e-10
1.18053041e-10
-1.306577466e-10
-3.342582931e-10
-5.091089527e-10
-7.013541215e-10
-8.162758593e-10
-9.264827906e-10
-1.044993161e-09
-1.090523987e-09
-1.129196749e-09
-1.188104511e-09
-1.225485488e-09
-1.224291392e-09
-1.249361757e-09
-1.297550791e-09
-1.341041656e-09
-1.347816182e-09
-1.36321836e-09
-1.418117242e-09
-1.488059327e-09
-1.522645713e-09
-1.556615026e-09
-1.605118829e-09
-1.614225423e-09
-1.599702469e-09
-1.596196083e-09
-1.729013989e-09
-1.786846252e-09
-1.772464839e-09
-1.764075116e-09
-1.887096106e-09
-1.969711272e-09
-1.920652122e-09
-1.90556155e-09
-2.017901772e-09
-2.127696606e-09
-2.126308949e-09
-2.131284631e-09
-2.185929517e-09
-2.310176318e-09
-2.34542255e-09
-2.367924526e-09
-2.375499928e-09
-2.507762668e-09
-2.591218549e-09
-2.734739891e-09
-2.822769824e-09
-2.841511997e-09
-2.879783018e-09
-2.964739424e-09
-3.025886817e-09
-2.982051485e-09
-2.847598236e-09
-2.738602316e-09
-2.546792336e-09
-2.129115339e-09
-1.605691387e-09
-1.069451108e-09
-5.739456128e-10
3.882593032e-12
5.616418022e-10
1.113250531e-09
1.794455934e-09
2.485438992e-09
3.36193853e-09
4.586607162e-09
6.078138878e-09
7.359631042e-09
8.576648298e-09
9.927209222e-09
1.098607782e-08
1.191214006e-08
1.274579095e-08
1.359007123e-08
1.435527208e-08
1.483512342e-08
1.482209309e-08
1.44615735e-08
1.404166346e-08
1.34528358e-08
1.256115159e-08
1.162013381e-08
1.056784088e-08
9.504711703e-09
8.48201238e-09
7.571509845e-09
6.677718531e-09
5.931881016e-09
5.388700273e-09
5.261632151e-09
7.724443553e-09
1.258258293e-08
1.58551516e-08
1.896649152e-09
)


100
(
1.510376385e-09
1.604387285e-09
1.425125433e-09
1.147276656e-09
8.505986931e-10
5.313657563e-10
2.63061945e-10
1.086468651e-11
-2.165938232e-10
-3.960129361e-10
-5.749178998e-10
-7.410032439e-10
-8.334078941e-10
-9.428106986e-10
-1.038530892e-09
-1.070076187e-09
-1.098393349e-09
-1.143763331e-09
-1.172187783e-09
-1.179848848e-09
-1.196384568e-09
-1.249218646e-09
-1.319217148e-09
-1.346210415e-09
-1.349391732e-09
-1.406842975e-09
-1.489303041e-09
-1.559553797e-09
-1.608904317e-09
-1.658951396e-09
-1.662905278e-09
-1.599891015e-09
-1.658242664e-09
-1.791484192e-09
-1.84800526e-09
-1.795492069e-09
-1.828831856e-09
-1.947639733e-09
-2.009308694e-09
-1.957935231e-09
-1.953320851e-09
-2.043649523e-09
-2.126833302e-09
-2.125613048e-09
-2.105763792e-09
-2.12664067e-09
-2.159849237e-09
-2.196646834e-09
-2.244990341e-09
-2.219590874e-09
-2.180819632e-09
-2.177686763e-09
-2.196455508e-09
-2.161172748e-09
-1.968892213e-09
-1.695316964e-09
-1.49638344e-09
-1.178558975e-09
-6.03371875e-10
1.423327433e-10
8.982066094e-10
1.595746438e-09
2.390964469e-09
3.222335104e-09
4.025159208e-09
4.862078525e-09
5.742162296e-09
6.692502841e-09
7.791892718e-09
9.168640968e-09
1.049076781e-08
1.151456802e-08
1.249141025e-08
1.31993414e-08
1.3535216e-08
1.360860961e-08
1.356672771e-08
1.333862583e-08
1.283787127e-08
1.218735294e-08
1.120500956e-08
1.007734399e-08
8.920362087e-09
7.774856479e-09
6.616530433e-09
5.496277053e-09
4.556227025e-09
3.808445654e-09
3.226012277e-09
2.645170248e-09
2.183786272e-09
1.913205059e-09
1.709452531e-09
1.579177591e-09
1.520852756e-09
1.562245572e-09
2.112385094e-09
3.889672204e-09
7.284390908e-09
5.405421731e-09
)


100
(
1.510442453e-09
1.641963686e-09
1.512607578e-09
1.285946046e-09
9.889061405e-10
6.893467805e-10
4.124524272e-10
1.602509906e-10
-7.518688011e-11
-2.736541915e-10
-4.332890322e-10
-6.045095776e-10
-7.337278354e-10
-8.106362472e-10
-9.079345278e-10
-9.762825241e-10
-1.003493808e-09
-1.018796983e-09
-1.059947611e-09
-1.110808019e-09
-1.138866019e-09
-1.1511603e-09
-1.212617904e-09
-1.300894673e-09
-1.353581009e-09
-1.352648272e-09
-1.393780127e-09
-1.484558232e-09
-1.580874598e-09
-1.647025239e-09
-1.703081116e-09
-1.681778849e-09
-1.62370677e-09
-1.702921453e-09
-1.829003459e-09
-1.842995068e-09
-1.817393464e-09
-1.832642308e-09
-1.927310595e-09
-1.910496606e-09
-1.862624294e-09
-1.786423358e-09
-1.789662233e-09
-1.768541083e-09
-1.772250534e-09
-1.734864119e-09
-1.653932617e-09
-1.580375773e-09
-1.533135066e-09
-1.468134503e-09
-1.288632567e-09
-9.885151888e-10
-6.654435888e-10
-3.382022754e-10
1.190455127e-10
8.428548602e-10
1.823057479e-09
2.731250992e-09
3.686019262e-09
4.713645068e-09
5.778490363e-09
6.779923735e-09
7.632264612e-09
8.429214585e-09
9.332396376e-09
1.025610026e-08
1.121628787e-08
1.209366189e-08
1.261791458e-08
1.302347527e-08
1.327679034e-08
1.30522866e-08
1.231893446e-08
1.162089374e-08
1.084808298e-08
9.804522751e-09
8.614482197e-09
7.532868509e-09
6.414309799e-09
5.34203092e-09
4.372998806e-09
3.54333625e-09
2.845904117e-09
2.281744995e-09
1.867248469e-09
1.574124364e-09
1.338500163e-09
1.190743022e-09
1.061628228e-09
9.682653619e-10
9.041233465e-10
8.612497582e-10
8.292358115e-10
8.053672091e-10
8.224736904e-10
8.335010181e-10
9.648311011e-10
1.237107792e-09
1.953130839e-09
6.992142639e-09
)


100
(
1.473497363e-09
1.691695591e-09
1.61538009e-09
1.421541208e-09
1.122601409e-09
8.594489488e-10
5.668258943e-10
3.251772297e-10
8.49162054e-11
-1.261416388e-10
-2.940629631e-10
-4.347709065e-10
-5.769751923e-10
-6.718022781e-10
-7.382995992e-10
-8.207077439e-10
-8.81688115e-10
-9.215306404e-10
-9.485340589e-10
-1.00076129e-09
-1.075257743e-09
-1.117623588e-09
-1.122362381e-09
-1.186005992e-09
-1.285684757e-09
-1.360063784e-09
-1.359453704e-09
-1.374252984e-09
-1.465892824e-09
-1.56327329e-09
-1.669738804e-09
-1.712928465e-09
-1.641014836e-09
-1.625179615e-09
-1.677140303e-09
-1.75652378e-09
-1.715380499e-09
-1.655097472e-09
-1.586640364e-09
-1.542461244e-09
-1.446092729e-09
-1.348612712e-09
-1.216485281e-09
-1.096685309e-09
-1.002598855e-09
-9.120314925e-10
-7.425103437e-10
-4.549448744e-10
-1.143668926e-10
2.354808289e-10
6.641831872e-10
1.274887282e-09
2.14323829e-09
3.116201334e-09
4.120922687e-09
5.209044928e-09
6.344910549e-09
7.619270042e-09
8.745469765e-09
9.445314388e-09
1.018878583e-08
1.100769472e-08
1.173525754e-08
1.23051984e-08
1.257782382e-08
1.256317135e-08
1.242666454e-08
1.21210069e-08
1.149375848e-08
1.036355477e-08
9.207147028e-09
8.147703749e-09
6.991413192e-09
5.770767352e-09
4.675936361e-09
3.841230728e-09
3.085829253e-09
2.45588958e-09
1.964402615e-09
1.589980158e-09
1.31299018e-09
1.112588227e-09
9.818938174e-10
8.882786137e-10
8.052517549e-10
7.421501132e-10
6.83770081e-10
6.341104288e-10
5.951530928e-10
5.617330417e-10
5.383823962e-10
5.225423563e-10
5.099143776e-10
5.088804531e-10
5.313464461e-10
5.12360029e-10
5.831362421e-10
6.810599159e-10
8.196672474e-10
6.967019482e-09
)


100
(
1.393319248e-09
1.727929003e-09
1.713021415e-09
1.523217209e-09
1.277285505e-09
1.021019111e-09
7.416435985e-10
4.887715384e-10
2.613910164e-10
4.450812026e-11
-1.254746571e-10
-2.671845824e-10
-3.899412362e-10
-4.925430765e-10
-5.727220164e-10
-6.465707969e-10
-7.29235343e-10
-8.050762579e-10
-8.688126059e-10
-9.005661631e-10
-9.646070916e-10
-1.052771909e-09
-1.104713411e-09
-1.108859772e-09
-1.157826362e-09
-1.260525893e-09
-1.346203686e-09
-1.350500385e-09
-1.341554799e-09
-1.414863787e-09
-1.494063285e-09
-1.592592553e-09
-1.595344106e-09
-1.512657886e-09
-1.437012532e-09
-1.395338186e-09
-1.313334069e-09
-1.187209843e-09
-1.051613155e-09
-8.923780902e-10
-7.379325715e-10
-5.960742132e-10
-4.136211191e-10
-1.75060838e-10
1.535518808e-10
5.047232905e-10
8.966207096e-10
1.416770065e-09
2.183976918e-09
3.014451008e-09
3.906733382e-09
4.941874318e-09
6.094748717e-09
7.358448874e-09
8.823389184e-09
9.68382359e-09
1.027244444e-08
1.098181423e-08
1.160591845e-08
1.2057779e-08
1.224189565e-08
1.192166009e-08
1.155058064e-08
1.109056618e-08
1.038624624e-08
9.464744246e-09
8.255586545e-09
7.032255093e-09
6.026869472e-09
5.027113528e-09
3.921995381e-09
2.978630395e-09
2.378262538e-09
1.874268784e-09
1.49776877e-09
1.221928998e-09
1.032717286e-09
8.925965814e-10
7.882076512e-10
7.121474811e-10
6.569299891e-10
6.065676885e-10
5.606026843e-10
5.209589706e-10
4.893929149e-10
4.552182779e-10
4.329039253e-10
4.05418614e-10
3.817524338e-10
3.642711674e-10
3.508906122e-10
3.436569062e-10
3.377470183e-10
3.450684018e-10
3.490253696e-10
3.424330553e-10
3.934846947e-10
4.352145153e-10
5.102695226e-10
6.478566768e-09
)


100
(
1.349912917e-09
1.742811755e-09
1.772842112e-09
1.622168552e-09
1.437568134e-09
1.165899476e-09
9.316733315e-10
6.604135399e-10
4.53793956e-10
2.382294267e-10
5.626580922e-11
-6.54175738e-11
-1.973413713e-10
-3.086516926e-10
-3.965500029e-10
-4.878407944e-10
-5.746307309e-10
-6.638560412e-10
-7.577916415e-10
-8.320729088e-10
-8.657242815e-10
-9.333892456e-10
-1.026766155e-09
-1.084044395e-09
-1.08732705e-09
-1.114328027e-09
-1.206340971e-09
-1.280054027e-09
-1.28963882e-09
-1.263139215e-09
-1.261559947e-09
-1.289064129e-09
-1.303974192e-09
-1.174421144e-09
-1.024586833e-09
-8.473067941e-10
-6.685820881e-10
-4.883028889e-10
-2.977670065e-10
-8.30357758e-11
1.690668883e-10
4.697976467e-10
8.172850828e-10
1.23809472e-09
1.85639343e-09
2.506037531e-09
3.22313557e-09
4.081512813e-09
5.137687926e-09
6.343044052e-09
7.772598096e-09
8.857986949e-09
9.638256381e-09
1.030360338e-08
1.102726928e-08
1.157976642e-08
1.193081354e-08
1.143150553e-08
1.08781055e-08
1.040904294e-08
9.654763642e-09
8.703186038e-09
7.579603724e-09
6.34864089e-09
5.260007939e-09
4.386770084e-09
3.576449903e-09
2.745973156e-09
2.053996717e-09
1.680465295e-09
1.324419925e-09
1.066841519e-09
8.917505668e-10
7.708416225e-10
6.801441225e-10
6.088915558e-10
5.557154964e-10
5.14327745e-10
4.78529714e-10
4.451607273e-10
4.128259736e-10
3.833780587e-10
3.60231865e-10
3.374416274e-10
3.192723621e-10
3.004434571e-10
2.911920608e-10
2.720382096e-10
2.608201202e-10
2.489175733e-10
2.405490047e-10
2.355898855e-10
2.326979688e-10
2.361948437e-10
2.367105724e-10
2.435787481e-10
2.775464021e-10
2.977160582e-10
3.466182756e-10
5.049126331e-09
)


100
(
1.349550892e-09
1.735666551e-09
1.812102519e-09
1.74501769e-09
1.576524983e-09
1.326915179e-09
1.107075467e-09
8.606698719e-10
6.341926515e-10
4.614863272e-10
2.628233902e-10
1.224374589e-10
2.193308071e-11
-1.166781118e-10
-2.315454851e-10
-3.250620817e-10
-4.305412113e-10
-5.24365952e-10
-6.161266695e-10
-7.184192108e-10
-7.941816694e-10
-8.307169122e-10
-8.918204368e-10
-9.826941923e-10
-1.037931497e-09
-1.038055265e-09
-1.037946439e-09
-1.089287926e-09
-1.121542826e-09
-1.085643899e-09
-1.002731596e-09
-9.027140796e-10
-7.854516685e-10
-6.323501271e-10
-4.110099302e-10
-1.726531005e-10
3.558038788e-11
2.979033099e-10
5.910652987e-10
9.44225967e-10
1.423931965e-09
1.947808777e-09
2.449694689e-09
3.128551155e-09
3.933899092e-09
4.925391126e-09
6.124020055e-09
7.233622305e-09
8.154971691e-09
9.127406064e-09
9.969979442e-09
1.077598716e-08
1.134197019e-08
1.107557834e-08
1.037794627e-08
1.010150378e-08
9.592603762e-09
8.743421258e-09
7.618883657e-09
6.31241182e-09
5.08224662e-09
4.187668069e-09
3.413466198e-09
2.732106603e-09
2.049972013e-09
1.519788778e-09
1.259599923e-09
1.030550621e-09
8.445733053e-10
7.149290424e-10
6.277064272e-10
5.664673358e-10
5.162835637e-10
4.696897555e-10
4.297399902e-10
3.966223986e-10
3.660133031e-10
3.393155702e-10
3.149107418e-10
2.926176784e-10
2.750729563e-10
2.595923009e-10
2.459359122e-10
2.308534741e-10
2.185520292e-10
2.095743615e-10
2.024448323e-10
1.92232581e-10
1.833876889e-10
1.780555373e-10
1.720321546e-10
1.725992606e-10
1.668463111e-10
1.711366948e-10
1.744757464e-10
1.829680155e-10
1.979238259e-10
2.151128608e-10
2.470797976e-10
3.597337161e-09
)


100
(
1.349417868e-09
1.735793055e-09
1.868473505e-09
1.855142898e-09
1.685665641e-09
1.507674397e-09
1.262563331e-09
1.075177289e-09
8.302300039e-10
6.643344191e-10
5.098594583e-10
3.241009064e-10
2.127850865e-10
1.068301607e-10
-4.434179726e-11
-1.660621411e-10
-2.701293864e-10
-3.808183264e-10
-4.749753405e-10
-5.637482272e-10
-6.673684583e-10
-7.400227332e-10
-7.76139007e-10
-8.222399294e-10
-8.960068184e-10
-9.316159867e-10
-9.113879488e-10
-8.717525599e-10
-8.306651127e-10
-7.623212487e-10
-6.197337547e-10
-3.97336346e-10
-2.081192218e-10
6.421257392e-12
2.591759009e-10
5.470856336e-10
9.269876635e-10
1.315249757e-09
1.710372564e-09
2.194588206e-09
2.845479434e-09
3.633819074e-09
4.632693181e-09
5.482415002e-09
6.343601879e-09
7.366804364e-09
8.428429525e-09
9.374168552e-09
1.043954193e-08
1.059867002e-08
1.03002914e-08
1.006266671e-08
9.835369371e-09
9.29977742e-09
8.298623316e-09
6.963402193e-09
5.628567568e-09
4.757891474e-09
3.773032225e-09
2.966330044e-09
2.296060326e-09
1.692217506e-09
1.295862575e-09
1.080496446e-09
9.038462236e-10
7.401066859e-10
6.200298751e-10
5.449535252e-10
4.908157357e-10
4.465943176e-10
4.066509369e-10
3.709306673e-10
3.429097399e-10
3.174944093e-10
2.946350004e-10
2.726221621e-10
2.524938031e-10
2.353749137e-10
2.203531668e-10
2.074149524e-10
1.967140327e-10
1.866588817e-10
1.74641122e-10
1.650966715e-10
1.593445122e-10
1.548000101e-10
1.466796066e-10
1.399766073e-10
1.357295965e-10
1.329126281e-10
1.306903525e-10
1.303039755e-10
1.285316821e-10
1.324105962e-10
1.327667982e-10
1.40376684e-10
1.47610555e-10
1.595945164e-10
1.803114086e-10
3.037813314e-09
)


100
(
1.278375177e-09
1.739413372e-09
1.918274847e-09
1.93071163e-09
1.805696564e-09
1.671515757e-09
1.440143942e-09
1.255626881e-09
1.068194115e-09
8.574100656e-10
7.438897216e-10
5.833168809e-10
4.040895099e-10
2.993541995e-10
1.813505532e-10
2.436931448e-11
-9.961962577e-11
-2.102498281e-10
-3.174894011e-10
-4.081455537e-10
-4.906929595e-10
-5.898425881e-10
-6.48555837e-10
-6.778927464e-10
-6.978034866e-10
-7.248916803e-10
-7.054466918e-10
-5.986578611e-10
-4.777634635e-10
-3.193901084e-10
-1.119822705e-10
1.420220928e-10
4.667816411e-10
7.725813888e-10
1.056085997e-09
1.389341071e-09
1.868953045e-09
2.455883563e-09
3.261548049e-09
3.903195167e-09
4.543406557e-09
5.423896073e-09
6.516494424e-09
7.612011314e-09
8.787080703e-09
9.486944888e-09
9.745854897e-09
9.905340288e-09
9.982479233e-09
9.84109963e-09
9.35949834e-09
8.071463911e-09
6.733889885e-09
5.888253166e-09
4.946939217e-09
3.840744043e-09
2.910663657e-09
2.126884575e-09
1.554232294e-09
1.244454711e-09
1.020148198e-09
8.552898337e-10
6.784201935e-10
5.638491172e-10
5.17191212e-10
4.609211725e-10
4.133274461e-10
3.726879885e-10
3.389285964e-10
3.106258091e-10
2.842182432e-10
2.616036574e-10
2.413115392e-10
2.259874232e-10
2.118399213e-10
1.983773612e-10
1.85113492e-10
1.730466759e-10
1.642613169e-10
1.555210937e-10
1.447563907e-10
1.381248586e-10
1.305840473e-10
1.271081098e-10
1.225787841e-10
1.164053392e-10
1.115205614e-10
1.07981631e-10
1.064251541e-10
1.033292662e-10
1.016361197e-10
9.273704922e-11
1.016403551e-10
1.030554027e-10
1.003911952e-10
1.095495247e-10
1.148332579e-10
1.214929545e-10
1.332292615e-10
1.956135723e-09
)


100
(
1.158638224e-09
1.724920155e-09
1.950440041e-09
1.980308802e-09
1.93813349e-09
1.79020486e-09
1.641855265e-09
1.422263767e-09
1.302687604e-09
1.102690015e-09
9.324990646e-10
8.485758457e-10
6.579678454e-10
4.808929508e-10
3.769756314e-10
2.54618199e-10
1.008460711e-10
-1.992665709e-11
-1.336946693e-10
-2.278775635e-10
-3.122572654e-10
-3.846186254e-10
-4.625089637e-10
-4.965220339e-10
-4.852946961e-10
-4.540535028e-10
-3.878047289e-10
-2.517570606e-10
-2.724382586e-11
2.529173407e-10
4.847784905e-10
7.427193952e-10
1.093592045e-09
1.539630624e-09
2.147752099e-09
2.581518422e-09
3.015141803e-09
3.695170846e-09
4.575645519e-09
5.603551042e-09
6.770239757e-09
7.523043632e-09
8.127951992e-09
8.874634065e-09
9.421754153e-09
9.877518242e-09
1.009684165e-08
9.327944409e-09
8.012246722e-09
7.252231029e-09
6.369519723e-09
5.346506892e-09
4.164713568e-09
3.085931933e-09
2.2448728e-09
1.721216741e-09
1.306513968e-09
1.033932739e-09
8.259032392e-10
6.417541572e-10
5.612204635e-10
5.17005592e-10
4.612076691e-10
4.055003142e-10
3.590892545e-10
3.204089455e-10
2.923824849e-10
2.695132943e-10
2.467866007e-10
2.264340681e-10
2.107010871e-10
1.969929424e-10
1.829460806e-10
1.710844339e-10
1.599646704e-10
1.498031322e-10
1.388541212e-10
1.314264431e-10
1.248222762e-10
1.197770236e-10
1.133552623e-10
1.08753356e-10
1.03648737e-10
9.861696128e-11
9.629101446e-11
9.194967757e-11
8.835577861e-11
8.561587797e-11
8.340620397e-11
8.323425763e-11
8.072419222e-11
7.693542581e-11
8.131137048e-11
8.300415497e-11
8.293577683e-11
8.661753462e-11
9.137329598e-11
9.519786451e-11
1.015822849e-10
1.19342555e-09
)


100
(
1.109909428e-09
1.681980303e-09
1.948361108e-09
2.040299273e-09
2.05175608e-09
1.912948061e-09
1.815446356e-09
1.63213599e-09
1.476705298e-09
1.38076756e-09
1.165916147e-09
1.020855261e-09
9.377922615e-10
7.290983934e-10
5.575407123e-10
4.535914303e-10
3.386973663e-10
1.922212081e-10
7.546727481e-11
-3.403123825e-11
-9.911615327e-11
-1.737305256e-10
-2.268043842e-10
-2.516900162e-10
-2.224697329e-10
-9.751061794e-11
2.398320208e-11
1.912695617e-10
4.59354009e-10
7.629248345e-10
1.231464567e-09
1.542500049e-09
1.866007604e-09
2.294803107e-09
2.981045825e-09
3.808966416e-09
4.726275484e-09
5.247240366e-09
5.911860067e-09
6.883997359e-09
7.935718919e-09
8.758062117e-09
9.585477249e-09
9.42859557e-09
8.906441207e-09
8.380105928e-09
7.931871334e-09
7.17339665e-09
6.065470954e-09
4.612514444e-09
3.418601094e-09
2.721993444e-09
2.034387741e-09
1.4869356e-09
1.100497561e-09
8.406706922e-10
6.494599383e-10
5.741598219e-10
5.203954397e-10
4.637575436e-10
3.972865277e-10
3.470212878e-10
3.242769406e-10
2.931522404e-10
2.666001059e-10