/*--------------------------------*- C++ -*----------------------------------*\
| =========                 |                                                 |
| \\      /  F ield         | OpenFOAM: The Open Source CFD Toolbox           |
|  \\    /   O peration     | Version:  2.3.1                                 |
|   \\  /    A nd           | Web:      www.OpenFOAM.org                      |
|    \\/     M anipulation  |                                                 |
\*---------------------------------------------------------------------------*/
FoamFile
{
    version     2.0;
    format      ascii;
    class       dictionary;
    location    "constant";
    object      DPSI1;
}
// * * * * * * * * * * * * * * * * * * * * * * * * * * * * * * * * * * * * * //

DPSI1_table
100
(

100
(
-3.36772236e-07
-3.676146796e-07
-3.960969217e-07
-4.152233473e-07
-4.242172271e-07
-4.259666607e-07
-4.569231802e-07
-4.458546461e-07
-4.672639023e-07
-4.639709409e-07
-4.68824176e-07
-4.812360731e-07
-4.804698161e-07
-4.928423053e-07
-5.028412165e-07
-4.998064446e-07
-5.066100236e-07
-5.271080516e-07
-5.198595558e-07
-5.225935324e-07
-5.395082204e-07
-5.427372613e-07
-5.404433187e-07
-5.461745539e-07
-5.631617902e-07
-5.579927666e-07
-5.592383301e-07
-5.66114791e-07
-5.84619132e-07
-5.763953079e-07
-5.762484899e-07
-5.820369151e-07
-5.947581183e-07
-5.919378104e-07
-5.937647888e-07
-5.982433939e-07
-6.097812629e-07
-6.138866651e-07
-6.087234732e-07
-6.104425148e-07
-6.179252578e-07
-6.261519457e-07
-6.222114729e-07
-6.239489454e-07
-6.291714482e-07
-6.385161873e-07
-6.372575485e-07
-6.394165379e-07
-6.423402302e-07
-6.516386101e-07
-6.545956841e-07
-6.511562479e-07
-6.523440835e-07
-6.585791256e-07
-6.623984803e-07
-6.603325842e-07
-6.62290867e-07
-6.67660019e-07
-6.71636525e-07
-6.724822193e-07
-6.683279434e-07
-6.805614137e-07
-6.880731184e-07
-6.79873134e-07
-6.776556797e-07
-6.914271633e-07
-6.989712014e-07
-6.823641291e-07
-6.924819843e-07
-7.008652009e-07
-6.992558607e-07
-6.918809379e-07
-7.048954979e-07
-7.09441197e-07
-6.980176948e-07
-7.040172249e-07
-7.16164124e-07
-7.042961377e-07
-7.079341296e-07
-7.181941021e-07
-7.075687955e-07
-7.16149904e-07
-7.17143217e-07
-7.123316249e-07
-7.219481795e-07
-7.174010778e-07
-7.193851147e-07
-7.230211793e-07
-7.209954433e-07
-7.252185607e-07
-7.253493725e-07
-7.281972057e-07
-7.294421323e-07
-7.32127258e-07
-7.339785881e-07
-7.367885536e-07
-7.384942924e-07
-7.392562799e-07
-7.387041765e-07
-7.22338302e-07
)


100
(
-3.365627001e-07
-3.706666186e-07
-4.011311672e-07
-4.229870875e-07
-4.248067551e-07
-4.366611438e-07
-4.491874221e-07
-4.595681659e-07
-4.6642218e-07
-4.810110294e-07
-4.806846042e-07
-4.936127618e-07
-4.980116488e-07
-5.029072267e-07
-5.171197383e-07
-5.22306607e-07
-5.240490353e-07
-5.343109959e-07
-5.483970591e-07
-5.461987774e-07
-5.520632832e-07
-5.635147278e-07
-5.702662127e-07
-5.705600827e-07
-5.772608289e-07
-5.870360123e-07
-5.908056254e-07
-5.931439089e-07
-6.000505015e-07
-6.089463792e-07
-6.144442239e-07
-6.145592897e-07
-6.198770437e-07
-6.26753609e-07
-6.33542902e-07
-6.355418724e-07
-6.406382964e-07
-6.470299573e-07
-6.557126621e-07
-6.59435126e-07
-6.603374844e-07
-6.651224539e-07
-6.709639397e-07
-6.796267037e-07
-6.798975221e-07
-6.843550727e-07
-6.894874477e-07
-6.967335942e-07
-7.009647814e-07
-7.051362186e-07
-7.102068502e-07
-7.152664054e-07
-7.238267688e-07
-7.241892346e-07
-7.268325981e-07
-7.283824985e-07
-7.398092e-07
-7.3884641e-07
-7.423201959e-07
-7.448340304e-07
-7.542396447e-07
-7.534506019e-07
-7.640572961e-07
-7.701075849e-07
-7.711126457e-07
-7.740376854e-07
-7.850173885e-07
-7.910963915e-07
-7.890754737e-07
-7.992665472e-07
-8.057614287e-07
-8.113853116e-07
-8.152265565e-07
-8.229679524e-07
-8.271068943e-07
-8.328615072e-07
-8.366556406e-07
-8.428587803e-07
-8.522782125e-07
-8.588342975e-07
-8.639618223e-07
-8.699062248e-07
-8.836140056e-07
-8.802470839e-07
-8.975896887e-07
-9.028211258e-07
-9.092945193e-07
-9.217504368e-07
-9.265295778e-07
-9.38967936e-07
-9.452429565e-07
-9.557792125e-07
-9.613617094e-07
-9.701025747e-07
-9.74147389e-07
-9.817736411e-07
-9.832619008e-07
-9.744048291e-07
-9.252888523e-07
-8.758532189e-07
)


100
(
-3.364680462e-07
-3.748234753e-07
-4.087749564e-07
-4.194945954e-07
-4.289018158e-07
-4.528053455e-07
-4.451079355e-07
-4.781551631e-07
-4.705555432e-07
-4.909222138e-07
-4.983814649e-07
-5.00603927e-07
-5.21348399e-07
-5.188067173e-07
-5.24351348e-07
-5.454328612e-07
-5.495032967e-07
-5.443719759e-07
-5.626652475e-07
-5.812072024e-07
-5.722655109e-07
-5.788692165e-07
-5.941524065e-07
-6.054795562e-07
-5.978065168e-07
-6.093624395e-07
-6.21250984e-07
-6.296089026e-07
-6.22423564e-07
-6.350028766e-07
-6.461994899e-07
-6.570364743e-07
-6.52966477e-07
-6.604917408e-07
-6.694307589e-07
-6.779959537e-07
-6.789153494e-07
-6.819276657e-07
-6.940460145e-07
-7.029951416e-07
-7.101020508e-07
-7.134130479e-07
-7.192940485e-07
-7.258428409e-07
-7.285430857e-07
-7.382991618e-07
-7.413502652e-07
-7.47935326e-07
-7.503733417e-07
-7.635877144e-07
-7.634569322e-07
-7.726286996e-07
-7.777052981e-07
-7.897530513e-07
-7.902501167e-07
-7.929101094e-07
-7.973714163e-07
-8.132781824e-07
-8.152577046e-07
-8.14548578e-07
-8.281342941e-07
-8.33445981e-07
-8.322897998e-07
-8.486440528e-07
-8.585195139e-07
-8.577850331e-07
-8.604035006e-07
-8.827636644e-07
-8.838018334e-07
-8.90182111e-07
-8.995212224e-07
-9.137446397e-07
-9.126809239e-07
-9.215384711e-07
-9.416230524e-07
-9.444338492e-07
-9.342361068e-07
-9.600118343e-07
-9.761725203e-07
-9.653208803e-07
-9.878713925e-07
-9.944469032e-07
-1.001408932e-06
-1.013435309e-06
-1.017838963e-06
-1.034116886e-06
-1.039636699e-06
-1.049129631e-06
-1.061917565e-06
-1.068428293e-06
-1.078305851e-06
-1.086407377e-06
-1.094876078e-06
-1.100150912e-06
-1.107719649e-06
-1.112009804e-06
-1.111116527e-06
-1.088950923e-06
-1.040070381e-06
-9.921638647e-07
)


100
(
-3.364845846e-07
-3.72958242e-07
-4.041203786e-07
-4.148951188e-07
-4.410269376e-07
-4.527915755e-07
-4.627799055e-07
-4.756319615e-07
-4.924550975e-07
-4.905219206e-07
-5.196583832e-07
-5.136254993e-07
-5.267432037e-07
-5.451956258e-07
-5.391335526e-07
-5.505888105e-07
-5.736982764e-07
-5.755306064e-07
-5.707236857e-07
-5.919220672e-07
-6.099984189e-07
-6.049611247e-07
-6.083857728e-07
-6.253639087e-07
-6.404005058e-07
-6.363814973e-07
-6.433137529e-07
-6.568413692e-07
-6.687034314e-07
-6.678894858e-07
-6.713710477e-07
-6.855490702e-07
-6.962741179e-07
-7.059385111e-07
-7.033715808e-07
-7.12474516e-07
-7.192069027e-07
-7.331241737e-07
-7.283580905e-07
-7.349871885e-07
-7.478257444e-07
-7.585627546e-07
-7.680371682e-07
-7.620973707e-07
-7.698720665e-07
-7.794999557e-07
-8.027098762e-07
-7.945103209e-07
-7.971589133e-07
-8.104936121e-07
-8.303071816e-07
-8.285645041e-07
-8.247449052e-07
-8.417344771e-07
-8.585222405e-07
-8.614216371e-07
-8.500733858e-07
-8.748941459e-07
-8.891346225e-07
-8.963263809e-07
-8.925266636e-07
-9.131677251e-07
-9.177581321e-07
-9.221506473e-07
-9.310935738e-07
-9.446735307e-07
-9.456693125e-07
-9.530358942e-07
-9.714594326e-07
-9.77180382e-07
-9.828687427e-07
-9.894743936e-07
-1.008104694e-06
-1.012862863e-06
-1.01226375e-06
-1.028910303e-06
-1.050456631e-06
-1.048316769e-06
-1.056512645e-06
-1.071135872e-06
-1.079153952e-06
-1.096709224e-06
-1.094560649e-06
-1.112834958e-06
-1.122138982e-06
-1.12845295e-06
-1.142548847e-06
-1.150094158e-06
-1.159820831e-06
-1.167589636e-06
-1.177524624e-06
-1.18677228e-06
-1.192905437e-06
-1.201860324e-06
-1.206737787e-06
-1.210813934e-06
-1.209156104e-06
-1.174681338e-06
-1.134486709e-06
-1.087284803e-06
)


100
(
-3.366089383e-07
-3.714969614e-07
-3.98644189e-07
-4.246778229e-07
-4.515767426e-07
-4.501013467e-07
-4.799087881e-07
-4.732773926e-07
-5.066890486e-07
-5.051995089e-07
-5.198628668e-07
-5.396711621e-07
-5.323287946e-07
-5.539464192e-07
-5.683832812e-07
-5.631086128e-07
-5.783920788e-07
-6.013155047e-07
-6.049500077e-07
-5.988256184e-07
-6.206562144e-07
-6.39269962e-07
-6.410646673e-07
-6.387922816e-07
-6.569623422e-07
-6.729535143e-07
-6.796954725e-07
-6.803453778e-07
-6.934551618e-07
-7.035797048e-07
-7.135140764e-07
-7.076159395e-07
-7.190200492e-07
-7.306316575e-07
-7.497866442e-07
-7.43534383e-07
-7.467150722e-07
-7.52906288e-07
-7.838950823e-07
-7.79811092e-07
-7.786257495e-07
-7.835228107e-07
-8.100404196e-07
-8.212076707e-07
-8.185177757e-07
-8.086859929e-07
-8.408037717e-07
-8.660220641e-07
-8.587370655e-07
-8.484767957e-07
-8.755581094e-07
-8.939104078e-07
-8.9754694e-07
-8.9206482e-07
-9.098284162e-07
-9.283745474e-07
-9.363105048e-07
-9.354594486e-07
-9.473446087e-07
-9.645930647e-07
-9.732545742e-07
-9.763164307e-07
-9.88160397e-07
-9.922648286e-07
-9.996624114e-07
-1.011568297e-06
-1.024643183e-06
-1.029054009e-06
-1.036884603e-06
-1.045182339e-06
-1.06229363e-06
-1.070128952e-06
-1.078719206e-06
-1.084696072e-06
-1.09701815e-06
-1.100772693e-06
-1.127508244e-06
-1.128965135e-06
-1.135849282e-06
-1.160019424e-06
-1.162254271e-06
-1.167637863e-06
-1.188387627e-06
-1.191917638e-06
-1.202771864e-06
-1.21228065e-06
-1.222848349e-06
-1.233078419e-06
-1.241895285e-06
-1.25060356e-06
-1.259604702e-06
-1.268648644e-06
-1.275745053e-06
-1.283333033e-06
-1.289253872e-06
-1.293601487e-06
-1.290546936e-06
-1.248931756e-06
-1.212792681e-06
-1.167329871e-06
)


100
(
-3.369748265e-07
-3.762689398e-07
-4.059327794e-07
-4.334636103e-07
-4.478847116e-07
-4.636230028e-07
-4.823739145e-07
-4.927058981e-07
-5.03231939e-07
-5.294441244e-07
-5.208747463e-07
-5.479903816e-07
-5.593560844e-07
-5.57457288e-07
-5.81003645e-07
-5.937533721e-07
-5.896656039e-07
-6.060765476e-07
-6.29273598e-07
-6.364512519e-07
-6.3056115e-07
-6.488840714e-07
-6.685437184e-07
-6.784850133e-07
-6.715822038e-07
-6.872199286e-07
-7.061889698e-07
-7.140636746e-07
-7.107517583e-07
-7.189511136e-07
-7.345920049e-07
-7.533857893e-07
-7.485494209e-07
-7.458858488e-07
-7.681621985e-07
-7.934438552e-07
-7.899478888e-07
-7.78951653e-07
-8.029744137e-07
-8.343635948e-07
-8.317696509e-07
-8.294837553e-07
-8.360488205e-07
-8.658240584e-07
-8.787052877e-07
-8.68731355e-07
-8.673521763e-07
-9.000010505e-07
-9.26581482e-07
-9.156720557e-07
-9.162233616e-07
-9.387948009e-07
-9.604011976e-07
-9.673292091e-07
-9.62161381e-07
-9.757922299e-07
-9.949990233e-07
-9.99795828e-07
-1.00451441e-06
-1.011297174e-06
-1.025707817e-06
-1.035167083e-06
-1.042885849e-06
-1.059077126e-06
-1.066304312e-06
-1.077775008e-06
-1.09070835e-06
-1.094707079e-06
-1.112145844e-06
-1.119397065e-06
-1.126144766e-06
-1.133734688e-06
-1.144744785e-06
-1.157762629e-06
-1.17453158e-06
-1.179584823e-06
-1.181189576e-06
-1.204396505e-06
-1.211749249e-06
-1.219250543e-06
-1.230636768e-06
-1.239475869e-06
-1.254338002e-06
-1.264649701e-06
-1.273807697e-06
-1.285727708e-06
-1.294387535e-06
-1.303117431e-06
-1.310928312e-06
-1.323238945e-06
-1.330994186e-06
-1.33769842e-06
-1.346429119e-06
-1.353563068e-06
-1.359881345e-06
-1.363032199e-06
-1.356849267e-06
-1.318898414e-06
-1.28088095e-06
-1.23723944e-06
)


100
(
-3.371912238e-07
-3.812098432e-07
-4.129630623e-07
-4.361850266e-07
-4.446241181e-07
-4.772979907e-07
-4.792380995e-07
-5.111295378e-07
-5.065719325e-07
-5.343800649e-07
-5.461878352e-07
-5.465750467e-07
-5.756942873e-07
-5.80990269e-07
-5.843240878e-07
-6.080744445e-07
-6.207711673e-07
-6.175148734e-07
-6.33297715e-07
-6.566395166e-07
-6.685407258e-07
-6.632650725e-07
-6.762011284e-07
-6.9726885e-07
-7.155616271e-07
-7.087622281e-07
-7.154125381e-07
-7.365180703e-07
-7.456246333e-07
-7.472781193e-07
-7.445489345e-07
-7.804418163e-07
-7.960957555e-07
-7.938529055e-07
-7.813292141e-07
-8.186964562e-07
-8.421858102e-07
-8.407322417e-07
-8.155670748e-07
-8.536881169e-07
-8.828510094e-07
-8.832515842e-07
-8.722836834e-07
-8.878288772e-07
-9.179359165e-07
-9.323670919e-07
-9.244494715e-07
-9.244217064e-07
-9.620466999e-07
-9.832747e-07
-9.839174857e-07
-9.794058913e-07
-9.948709304e-07
-1.006745906e-06
-1.017853853e-06
-1.031842514e-06
-1.036370972e-06
-1.039446521e-06
-1.053807796e-06
-1.06734973e-06
-1.078899689e-06
-1.082587055e-06
-1.101676596e-06
-1.118735184e-06
-1.125992239e-06
-1.134066095e-06
-1.147017414e-06
-1.155588583e-06
-1.160044245e-06
-1.17473318e-06
-1.186896916e-06
-1.197380053e-06
-1.211354091e-06
-1.221995649e-06
-1.2245117e-06
-1.248131223e-06
-1.245819273e-06
-1.258266557e-06
-1.269544635e-06
-1.281733987e-06
-1.29551424e-06
-1.306967328e-06
-1.310775104e-06
-1.325312867e-06
-1.335828762e-06
-1.347277213e-06
-1.357849598e-06
-1.367320081e-06
-1.374302763e-06
-1.383665697e-06
-1.395078688e-06
-1.402106124e-06
-1.40963658e-06
-1.416524931e-06
-1.42316402e-06
-1.426506017e-06
-1.413098098e-06
-1.379322686e-06
-1.343450236e-06
-1.300909131e-06
)


100
(
-3.371453255e-07
-3.847741986e-07
-4.157625278e-07
-4.327726298e-07
-4.559589566e-07
-4.790508278e-07
-4.907407174e-07
-5.111173316e-07
-5.270226278e-07
-5.295120431e-07
-5.642186731e-07
-5.641895884e-07
-5.745139719e-07
-6.033118777e-07
-6.044272648e-07
-6.11122307e-07
-6.348267625e-07
-6.492099237e-07
-6.471980752e-07
-6.600365359e-07
-6.839706819e-07
-7.021211228e-07
-6.979553941e-07
-7.041165923e-07
-7.271510658e-07
-7.480179932e-07
-7.466954199e-07
-7.537168295e-07
-7.774886377e-07
-7.863143761e-07
-7.83837463e-07
-7.805424156e-07
-8.256355276e-07
-8.386269775e-07
-8.287361194e-07
-8.238130936e-07
-8.64147105e-07
-8.894787055e-07
-8.705147e-07
-8.663278517e-07
-9.005468062e-07
-9.316176099e-07
-9.264813805e-07
-9.264423428e-07
-9.416517262e-07
-9.776745465e-07
-9.830255381e-07
-9.836862068e-07
-9.794056256e-07
-1.010132956e-06
-1.016857468e-06
-1.030363517e-06
-1.035533701e-06
-1.038983961e-06
-1.051841435e-06
-1.070227798e-06
-1.085258712e-06
-1.10052897e-06
-1.105235904e-06
-1.118294967e-06
-1.134506155e-06
-1.140895844e-06
-1.150582455e-06
-1.155810366e-06
-1.170462242e-06
-1.180237123e-06
-1.191331529e-06
-1.208396308e-06
-1.213352614e-06
-1.226155465e-06
-1.245984273e-06
-1.253782308e-06
-1.265531388e-06
-1.272769227e-06
-1.277244697e-06
-1.289608636e-06
-1.308719111e-06
-1.316954967e-06
-1.329963685e-06
-1.340186626e-06
-1.346621673e-06
-1.358799927e-06
-1.371633591e-06
-1.381761277e-06
-1.392341316e-06
-1.401988519e-06
-1.411600107e-06
-1.420719867e-06
-1.432235494e-06
-1.44051657e-06
-1.447621417e-06
-1.456798829e-06
-1.464813457e-06
-1.473246951e-06
-1.479825403e-06
-1.484477651e-06
-1.461377673e-06
-1.43387215e-06
-1.399815438e-06
-1.359731291e-06
)


100
(
-3.371052445e-07
-3.827937533e-07
-4.121095205e-07
-4.358412926e-07
-4.665988976e-07
-4.745227012e-07
-5.059401743e-07
-5.073139128e-07
-5.417667804e-07
-5.43550818e-07
-5.602086202e-07
-5.907705545e-07
-5.844163813e-07
-6.024893399e-07
-6.307276611e-07
-6.297302184e-07
-6.379283691e-07
-6.623209455e-07
-6.794473408e-07
-6.784676046e-07
-6.87516461e-07
-7.123119765e-07
-7.376301693e-07
-7.348382527e-07
-7.333633119e-07
-7.572760925e-07
-7.776646497e-07
-7.849092828e-07
-7.925556796e-07
-8.163674521e-07
-8.257674673e-07
-8.039949479e-07
-8.251638775e-07
-8.681831727e-07
-8.814137321e-07
-8.580308297e-07
-8.692664495e-07
-9.098747455e-07
-9.313016111e-07
-9.151689318e-07
-9.182149597e-07
-9.508756066e-07
-9.819120187e-07
-9.833285935e-07
-9.791530463e-07
-9.930057617e-07
-1.008365959e-06
-1.017762569e-06
-1.030978928e-06
-1.030510618e-06
-1.041983556e-06
-1.060870544e-06
-1.07879977e-06
-1.097593089e-06
-1.106798808e-06
-1.099786628e-06
-1.123599211e-06
-1.143133071e-06
-1.153444939e-06
-1.166138697e-06
-1.17309759e-06
-1.182720202e-06
-1.187853657e-06
-1.201137806e-06
-1.219645854e-06
-1.228367076e-06
-1.23500301e-06
-1.25736493e-06
-1.273700237e-06
-1.278968926e-06
-1.285918211e-06
-1.2936602e-06
-1.303404975e-06
-1.321171428e-06
-1.337759582e-06
-1.343031929e-06
-1.360145271e-06
-1.368752947e-06
-1.374140968e-06
-1.385245995e-06
-1.400585601e-06
-1.4126743e-06
-1.421305395e-06
-1.430184702e-06
-1.440926626e-06
-1.450400824e-06
-1.461537767e-06
-1.473653357e-06
-1.483295111e-06
-1.490754434e-06
-1.498105806e-06
-1.506371103e-06
-1.513954223e-06
-1.522984184e-06
-1.524870633e-06
-1.533163272e-06
-1.509753653e-06
-1.48228544e-06
-1.45059147e-06
-1.41335998e-06
)


100
(
-3.371582336e-07
-3.81830656e-07
-4.127275524e-07
-4.440235002e-07
-4.671495253e-07
-4.819299961e-07
-5.091876095e-07
-5.220470613e-07
-5.386513031e-07
-5.647979881e-07
-5.616702221e-07
-5.904500693e-07
-6.126426109e-07
-6.068843378e-07
-6.300650687e-07
-6.582007389e-07
-6.570754165e-07
-6.648592718e-07
-6.888441583e-07
-7.116725267e-07
-7.115926078e-07
-7.150752782e-07
-7.411029796e-07
-7.666905927e-07
-7.730533985e-07
-7.691067465e-07
-7.865750269e-07
-8.075439571e-07
-8.220629188e-07
-8.326980676e-07
-8.576916344e-07
-8.571461562e-07
-8.391908516e-07
-8.68274956e-07
-9.117242102e-07
-9.124165977e-07
-9.046264643e-07
-9.162939756e-07
-9.615214242e-07
-9.702194675e-07
-9.72148512e-07
-9.678074014e-07
-9.933814223e-07
-1.005155618e-06
-1.023837652e-06
-1.026791729e-06
-1.029507409e-06
-1.0423613e-06
-1.061636823e-06
-1.079920622e-06
-1.099697284e-06
-1.097489339e-06
-1.106814136e-06
-1.128055293e-06
-1.149200567e-06
-1.158106244e-06
-1.172438195e-06
-1.168333342e-06
-1.182134138e-06
-1.194779918e-06
-1.208409857e-06
-1.231202543e-06
-1.238177368e-06
-1.241290713e-06
-1.262692417e-06
-1.283279314e-06
-1.289051058e-06
-1.297188741e-06
-1.301588366e-06
-1.310776055e-06
-1.328024158e-06
-1.353211234e-06
-1.351362914e-06
-1.368460962e-06
-1.386638753e-06
-1.392858371e-06
-1.396251118e-06
-1.409331527e-06
-1.425976127e-06
-1.438439419e-06
-1.445946162e-06
-1.455592009e-06
-1.464059827e-06
-1.475609228e-06
-1.486776536e-06
-1.499596717e-06
-1.506722472e-06
-1.51690056e-06
-1.52507845e-06
-1.535475739e-06
-1.544541132e-06
-1.552922188e-06
-1.560675436e-06
-1.564929513e-06
-1.570703062e-06
-1.576338255e-06
-1.548932577e-06
-1.525628502e-06
-1.496388915e-06
-1.46190707e-06
)


100
(
-3.37382947e-07
-3.852724105e-07
-4.189345242e-07
-4.50949201e-07
-4.636350117e-07
-4.94336339e-07
-5.044544074e-07
-5.385415928e-07
-5.392309079e-07
-5.695805923e-07
-5.846561817e-07
-5.846515538e-07
-6.196230593e-07
-6.360371442e-07
-6.309058412e-07
-6.570238886e-07
-6.872064424e-07
-6.865443891e-07
-6.919964729e-07
-7.165436873e-07
-7.45143128e-07
-7.462663555e-07
-7.431834659e-07
-7.695911313e-07
-7.953262729e-07
-8.125526753e-07
-8.089978939e-07
-8.156830193e-07
-8.383804826e-07
-8.510487395e-07
-8.797815813e-07
-9.036641547e-07
-8.797892838e-07
-8.851895483e-07
-9.130924337e-07
-9.573636228e-07
-9.556683465e-07
-9.577419106e-07
-9.660709499e-07
-9.921344746e-07
-1.003043889e-06
-1.00936097e-06
-1.004822009e-06
-1.018848753e-06
-1.040107243e-06
-1.062430419e-06
-1.087028543e-06
-1.090294985e-06
-1.085606027e-06
-1.10854285e-06
-1.127860022e-06
-1.145055483e-06
-1.163292002e-06
-1.16506288e-06
-1.16815309e-06
-1.187595572e-06
-1.194763283e-06
-1.213668151e-06
-1.234382683e-06
-1.232081096e-06
-1.240455012e-06
-1.265030735e-06
-1.288451697e-06
-1.301175621e-06
-1.303986279e-06
-1.307656425e-06
-1.317869574e-06
-1.332507342e-06
-1.357293299e-06
-1.352583147e-06
-1.36851418e-06
-1.392927676e-06
-1.405285988e-06
-1.411480283e-06
-1.417683509e-06
-1.435922741e-06
-1.452184856e-06
-1.460563767e-06
-1.467133817e-06
-1.476046941e-06
-1.485156495e-06
-1.497195223e-06
-1.512744778e-06
-1.524789804e-06
-1.530352916e-06
-1.540413785e-06
-1.548545901e-06
-1.558442997e-06
-1.56750189e-06
-1.576419608e-06
-1.586036398e-06
-1.593664885e-06
-1.602858442e-06
-1.608299632e-06
-1.621564067e-06
-1.627012327e-06
-1.590575284e-06
-1.567684579e-06
-1.538436705e-06
-1.505579437e-06
)


100
(
-3.375907348e-07
-3.885345251e-07
-4.248501042e-07
-4.477704977e-07
-4.703551227e-07
-4.996914139e-07
-5.115197958e-07
-5.381918207e-07
-5.574594286e-07
-5.653611894e-07
-5.995919959e-07
-6.056011855e-07
-6.134674214e-07
-6.476347065e-07
-6.612162551e-07
-6.56993627e-07
-6.846149012e-07
-7.163923607e-07
-7.190031335e-07
-7.193107129e-07
-7.453642986e-07
-7.736991831e-07
-7.819427811e-07
-7.791518921e-07
-7.972511198e-07
-8.239018577e-07
-8.501421966e-07
-8.505479054e-07
-8.478718426e-07
-8.687675478e-07
-8.819633539e-07
-9.223959e-07
-9.379436766e-07
-9.264056648e-07
-9.329917962e-07
-9.632187243e-07
-9.837330074e-07
-9.988787312e-07
-9.932302426e-07
-9.974017743e-07
-1.010980212e-06
-1.032884699e-06
-1.058267061e-06
-1.067576104e-06
-1.063839485e-06
-1.079100043e-06
-1.10379417e-06
-1.126703892e-06
-1.144964431e-06
-1.150680487e-06
-1.154661091e-06
-1.170579083e-06
-1.182173972e-06
-1.194344937e-06
-1.221125403e-06
-1.222457821e-06
-1.220036164e-06
-1.24146334e-06
-1.264474987e-06
-1.285909328e-06
-1.305295851e-06
-1.301441371e-06
-1.308809379e-06
-1.322833139e-06
-1.336304462e-06
-1.357160201e-06
-1.356363018e-06
-1.364531348e-06
-1.39123047e-06
-1.415905159e-06
-1.417716484e-06
-1.417094148e-06
-1.434836096e-06
-1.446664037e-06
-1.461060315e-06
-1.470120708e-06
-1.482482936e-06
-1.496514484e-06
-1.504743535e-06
-1.516814931e-06
-1.534754944e-06
-1.542552407e-06
-1.549996438e-06
-1.557994834e-06
-1.57312046e-06
-1.584466592e-06
-1.591381326e-06
-1.601245945e-06
-1.611657128e-06
-1.62221118e-06
-1.632959387e-06
-1.641311509e-06
-1.650282429e-06
-1.662107256e-06
-1.670232139e-06
-1.667631463e-06
-1.646244702e-06
-1.606309716e-06
-1.578176744e-06
-1.54504232e-06
)


100
(
-3.375726011e-07
-3.902387362e-07
-4.241787249e-07
-4.452003919e-07
-4.795761904e-07
-4.961048189e-07
-5.252959716e-07
-5.329083967e-07
-5.703491258e-07
-5.769589952e-07
-5.957147346e-07
-6.281369024e-07
-6.274546448e-07
-6.417771323e-07
-6.766763503e-07
-6.891993412e-07
-6.838337103e-07
-7.115253586e-07
-7.449668741e-07
-7.524579428e-07
-7.467426582e-07
-7.731895254e-07
-8.014154114e-07
-8.179698368e-07
-8.161041002e-07
-8.240203548e-07
-8.524196539e-07
-8.779319091e-07
-8.934433547e-07
-8.91481308e-07
-8.967240567e-07
-9.150591216e-07
-9.601032681e-07
-9.729092933e-07
-9.715421343e-07
-9.680028138e-07
-9.840000949e-07
-9.994996933e-07
-1.027484288e-06
-1.044867341e-06
-1.0422896e-06
-1.050163411e-06
-1.073865518e-06
-1.096026106e-06
-1.119260196e-06
-1.121441538e-06
-1.121162435e-06
-1.141611237e-06
-1.169868619e-06
-1.179279277e-06
-1.198442182e-06
-1.202560164e-06
-1.198754723e-06
-1.210656033e-06
-1.236541134e-06
-1.261653827e-06
-1.292375314e-06
-1.279898857e-06
-1.288791855e-06
-1.316102057e-06
-1.325091806e-06
-1.340983237e-06
-1.352169574e-06
-1.344782096e-06
-1.354494241e-06
-1.386131357e-06
-1.414805049e-06
-1.424493052e-06
-1.418435318e-06
-1.444079077e-06
-1.449633728e-06
-1.458554036e-06
-1.469680775e-06
-1.482560868e-06
-1.495467611e-06
-1.504894376e-06
-1.518339299e-06
-1.53145931e-06
-1.549059187e-06
-1.558555536e-06
-1.564894894e-06
-1.574869096e-06
-1.587241045e-06
-1.605239189e-06
-1.610616687e-06
-1.6139765e-06
-1.630948731e-06
-1.63885293e-06
-1.651956442e-06
-1.659691501e-06
-1.666236903e-06
-1.677172388e-06
-1.686573921e-06
-1.687348964e-06
-1.702182125e-06
-1.687641984e-06
-1.672709171e-06
-1.641262253e-06
-1.615060513e-06
-1.582569545e-06
)


100
(
-3.375406385e-07
-3.891812571e-07
-4.214147455e-07
-4.52374916e-07
-4.828186804e-07
-4.987270079e-07
-5.304192016e-07
-5.444495332e-07
-5.654234222e-07
-5.958880137e-07
-5.975697586e-07
-6.246841163e-07
-6.518418403e-07
-6.518613518e-07
-6.700221192e-07
-7.056683603e-07
-7.184165628e-07
-7.120189741e-07
-7.385782166e-07
-7.724601115e-07
-7.855622257e-07
-7.80042417e-07
-7.999625263e-07
-8.285012853e-07
-8.551579813e-07
-8.540194955e-07
-8.537845401e-07
-8.793934479e-07
-9.057006743e-07
-9.308250816e-07
-9.370582515e-07
-9.354211073e-07
-9.483501068e-07
-9.761013223e-07
-9.880151127e-07
-1.006247483e-06
-1.009849129e-06
-1.01162431e-06
-1.036084103e-06
-1.063006449e-06
-1.090860699e-06
-1.096844346e-06
-1.088876478e-06
-1.109135691e-06
-1.13369435e-06
-1.154796432e-06
-1.174789493e-06
-1.179176076e-06
-1.176465319e-06
-1.189157113e-06
-1.201695992e-06
-1.229189912e-06
-1.260723725e-06
-1.260042164e-06
-1.246050506e-06
-1.277825719e-06
-1.30739712e-06
-1.33097538e-06
-1.343940404e-06
-1.33618122e-06
-1.329575553e-06
-1.342873639e-06
-1.379262508e-06
-1.415939235e-06
-1.402767718e-06
-1.404745681e-06
-1.437102888e-06
-1.451644818e-06
-1.461159823e-06
-1.466673986e-06
-1.482353309e-06
-1.501635685e-06
-1.519518691e-06
-1.524644026e-06
-1.532634562e-06
-1.543411042e-06
-1.554845646e-06
-1.565530694e-06
-1.580217868e-06
-1.591174555e-06
-1.6041817e-06
-1.613098917e-06
-1.627296601e-06
-1.632547515e-06
-1.642263675e-06
-1.657101885e-06
-1.665969164e-06
-1.674806038e-06
-1.681393159e-06
-1.691990946e-06
-1.69983219e-06
-1.710701154e-06
-1.707604928e-06
-1.721463779e-06
-1.74123404e-06
-1.714763568e-06
-1.685341102e-06
-1.675377668e-06
-1.648884484e-06
-1.617867821e-06
)


100
(
-3.375865006e-07
-3.893787364e-07
-4.24751482e-07
-4.586245807e-07
-4.790340816e-07
-5.091896175e-07
-5.261842922e-07
-5.588351116e-07
-5.64158937e-07
-5.969717158e-07
-6.171345654e-07
-6.19288649e-07
-6.530511033e-07
-6.77442239e-07
-6.770958322e-07
-6.973006332e-07
-7.335199394e-07
-7.487512418e-07
-7.41630937e-07
-7.648789574e-07
-7.987958201e-07
-8.196004364e-07
-8.14455997e-07
-8.25948433e-07
-8.556863043e-07
-8.819366738e-07
-8.93061482e-07
-8.942675541e-07
-9.052211748e-07
-9.337533805e-07
-9.568342338e-07
-9.790769726e-07
-9.760335298e-07
-9.732718979e-07
-9.942109743e-07
-1.019116291e-06
-1.050401396e-06
-1.063049486e-06
-1.056908704e-06
-1.064987599e-06
-1.094483038e-06
-1.121700608e-06
-1.143043514e-06
-1.145665405e-06
-1.150349623e-06
-1.167953978e-06
-1.183243666e-06
-1.194319869e-06
-1.221631966e-06
-1.227864885e-06
-1.22524324e-06
-1.240646483e-06
-1.270060745e-06
-1.298669589e-06
-1.315009536e-06
-1.313714962e-06
-1.31261659e-06
-1.337477229e-06
-1.342687736e-06
-1.368444575e-06
-1.387112605e-06
-1.376510749e-06
-1.388866778e-06
-1.426281051e-06
-1.457154026e-06
-1.462954743e-06
-1.461197716e-06
-1.466768083e-06
-1.485197279e-06
-1.502605682e-06
-1.512648433e-06
-1.523970611e-06
-1.538158331e-06
-1.552478708e-06
-1.564299746e-06
-1.579480663e-06
-1.594252115e-06
-1.60327725e-06
-1.606420112e-06
-1.617182337e-06
-1.634026788e-06
-1.650860732e-06
-1.660446705e-06
-1.663832598e-06
-1.674509028e-06
-1.691772823e-06
-1.697911646e-06
-1.705506673e-06
-1.712101878e-06
-1.722461981e-06
-1.738877997e-06
-1.748460859e-06
-1.760044996e-06
-1.770295401e-06
-1.771467206e-06
-1.746395829e-06
-1.718273365e-06
-1.708535399e-06
-1.683086436e-06
-1.653003255e-06
)


100
(
-3.377851936e-07
-3.914454045e-07
-4.287716269e-07
-4.592512984e-07
-4.805138733e-07
-5.154411532e-07
-5.29478545e-07
-5.592094189e-07
-5.801608896e-07
-5.905265054e-07
-6.260107569e-07
-6.399176364e-07
-6.47430017e-07
-6.817365849e-07
-7.0436396e-07
-7.031858328e-07
-7.236555703e-07
-7.603757121e-07
-7.792207575e-07
-7.727655966e-07
-7.903070872e-07
-8.244767972e-07
-8.548159061e-07
-8.506365004e-07
-8.520327716e-07
-8.819768801e-07
-9.079243658e-07
-9.336823697e-07
-9.363806321e-07
-9.360895285e-07
-9.544366628e-07
-9.768258078e-07
-1.006625553e-06
-1.021752997e-06
-1.020585375e-06
-1.020856502e-06
-1.049641649e-06
-1.078685716e-06
-1.108325627e-06
-1.107574301e-06
-1.103981803e-06
-1.12365616e-06
-1.155482086e-06
-1.173847718e-06
-1.191406977e-06
-1.195802151e-06
-1.191912981e-06
-1.205457832e-06
-1.228525027e-06
-1.256591772e-06
-1.286439035e-06
-1.278260313e-06
-1.27567651e-06
-1.308814691e-06
-1.340167236e-06
-1.34150646e-06
-1.358172367e-06
-1.350704751e-06
-1.351577724e-06
-1.382017407e-06
-1.413885288e-06
-1.447337809e-06
-1.431196457e-06
-1.432692585e-06
-1.463820471e-06
-1.473311332e-06
-1.487210434e-06
-1.500425952e-06
-1.512814016e-06
-1.529373847e-06
-1.544881662e-06
-1.555817557e-06
-1.559142439e-06
-1.57601425e-06
-1.591775619e-06
-1.604872591e-06
-1.617585694e-06
-1.62493509e-06
-1.640800309e-06
-1.658310886e-06
-1.662434228e-06
-1.670073582e-06
-1.673317784e-06
-1.699043176e-06
-1.715348086e-06
-1.716017373e-06
-1.726081086e-06
-1.73788491e-06
-1.749177178e-06
-1.752374534e-06
-1.758270955e-06
-1.754123808e-06
-1.783639402e-06
-1.784210645e-06
-1.771878099e-06
-1.776610983e-06
-1.75920965e-06
-1.739538417e-06
-1.717916515e-06
-1.687038104e-06
)


100
(
-3.379221937e-07
-3.934831654e-07
-4.314824716e-07
-4.565849783e-07
-4.879315727e-07
-5.113827899e-07
-5.408799211e-07
-5.543104282e-07
-5.907805279e-07
-6.01046319e-07
-6.200698469e-07
-6.569738188e-07
-6.642953966e-07
-6.749175227e-07
-7.104012844e-07
-7.325796355e-07
-7.308992638e-07
-7.501274582e-07
-7.865043681e-07
-8.110390883e-07
-8.055198016e-07
-8.151199191e-07
-8.503125403e-07
-8.792260927e-07
-8.887384994e-07
-8.903014755e-07
-9.079814335e-07
-9.357706021e-07
-9.56305709e-07
-9.728208785e-07
-9.742872919e-07
-9.765637403e-07
-1.003512293e-06
-1.033342722e-06
-1.066655337e-06
-1.065911942e-06
-1.056390162e-06
-1.075640211e-06
-1.10719309e-06
-1.134226293e-06
-1.15836939e-06
-1.161464383e-06
-1.159313044e-06
-1.174783122e-06
-1.186385463e-06
-1.211419256e-06
-1.250264866e-06
-1.250250757e-06
-1.236665273e-06
-1.262392872e-06
-1.292123184e-06
-1.318822331e-06
-1.337852775e-06
-1.335445016e-06
-1.33252164e-06
-1.346018963e-06
-1.365011675e-06
-1.402506271e-06
-1.41193538e-06
-1.397118141e-06
-1.420521177e-06
-1.458079942e-06
-1.473158591e-06
-1.478341157e-06
-1.480036842e-06
-1.488601507e-06
-1.505928548e-06
-1.525926465e-06
-1.536566916e-06
-1.546618044e-06
-1.563367715e-06
-1.580532965e-06
-1.594652951e-06
-1.606867275e-06
-1.622766589e-06
-1.636980751e-06
-1.632549504e-06
-1.643145726e-06
-1.658696151e-06
-1.679605449e-06
-1.693565892e-06
-1.703028677e-06
-1.707773818e-06
-1.7131049e-06
-1.731422122e-06
-1.745179023e-06
-1.754982693e-06
-1.761379872e-06
-1.774287855e-06
-1.787289026e-06
-1.786843231e-06
-1.793325106e-06
-1.793683351e-06
-1.816057575e-06
-1.827847012e-06
-1.80434184e-06
-1.793167777e-06
-1.768055005e-06
-1.747351797e-06
-1.718850648e-06
)


100
(
-3.37923132e-07
-3.933724366e-07
-4.304951696e-07
-4.590580464e-07
-4.935950517e-07
-5.103588708e-07
-5.457773188e-07
-5.627598206e-07
-5.862756034e-07
-6.170550715e-07
-6.237454872e-07
-6.499496741e-07
-6.854555255e-07
-6.890922262e-07
-7.017492956e-07
-7.380903803e-07
-7.6207591e-07
-7.603721604e-07