/*--------------------------------*- C++ -*----------------------------------*\
| =========                 |                                                 |
| \\      /  F ield         | OpenFOAM: The Open Source CFD Toolbox           |
|  \\    /   O peration     | Version:  2.3.1                                 |
|   \\  /    A nd           | Web:      www.OpenFOAM.org                      |
|    \\/     M anipulation  |                                                 |
\*---------------------------------------------------------------------------*/
FoamFile
{
    version     2.0;
    format      ascii;
    class       dictionary;
    location    "constant";
    object      drealra;
}
// * * * * * * * * * * * * * * * * * * * * * * * * * * * * * * * * * * * * * //

drealra_table
100
(

100
(
1119.255119
1119.732726
1119.917007
1120.079228
1120.23908
1120.177881
1120.210958
1120.154258
1120.112073
1119.856385
1119.823365
1119.447797
1119.329526
1119.298181
1118.987789
1118.912675
1119.000022
1118.681332
1118.552859
1118.601298
1118.324114
1118.032286
1117.882635
1117.73944
1117.365186
1117.129145
1117.035235
1116.797092
1116.310883
1115.958024
1115.736138
1115.382816
1115.001539
1114.749571
1114.633676
1114.402818
1113.787626
1113.317638
1112.988949
1112.609484
1111.963364
1111.457647
1111.097677
1110.740601
1110.244409
1109.889796
1109.678986
1109.568225
1108.836589
1108.245564
1107.781341
1107.3299
1106.532277
1105.853636
1105.30295
1104.742857
1104.124125
1103.646096
1103.315132
1102.881118
1102.179265
1101.629805
1101.245073
1100.683262
1099.930136
1099.347744
1098.949846
1098.146992
1097.391229
1096.827508
1096.199774
1095.308583
1094.620454
1094.032125
1093.051414
1092.290366
1091.609427
1090.5951
1089.823365
1088.944504
1087.981296
1087.25294
1086.157255
1085.371398
1084.300218
1083.482511
1082.403049
1081.536569
1080.529174
1079.565276
1078.675863
1077.793322
1076.869975
1075.915576
1074.914064
1073.925784
1072.63283
1070.969763
1068.603314
1057.355819
)


100
(
1119.127031
1119.945965
1120.385819
1120.846518
1121.148583
1121.218728
1121.633918
1121.562826
1121.812466
1121.662536
1121.654074
1121.641928
1121.505109
1121.631503
1121.684069
1121.604776
1121.755237
1122.00963
1121.88325
1121.930075
1122.122525
1122.060167
1121.907547
1121.898541
1122.036518
1121.799527
1121.70421
1121.747603
1121.917137
1121.593047
1121.372708
1121.28238
1121.322739
1121.071739
1120.964114
1120.995862
1121.149879
1121.076281
1120.777657
1120.612507
1120.58838
1120.539478
1120.211736
1120.02304
1119.981778
1120.046757
1119.869386
1119.835126
1119.93378
1120.155217
1120.116388
1119.828698
1119.647335
1119.589634
1119.4161
1119.045243
1118.807252
1118.717127
1118.617423
1118.456993
1118.231317
1118.680925
1118.952044
1118.531024
1118.291005
1119.015427
1119.353706
1118.582276
1118.990697
1119.689576
1119.65385
1119.267618
1120.343779
1120.721867
1119.82742
1120.288017
1121.791634
1121.057632
1121.489667
1123.274509
1122.513944
1124.061543
1124.921573
1124.440213
1127.481155
1127.202337
1128.537697
1130.547149
1130.635835
1133.216734
1133.80857
1135.712853
1136.016556
1137.446935
1137.234538
1138.208239
1136.933811
1131.485696
1113.849396
1099.251409
)


100
(
1119.023896
1120.246523
1120.93904
1121.697189
1121.985888
1122.397974
1122.792855
1123.149679
1123.388044
1123.705814
1123.677501
1123.929614
1123.985855
1124.108071
1124.480342
1124.681441
1124.837492
1125.202887
1125.685043
1125.746704
1125.95845
1126.310299
1126.527529
1126.538358
1126.690821
1126.988124
1127.096404
1127.166927
1127.374487
1127.709978
1127.890024
1127.836214
1127.903834
1128.106766
1128.326747
1128.390526
1128.600977
1128.950971
1129.435363
1129.667655
1129.712664
1129.891262
1130.216598
1130.634768
1130.658783
1130.815838
1131.118574
1131.564975
1131.889448
1132.195524
1132.630712
1133.184208
1133.811104
1133.876787
1133.957797
1134.176494
1134.923352
1134.893268
1134.963579
1135.192931
1135.944563
1135.936123
1136.77982
1137.652992
1137.962705
1138.220985
1139.519918
1140.809604
1140.893579
1141.999483
1143.533291
1144.979896
1145.612075
1147.046669
1148.665567
1149.302109
1149.356255
1151.307062
1153.571021
1154.48745
1156.362502
1157.50596
1160.118268
1160.396406
1162.529525
1165.101027
1166.203163
1168.56525
1170.752602
1172.259293
1173.918547
1175.576956
1176.959433
1177.385312
1178.629122
1178.719336
1176.793465
1164.639113
1148.763774
1133.76216
)


100
(
1118.945102
1120.536137
1121.547448
1122.277014
1122.885735
1123.690497
1124.068577
1124.849806
1125.119516
1125.623466
1125.913817
1126.164988
1126.687912
1126.851977
1127.23792
1127.863357
1128.256981
1128.649131
1129.233055
1129.980809
1130.226462
1130.614534
1131.145612
1131.704179
1131.896345
1132.230681
1132.709792
1133.222786
1133.473255
1133.864503
1134.387915
1135.036627
1135.280716
1135.536495
1135.927524
1136.464873
1136.94625
1137.359892
1137.925251
1138.633556
1139.474162
1140.09077
1140.44634
1140.924034
1141.539691
1142.477243
1142.832505
1143.289784
1143.890906
1145.189586
1145.682893
1146.276523
1146.988652
1148.293534
1148.839055
1149.154414
1149.836785
1151.571669
1152.366098
1152.707179
1153.755225
1155.2457
1155.897218
1157.005396
1158.319794
1159.556042
1160.599124
1162.19946
1163.994384
1165.680557
1166.923493
1168.320716
1169.888777
1171.803165
1173.791658
1175.251243
1176.264408
1178.973543
1181.56116
1182.251871
1184.587317
1187.276582
1188.871476
1191.324745
1193.834001
1196.098437
1198.000816
1200.013104
1202.04203
1203.870272
1205.682065
1207.384115
1208.67671
1210.247392
1210.776162
1210.776961
1208.494637
1192.500171
1178.699078
1163.974275
)


100
(
1118.890064
1120.616464
1121.883673
1122.910137
1123.876199
1124.699332
1125.447279
1126.236439
1126.989672
1127.500554
1128.275275
1128.585022
1129.116306
1129.820878
1130.224948
1130.875429
1131.753629
1132.378919
1133.002704
1133.799261
1134.74975
1135.278708
1135.858464
1136.58197
1137.452196
1137.924261
1138.455117
1139.129281
1139.948225
1140.53877
1141.124916
1141.843795
1142.685166
1143.559688
1143.983831
1144.53037
1145.217226
1146.320931
1146.938312
1147.691654
1148.579847
1149.660759
1150.821064
1151.40085
1152.100114
1153.221809
1155.053241
1155.646289
1156.325715
1157.548006
1159.43373
1160.324865
1161.123149
1162.455917
1164.143738
1165.100569
1165.855046
1167.69731
1169.732012
1171.279054
1172.466489
1174.04491
1175.760424
1177.220999
1178.444737
1179.809662
1181.344126
1183.233537
1184.880364
1186.615105
1188.48863
1190.503552
1192.483229
1193.983061
1195.637923
1198.429975
1201.28309
1203.063556
1205.313514
1208.066293
1210.878885
1213.315413
1215.232167
1217.418127
1219.794237
1221.954252
1224.505554
1226.656364
1228.568962
1229.902391
1232.151159
1234.264822
1235.388533
1236.974182
1237.590772
1237.440302
1233.425405
1217.285216
1204.290292
1190.232468
)


100
(
1118.858349
1120.755871
1122.263104
1123.585705
1124.886755
1125.744706
1126.912068
1127.700934
1128.799169
1129.4848
1130.274301
1131.144398
1131.691947
1132.500894
1133.385678
1134.06285
1134.972079
1136.094766
1136.98176
1137.823192
1138.818706
1139.961467
1140.828636
1141.605179
1142.52565
1143.590185
1144.509425
1145.241248
1146.061658
1147.010276
1148.074428
1148.821357
1149.691452
1150.673376
1152.045388
1152.675497
1153.422145
1154.311591
1156.238427
1157.118943
1158.079954
1159.16522
1160.918163
1162.288919
1163.07835
1164.049673
1166.174271
1168.445661
1169.256658
1170.378085
1172.340314
1174.451122
1175.783269
1177.152813
1178.926287
1180.823137
1182.432572
1184.267991
1186.024894
1187.896999
1189.951718
1191.860565
1193.406399
1195.056206
1197.018174
1199.19887
1201.100867
1202.859674
1204.905479
1207.10594
1209.386229
1211.308332
1213.21948
1215.253305
1217.616655
1219.607923
1222.269479
1225.093863
1227.930411
1230.344299
1232.420555
1234.872956
1237.897376
1240.210964
1242.651634
1244.937152
1247.016187
1249.047965
1251.075346
1253.27388
1255.008588
1256.745861
1258.253187
1259.56429
1260.375672
1259.733665
1252.725979
1238.576574
1226.562204
1213.41098
)


100
(
1118.767853
1120.917878
1122.669462
1124.31539
1125.611296
1126.830476
1128.095726
1129.22297
1130.335042
1131.544868
1132.344703
1133.40341
1134.362253
1135.189352
1136.268412
1137.361555
1138.298343
1139.451283
1140.800322
1141.968428
1143.00472
1144.188906
1145.518717
1146.767452
1147.74829
1148.877075
1150.146265
1151.218945
1152.093034
1153.091225
1154.364489
1155.872673
1156.803416
1157.850048
1159.231429
1160.95543
1161.777145
1162.726984
1164.338379
1166.597441
1167.752739
1168.909234
1170.528781
1172.613057
1174.202362
1175.205471
1177.207509
1179.574981
1182.042914
1183.327267
1185.335284
1187.487427
1189.727153
1191.674442
1193.308815
1195.035629
1196.875169
1198.938686
1200.98897
1202.86824
1204.88056
1207.152828
1209.624926
1212.16776
1214.17801
1216.330605
1218.614659
1220.883116
1223.312903
1225.374255
1227.409772
1229.670926
1232.236083
1234.568758
1236.843821
1239.313046
1241.697767
1244.246755
1246.619824
1249.185181
1251.956738
1254.460752
1257.053268
1259.61243
1262.048559
1264.423348
1266.740147
1268.656671
1270.456533
1272.599296
1274.583716
1276.109638
1277.576892
1278.769756
1279.501145
1278.974836
1269.963794
1257.625769
1246.531626
1234.483963
)


100
(
1118.645629
1121.129541
1123.122842
1124.888126
1126.35783
1127.969498
1129.233659
1130.802318
1131.918498
1133.285486
1134.483458
1135.556245
1136.880787
1137.962587
1139.058988
1140.395489
1141.720729
1142.898899
1144.273508
1145.825422
1147.297892
1148.535904
1149.925555
1151.46064
1153.119183
1154.284283
1155.596007
1157.046373
1158.213734
1159.263101
1160.431173
1162.405321
1164.023952
1165.126826
1166.336041
1168.362814
1170.235357
1171.243207
1172.532981
1174.824586
1177.293366
1178.736362
1180.210432
1182.343599
1184.605034
1186.44504
1188.284183
1190.66088
1193.166419
1195.622601
1197.750697
1199.657975
1201.660718
1203.766949
1206.165107
1208.649751
1210.549237
1212.515467
1214.707317
1217.060374
1219.519805
1221.672352
1224.086895
1226.615974
1229.13071
1231.710198
1234.177183
1236.328256
1238.578715
1241.330619
1244.192797
1246.654311
1249.098091
1251.458009
1253.845976
1256.318065
1258.529882
1261.142277
1263.983673
1266.552308
1268.9977
1271.463004
1273.952613
1276.446414
1278.934473
1281.377506
1283.619833
1285.661296
1287.385053
1289.461479
1291.449358
1292.89906
1294.286671
1295.352953
1295.948971
1295.098854
1285.159287
1274.534725
1264.536138
1253.545751
)


100
(
1118.544597
1121.295914
1123.471457
1125.368836
1127.143697
1128.880676
1130.41685
1132.038684
1133.567761
1134.944672
1136.564137
1137.790224
1139.129588
1140.71225
1141.952132
1143.305006
1144.884184
1146.46034
1147.871186
1149.47607
1151.238977
1153.052948
1154.471048
1156.041554
1157.751785
1159.66416
1161.183948
1162.674987
1164.303056
1165.573297
1166.793212
1168.351593
1170.808259
1172.551518
1173.818091
1175.548436
1177.863499
1179.894863
1181.083755
1183.195157
1185.688973
1188.320241
1190.052385
1192.18039
1194.462379
1196.860742
1199.192634
1201.324608
1203.589707
1205.961997
1208.404138
1211.029886
1213.422233
1215.533289
1217.748246
1220.305516
1222.98948
1225.736129
1228.058253
1230.367854
1232.744296
1235.118918
1237.676428
1240.245675
1242.682873
1245.187336
1247.913142
1250.739938
1253.371984
1255.903093
1258.609427
1261.242579
1264.021378
1266.424973
1268.666702
1271.386791
1274.210694
1276.731955
1279.182881
1281.644929
1284.10657
1286.560028
1289.013204
1291.427052
1293.70797
1295.896874
1298.080285
1300.152367
1302.058831
1303.822514
1305.433924
1306.912986
1308.237845
1309.281169
1309.504439
1308.34759
1298.311113
1289.225584
1280.306536
1270.333389
)


100
(
1118.464148
1121.33758
1123.722439
1125.864586
1127.98251
1129.725854
1131.666547
1133.290853
1135.191487
1136.680972
1138.312913
1140.123624
1141.480293
1143.07641
1144.907897
1146.339032
1147.945949
1149.775023
1151.668303
1153.290442
1155.077655
1157.012303
1159.175045
1160.783958
1162.531703
1164.416564
1166.510484
1168.491552
1170.156126
1171.954543
1173.333667
1174.705663
1176.980497
1179.611471
1181.486362
1182.944519
1185.286687
1187.766145
1189.969892
1191.782
1194.276804
1196.916948
1199.652874
1201.970485
1204.099469
1206.330235
1208.668083
1211.263348
1213.980749
1216.337599
1218.788976
1221.34251
1224.040804
1226.803132
1229.470505
1231.828832
1234.467019
1237.185628
1239.91069
1242.692224
1245.313869
1247.632442
1250.016492
1252.743158
1255.653693
1258.382359
1260.950681
1263.673225
1266.353671
1269.123876
1271.920827
1274.459069
1277.109009
1279.97489
1282.768504
1285.2713
1287.780697
1290.279706
1292.737998
1295.174713
1297.608008
1300.022753
1302.254311
1304.412749
1306.559494
1308.659441
1310.762537
1312.864175
1314.620048
1316.301716
1317.823047
1319.171886
1320.345987
1321.069087
1320.929105
1319.092189
1309.263062
1301.58246
1293.710616
1284.824557
)


100
(
1118.403729
1121.412015
1123.990914
1126.407661
1128.607392
1130.608989
1132.714072
1134.608957
1136.523434
1138.505567
1140.15095
1142.033264
1143.940724
1145.556672
1147.404736
1149.516858
1151.184984
1153.031785
1155.072523
1157.277349
1159.083058
1161.047091
1163.156109
1165.498789
1167.496958
1169.419763
1171.47798
1173.744482
1176.142951
1178.053965
1180.003655
1181.48931
1183.387069
1186.027143
1188.811095
1190.822285
1192.939261
1195.43336
1198.053482
1200.566084
1202.916733
1205.341337
1207.880649
1210.512823
1213.382233
1215.877467
1218.225094
1220.671936
1223.393083
1226.2819
1229.260347
1231.774705
1234.403703
1237.146748
1239.933182
1242.760578
1245.719975
1248.322348
1250.979331
1253.685351
1256.585722
1259.563332
1262.221294
1264.745385
1267.534807
1270.351378
1273.073914
1275.812782
1278.312773
1280.886345
1283.919124
1286.998494
1289.621492
1292.306919
1294.966437
1297.585603
1300.088125
1302.543615
1304.969719
1307.338151
1309.577357
1311.774501
1313.91887
1315.999104
1318.033111
1320.016257
1321.80752
1323.684804
1325.393431
1326.947863
1328.341638
1329.546516
1330.518462
1330.814061
1330.766575
1327.253037
1318.128937
1311.972525
1304.855473
1296.950439
)


100
(
1118.314866
1121.502479
1124.288342
1126.946665
1129.192904
1131.54257
1133.65844
1135.985715
1137.909453
1140.058658
1142.06031
1143.957088
1146.083037
1148.139543
1150.023587
1152.128354
1154.507974
1156.401935
1158.459549
1160.69299
1163.213713
1165.201067
1167.334727
1169.627068
1172.129838
1174.55069
1176.637678
1178.868977
1181.28726
1183.828964
1186.264452
1188.3787
1189.949709
1192.575421
1195.36805
1198.277216
1200.694543
1203.15913
1205.606937
1208.164524
1210.949349
1213.583624
1216.107579
1218.745168
1221.494582
1224.471413
1227.51799
1230.182198
1232.72004
1235.557154
1238.479945
1241.464987
1244.480092
1247.237579
1249.924504
1252.661525
1255.461047
1258.615524
1261.746478
1264.412362
1267.1603
1270.083939
1273.014599
1275.899067
1278.645081
1281.212266
1283.786277
1286.666633
1289.646943
1292.129579
1294.937965
1297.798767
1300.584277
1303.269504
1305.895507
1308.509582
1311.016645
1313.350331
1315.611029
1317.812231
1319.98641
1322.116492
1324.238461
1326.248067
1328.053649
1329.790086
1331.399767
1333.092139
1334.530377
1335.931606
1337.205116
1338.267607
1339.066198
1339.314784
1339.04839
1333.796185
1325.412586
1320.640722
1314.375019
1307.20407
)


100
(
1118.189635
1121.624334
1124.611667
1127.274584
1129.788421
1132.340258
1134.624479
1137.038573
1139.334123
1141.493329
1143.872643
1145.923796
1148.074025
1150.458876
1152.697097
1154.815789
1157.141079
1159.761652
1161.908986
1164.153384
1166.576823
1169.249238
1171.569124
1173.862154
1176.324408
1178.973064
1181.758976
1184.077641
1186.461034
1189.018864
1191.684951
1194.464614
1196.878157
1199.118833
1201.90754
1204.728544
1207.533623
1210.431953
1212.876749
1215.427756
1218.083491
1220.987533
1224.084328
1226.842171
1229.549939
1232.412265
1235.447096
1238.544916
1241.69723
1244.563156
1247.381657
1250.205041
1253.064887
1256.078131
1259.382494
1262.154206
1264.892802
1267.82502
1270.941526
1274.096841
1277.184472
1279.897545
1282.579127
1285.271645
1288.218158
1291.289762
1293.817496
1296.493951
1299.334361
1302.150449
1304.915587
1307.555502
1310.125422
1312.681442
1315.185668
1317.622545
1320.115101
1322.537405
1324.815919
1326.983777
1329.044324
1330.977226
1332.845187
1334.656576
1336.352855
1337.992515
1339.449433
1340.902503
1342.320792
1343.679005
1344.910759
1345.915925
1346.607414
1346.75147
1345.687596
1339.618423
1332.388327
1327.889495
1322.428341
1316.39851
)


100
(
1118.082348
1121.687905
1124.776986
1127.60972
1130.41037
1132.969025
1135.612715
1138.030492
1140.681108
1142.944587
1145.325397
1147.928561
1150.092735
1152.478531
1155.100723
1157.519573
1159.852633
1162.375486
1165.20787
1167.626769
1170.029053
1172.620599
1175.43068
1178.106451
1180.541785
1183.155179
1185.932279
1188.836631
1191.631492
1194.141541
1196.81343
1199.582138
1202.450395
1205.452198
1208.053171
1210.750388
1213.548384
1216.426502
1219.567165
1222.500424
1225.140729
1227.878491
1230.877625
1234.014628
1237.242677
1240.129412
1243.047069
1246.09517
1249.171804
1252.24889
1255.479437
1258.397342
1261.179569
1264.020428
1267.146923
1270.428548
1273.729234
1276.48398
1279.457425
1282.411507
1285.279689
1288.31508
1291.258355
1293.87478
1296.588622
1299.599329
1302.608951
1305.38391
1308.062313
1310.695191
1313.303897
1315.876331
1318.361362
1320.79426
1323.240341
1325.699836
1328.076382
1330.29802
1332.409225
1334.381312
1336.330042
1338.193746
1340.04774
1341.808433
1343.398431
1344.934657
1346.426302
1347.845071
1349.169619
1350.368329
1351.50946
1352.400503
1352.940558
1352.841942
1351.418789
1345.137651
1338.845307
1334.77568
1329.670063
1324.100032
)


100
(
1117.992435
1121.688946
1124.928184
1127.956391
1130.907462
1133.601255
1136.435591
1139.036742
1141.691129
1144.418952
1146.802085
1149.414033
1152.137337
1154.523082
1157.118308
1159.974296
1162.584425
1165.109273
1167.827437
1170.817074
1173.523784
1176.065734
1178.807695
1181.738921
1184.795736
1187.353009
1190.093078
1192.984106
1195.986593
1199.098781
1201.871836
1204.624441
1207.476528
1210.414895
1213.51965
1216.662913
1219.43399
1222.300633
1225.258468
1228.471089
1231.762577
1234.727475
1237.521044
1240.589215
1243.741541
1246.958121
1250.222877
1253.282119
1256.247932
1259.256182
1262.275911
1265.551437
1268.882609
1271.662904
1274.50989
1277.68276
1280.884063
1284.061877
1287.196565
1289.926611
1292.647233
1295.41781
1298.568019
1301.706324
1304.313195
1307.120603
1309.95029
1312.737448
1315.438109
1318.033954
1320.613661
1323.163207
1325.581298
1327.886031
1330.13574
1332.338476
1334.512608
1336.631627
1338.696793
1340.741901
1342.714625
1344.533677
1346.275683
1347.968369
1349.583934
1351.155923
1352.548448
1353.823134
1354.983777
1356.178329
1357.244403
1357.892742
1358.433775
1358.322636
1356.582506
1350.385199
1344.748843
1341.059835
1336.465484
1331.369904
)


100
(
1117.919334
1121.704851
1125.08493
1128.32801
1131.282658
1134.260164
1137.096655
1140.072143
1142.724468
1145.567819
1148.325567
1150.931371
1153.745444
1156.611092
1159.202663
1161.990423
1165.056119
1167.887367
1170.580538
1173.470961
1176.585231
1179.605557
1182.274542
1185.151982
1188.190675
1191.360403
1194.307255
1197.154124
1200.13834
1203.215821
1206.385483
1209.655763
1212.475246
1215.38823
1218.389783
1221.585257
1225.01544
1228.107587
1231.027732
1234.066571
1237.314303
1240.627035
1244.004558
1247.036085
1250.11073
1253.216912
1256.34459
1259.528955
1263.051193
1266.037164
1268.991876
1272.016407
1275.257473
1278.510833
1281.721005
1284.614125
1287.606624
1290.57082
1293.488593
1296.721939
1299.579751
1302.207744
1305.103334
1308.10663
1311.054598
1313.926353
1316.622641
1319.237163
1321.818253
1324.337941
1326.743125
1329.079268
1331.465857
1333.761906
1335.97957
1338.157502
1340.30073
1342.342437
1344.38752
1346.339755
1348.244725
1350.033694
1351.79971
1353.490932
1355.041305
1356.526581
1357.889834
1359.136808
1360.266529
1361.286722
1362.3262
1363.03138
1363.356781
1363.206775
1360.908509
1355.171933
1350.027964
1346.686388
1342.517923
1337.972384
)


100
(
1117.816431
1121.735026
1125.264851
1128.571415
1131.666443
1134.862071
1137.779337
1140.844003
1143.79561
1146.639233
1149.685873
1152.502424
1155.307781
1158.33508
1161.351702
1164.134307
1167.09766
1170.349836
1173.428989
1176.266765
1179.302846
1182.525914
1185.881317
1188.67309
1191.667756
1194.803798
1198.053806
1201.417452
1204.348493
1207.402306
1210.55036
1213.771351
1217.214246
1220.402116
1223.369011
1226.424786
1229.698455
1233.152082
1236.684652
1239.772757
1242.8594
1246.123583
1249.429809
1252.762743
1256.179326
1259.343333
1262.398242
1265.487288
1268.701986
1272.143412
1275.584097
1278.469678
1281.501673
1284.653636
1287.774342
1290.807685
1293.98807
1296.808629
1299.62092
1302.568685
1305.65288
1308.67727
1311.286694
1314.086919
1316.888618
1319.63278
1322.283421
1324.821558
1327.300562
1329.725422
1332.119348
1334.533862
1336.786443
1339.00768
1341.205782
1343.352295
1345.424517
1347.455396
1349.479595
1351.469235
1353.287788
1355.023425
1356.656193
1358.337404
1359.930091
1361.441856
1362.743358
1363.894887
1364.965565
1365.948497
1366.815965
1367.617947
1367.678322
1367.282492
1364.702048
1359.329641
1354.747912
1351.658721
1347.831975
1343.711733
)


100
(
1117.697696
1121.785144
1125.422017
1128.772836
1132.078413
1135.278104
1138.496496
1141.560505
1144.815311
1147.759277
1150.799119
1154.067242
1156.933738
1159.92762
1163.170978
1166.352893
1169.310238
1172.456725
1175.845494
1179.196667
1182.156746
1185.322427
1188.644409
1192.087781
1195.258574
1198.354862
1201.574579
1204.886032
1208.293023
1211.679066
1214.789788
1217.987625
1221.248065
1224.752581
1228.373728
1231.429567
1234.521619
1237.863033
1241.328001
1244.858129
1248.441007
1251.614223
1254.810073
1258.028526
1261.268576
1264.739326
1268.396628
1271.408837
1274.44387
1277.690802
1281.035402
1284.383988
1287.642717
1290.587873
1293.504108
1296.4051
1299.468114
1302.73682
1305.539544
1308.219061
1311.16395
1314.047618
1316.908862
1319.679132
1322.350316
1324.877916
1327.368524
1329.817945
1332.165014
1334.513414
1336.912553
1339.275281
1341.609226
1343.851788
1346.048215
1348.23164
1350.244355
1352.167291
1354.079999
1355.972581
1357.81731
1359.603939
1361.22098
1362.774918
1364.338577
1365.744296
1367.02696
1368.19645
1369.213733
1370.158542
1370.914357
1371.485587
1371.589602
1371.21609
1368.194358
1362.954108
1358.814172
1356.028552
1352.488742
1348.715709
)


100
(
1117.593684
1121.759494
1125.483865
1128.97973
1132.478789
1135.708801
1139.112381
1142.303155
1145.556671
1148.919613
1151.958296
1155.173639
1158.611823
1161.602513
1164.770989
1168.209469
1171.58886
1174.70181
1178.007368
1181.510385
1185.144509
1188.220495
1191.497991
1194.908719
1198.426303
1201.996024
1205.164707
1208.443677
1211.808948
1215.251431
1219.034361
1222.254076
1225.487185
1228.783894
1232.337465
1235.964763
1239.527245
1242.634338
1246.012282
1249.480408
1252.980157
1256.458329
1260.111757
1263.244727
1266.413917
1269.614441
1273.124901
1276.712162
1280.190318
1283.157433
1286.388602
1289.607369
1292.6838
1295.886413
1299.027159
1301.825473
1304.597405
1307.679503
1310.760447
1313.723659
1316.398475
1319.130549
1321.805257
1324.428781
1326.98419
1329.457882
1331.897331
1334.309589
1336.767894
1339.24954
1341.588767
1343.84698
1346.065478
1348.229258
1350.397103
1352.518421
1354.559722
1356.522696
1358.421358
1360.233117
1362.0189
1363.720272
1365.318622
1366.904756
1368.380064
1369.710937
1370.966602
1372.114942
1373.128636
1373.974652
1374.675742
1375.147332
1375.168339
1374.53376
1371.266627
1366.169492
1362.393556
1359.825101
1356.56702
1353.142963
)


100
(
1117.5038
1121.731116
1125.554198
1129.205596
1132.705637
1136.157542
1139.564785
1143.071126
1146.325159
1149.74843
1153.151258
1156.361386
1159.746785
1163.32194
1166.484212
1169.813278
1173.422198
1177.026845
1180.273307
1183.71342
1187.312518
1191.024404
1194.42317
1197.795959
1201.282041
1204.853734
1208.50738
1212.049415
1215.380134
1218.789449
1222.293262
1226.082936
1229.760317
1233.011663
1236.344266
1239.918196
1243.536465
1247.208177
1250.694819
1254.066489
1257.450714
1260.859565
1264.27002
1268.014376
1271.489557
1274.603253
1277.791678
1281.276307
1284.760317
1288.226294
1291.528787
1294.502388
1297.444493
1300.362202
1303.616003
1306.917098
1309.650515
1312.420104
1315.344064
1318.186286
1320.967493
1323.645098
1326.263014
1328.836623
1331.3168
1333.772298
1336.155023
1338.629454
1341.0453
1343.394348
1345.696023
1347.955413
1350.166025
1352.383184
1354.544378
1356.578618
1358.539844
1360.445878
1362.264959
1364.068121
1365.905028
1367.56485
1369.136485
1370.658382
1372.075534
1373.400844
1374.611331
1375.663497
1376.615655
1377.43592
1378.054346
1378.435511
1378.285678
1377.629749
1374.037587
1369.169788
1365.683278
1363.221786
1360.209683
1356.99108
)


100
(
1117.427452
1121.710409
1125.634259
1129.399838
1132.939674
1136.611128
1140.027852
1143.607417
1147.115088
1150.533315
1154.118507
1157.579115
1160.951032
1164.524588
1168.234988
1171.552822
1175.048936
1178.779264
1182.633673
1185.992394
1189.538593
1193.214465
1196.991913
1200.733866
1204.176338
1207.709383
1211.319229
1215.038131
1218.990443
1222.350584
1225.787936
1229.341133
1233.127355
1236.976538
1240.520467
1243.875026
1247.439222
1251.036329
1254.644233
1258.314291
1261.867451
1265.198157
1268.552994
1271.96957
1275.631868
1279.294925
1282.543976
1285.739553
1289.117135
1292.421483
1295.604667
1299.022364
1302.0064
1304.811836
1307.710522
1310.86225
1313.978414
1316.879972
1319.588018
1322.268297
1324.902845
1327.508619
1330.07522
1332.60011
1335.120345
1337.631853
1340.150707
1342.63154
1345.056546
1347.332378
1349.557034
1351.731398
1353.908083
1356.047836
1358.14116
1360.21486
1362.227087
1364.146988
1365.892386
1367.585798
1369.314989
1370.98041
1372.568804
1374.023003
1375.347534
1376.649597
1377.814753
1378.873271
1379.765883
1380.536996
1381.068954
1381.365895
1381.174525
1380.31838
1376.58797
1371.998607
1368.764129
1366.390327
1363.536435
1360.530567
)


100
(
1117.300573
1121.700775
1125.725491
1129.491963
1133.18468
1136.856078
1140.505698
1144.082793
1147.815814
1151.338859
1154.904676
1158.672506
1162.190545
1165.71331
1169.455959
1173.331853
1176.788129
1180.428287
1184.260528
1188.215375
1191.825008
1195.458148
1199.200189
1203.026081
1206.933334
1210.601646
1214.178249
1217.824346
1221.59416
1225.617445
1229.340781
1232.792321
1236.374876
1240.15033
1243.971001
1247.836781
1251.338829
1254.842716
1258.342305
1261.855976
1265.528631
1269.44674
1272.771884
1276.050643
1279.467911
1283.025938
1286.570371
1290.101015
1293.286846
1296.401995
1299.488818
1302.535625
1305.902219
1309.065249
1311.724905
1314.61896
1317.552922
1320.412226
1323.199517
1325.891289
1328.546752
1331.193286
1333.749094
1336.305726
1338.720159
1341.209528
1343.658811
1346.062664
1348.417316
1350.718086
1352.962467
1355.193251
1357.443138
1359.519157
1361.526047
1363.519479
1365.474025
1367.324221
1369.140244
1370.902011
1372.519131
1374.164754
1375.685053
1377.068885
1378.415293
1379.652494
1380.742488
1381.722247
1382.602583
1383.305954
1383.797199
1383.963859
1383.676942
1382.737269
1378.94641
1374.556884
1371.589065
1369.329488
1366.62291
1363.791197
)


100
(
1117.185606
1121.666898
1125.732446
1129.588339
1133.44177
1137.110352
1140.928606
1144.570638
1148.299533
1152.163323
1155.72618
1159.430319
1163.365625
1166.973198
1170.633176
1174.524527
1178.573085
1182.170033
1185.929361
1189.843869
1193.860241
1197.757231
1201.457247
1205.244094
1209.095711
1213.057734
1217.080318
1220.684229
1224.353539
1228.15953
1232.171593
1236.237437
1239.78541
1243.374366
1247.132873
1250.915702
1254.696739
1258.612987
1262.032667
1265.478326
1268.937307
1272.596889
1276.408282
1280.163145
1283.343225
1286.724887
1290.171134
1293.495289
1296.745958
1300.27956
1303.241531
1306.162819
1309.201523
1312.354861
1315.427286
1318.167622
1320.933561
1323.666022
1326.367057
1329.050283
1331.70251
1334.344828
1336.912389
1339.421368
1341.993849
1344.531293
1347.013959
1349.341673
1351.626484
1353.857876
1356.070154
1358.250763
1360.370892
1362.486183
1364.554059
1366.562295
1368.524713
1370.318707
1372.051953
1373.745019
1375.409145
1377.005314
1378.446392
1379.784075
1381.081012
1382.257462
1383.354951
1384.309696
1385.126629
1385.797063
1386.242724
1386.351776
1386.082373
1384.977549
1381.161146
1376.908649
1374.097153
1371.976801
1369.440422
1366.777684
)


100
(
1117.081906
1121.602642
1125.73463
1129.694084
1133.567486
1137.373998
1141.190386
1145.073693
1148.79914
1152.653943
1156.567917
1160.265361
1164.111333
1168.185321
1171.912884
1175.70431
1179.715791
1183.853782
1187.676793
1191.530821
1195.508651
1199.569682
1203.710877
1207.504898
1211.323845
1215.204301
1219.206299
1223.449026
1227.216847
1230.896235
1234.724825
1238.715379
1242.744972
1246.75857
1250.328448
1254.031726
1257.701451
1261.369471
1265.26365
1269.108067
1272.482327
1275.865773
1279.500841
1283.191532
1286.865453
1290.395149
1293.631508
1296.794714
1299.91433
1303.153201
1306.624697
1309.69639
1312.427675
1315.399094
1318.332237
1321.196238
1324.007831
1326.760967
1329.511796
1332.18861
1334.828426
1337.374848
1339.847079
1342.382703
1344.887362
1347.338367
1349.753476
1352.124751
1354.448715
1356.73869
1359.05629
1361.16339
1363.200764
1365.223483
1367.222766
1369.178479
1371.089283
1372.993417
1374.779576
1376.431848
1378.051896
1379.552836
1380.921182
1382.288086
1383.531374
1384.64782
1385.658976
1386.610896
1387.374706
1388.031952
1388.444571
1388.463529
1388.105053
1387.025675
1383.370334
1379.209211
1376.384244
1374.356157
1371.946225
1369.483532
)


100
(
1116.988796
1121.545974
1125.741964
1129.803137
1133.679777
1137.650297
1141.46261
1145.407805
1149.315124
1153.162944
1157.151152
1161.126718
1164.950718
1168.942034
1173.122924
1176.998805
1180.915775
1185.01776
1189.22848
1193.294732
1197.218917
1201.246571
1205.330682
1209.495399
1213.60747
1217.453219
1221.354125
1225.383937
1229.610923
1233.782139
1237.451203
1241.279932
1245.246133
1249.230104
1253.229195