/*--------------------------------*- C++ -*----------------------------------*\
| =========                 |                                                 |
| \\      /  F ield         | OpenFOAM: The Open Source CFD Toolbox           |
|  \\    /   O peration     | Version:  2.3.1                                 |
|   \\  /    A nd           | Web:      www.OpenFOAM.org                      |
|    \\/     M anipulation  |                                                 |
\*---------------------------------------------------------------------------*/
FoamFile
{
    version     2.0;
    format      ascii;
    class       dictionary;
    location    "constant";
    object      GRPSI7;
}
// * * * * * * * * * * * * * * * * * * * * * * * * * * * * * * * * * * * * * //

GRPSI7_table
100
(

100
(
1.474005218e-05
1.237280872e-05
8.738684246e-06
6.423292064e-06
5.276725566e-06
3.786519873e-06
3.197172257e-06
2.558294752e-06
2.216685923e-06
1.704936993e-06
1.637850684e-06
1.071781072e-06
9.80268483e-07
9.337589602e-07
6.870480952e-07
6.460925492e-07
6.536845975e-07
4.968924345e-07
4.69297498e-07
4.886629329e-07
4.094197235e-07
3.644932157e-07
3.649730243e-07
3.53651814e-07
2.855375935e-07
2.706189483e-07
2.772224698e-07
2.651037651e-07
2.371031315e-07
2.31948693e-07
2.373596174e-07
2.087730351e-07
1.812424545e-07
1.733152848e-07
1.75885959e-07
1.748175099e-07
1.627533318e-07
1.627072236e-07
1.651357173e-07
1.615852113e-07
1.466413037e-07
1.432427209e-07
1.421016628e-07
1.348916969e-07
1.174476961e-07
1.10029909e-07
1.065066093e-07
1.051649866e-07
9.564767113e-08
9.434431633e-08
9.68212926e-08
9.754631254e-08
9.076178142e-08
8.738494819e-08
8.56147312e-08
7.951928493e-08
7.189111988e-08
7.224189462e-08
8.403425854e-08
1.106095629e-07
1.390500173e-07
1.289342326e-07
1.011784308e-07
9.762139453e-08
1.104908079e-07
1.012488937e-07
8.539582678e-08
8.854851885e-08
9.143473514e-08
7.817904266e-08
6.954866039e-08
7.266670862e-08
6.713352871e-08
6.451426664e-08
8.945469942e-08
1.065449595e-07
7.033997714e-08
7.218180761e-08
8.003624658e-08
4.979283066e-08
6.079240042e-08
5.103703741e-08
4.110924494e-08
5.409792233e-08
3.723519697e-08
3.871356264e-08
5.306739173e-08
3.049587961e-08
4.841392112e-08
3.208645138e-08
3.768923701e-08
3.212711284e-08
4.606723526e-08
4.622819633e-08
5.881050672e-08
5.379035217e-08
5.986868648e-08
5.689035602e-08
1.334157966e-08
1.63609498e-09
)


100
(
1.474195755e-05
1.257891957e-05
9.074896358e-06
6.819779173e-06
5.565268862e-06
4.142751194e-06
3.48508581e-06
2.845301593e-06
2.467291455e-06
1.994705632e-06
1.836154846e-06
1.378413735e-06
1.205362765e-06
1.123519312e-06
9.296433934e-07
8.558879112e-07
8.358645453e-07
7.132569463e-07
6.700708443e-07
6.621534733e-07
5.945225815e-07
5.442997574e-07
5.300154614e-07
5.103182844e-07
4.502593775e-07
4.235266054e-07
4.167703693e-07
3.999974116e-07
3.674343739e-07
3.536891935e-07
3.522649756e-07
3.273541932e-07
2.972672537e-07
2.816912077e-07
2.778225885e-07
2.70543851e-07
2.543488711e-07
2.457700986e-07
2.465308624e-07
2.437403786e-07
2.295944706e-07
2.216190802e-07
2.212395905e-07
2.214806284e-07
2.074872614e-07
1.946637989e-07
1.866547423e-07
1.828682859e-07
1.714237272e-07
1.61654424e-07
1.588584691e-07
1.617820915e-07
1.64936772e-07
1.638931154e-07
1.649148653e-07
1.64956139e-07
1.657105821e-07
1.61362641e-07
1.6177375e-07
1.675608842e-07
1.836658762e-07
1.966295089e-07
1.911026177e-07
1.716099958e-07
1.583669659e-07
1.532284989e-07
1.445984809e-07
1.340288048e-07
1.268376338e-07
1.203654418e-07
1.110199741e-07
1.034561128e-07
9.696412273e-08
8.88532229e-08
9.134448196e-08
1.200212773e-07
1.481566045e-07
1.401971952e-07
1.384065318e-07
1.258306533e-07
1.223102014e-07
1.508694752e-07
1.21243763e-07
1.595478751e-07
1.528012565e-07
1.319586725e-07
1.461262265e-07
1.369186454e-07
1.376786334e-07
1.637293578e-07
1.856902996e-07
2.016635992e-07
2.287842565e-07
3.281032172e-07
3.130967866e-07
3.403659207e-07
4.02233086e-07
2.543228576e-07
8.133696773e-08
2.040152203e-08
)


100
(
1.474492589e-05
1.304893064e-05
9.831688911e-06
7.641679877e-06
6.173447417e-06
4.899514291e-06
4.066536988e-06
3.465851721e-06
2.993406443e-06
2.567594946e-06
2.291609944e-06
1.938592823e-06
1.685975736e-06
1.525024224e-06
1.366821718e-06
1.260884679e-06
1.197588176e-06
1.106967135e-06
1.028734288e-06
9.99186911e-07
9.384899577e-07
8.733001197e-07
8.320164771e-07
8.112406013e-07
7.643481031e-07
7.196721797e-07
6.933686935e-07
6.777458688e-07
6.43006207e-07
6.108737611e-07
5.906562086e-07
5.80814978e-07
5.545061392e-07
5.285326817e-07
5.129086657e-07
5.080304972e-07
4.993065521e-07
4.846428699e-07
4.768664192e-07
4.750367365e-07
4.765758232e-07
4.736581539e-07
4.69745786e-07
4.746526e-07
4.80739104e-07
4.927717959e-07
4.900090753e-07
4.898785591e-07
4.856726743e-07
4.898535138e-07
4.788203436e-07
4.749898518e-07
4.683667977e-07
4.630398611e-07
4.458009362e-07
4.305492246e-07
4.157306572e-07
4.036380683e-07
3.763218016e-07
3.392948984e-07
3.073173638e-07
3.028259927e-07
3.075734334e-07
2.937968975e-07
2.64434381e-07
2.471750147e-07
2.344657299e-07
2.169043185e-07
2.106644102e-07
2.279017717e-07
2.502317578e-07
2.783122449e-07
3.271379865e-07
3.751509129e-07
3.449258991e-07
3.622745109e-07
4.967174068e-07
4.501395528e-07
3.814641936e-07
4.976626377e-07
4.856702148e-07
4.569479775e-07
4.908776837e-07
4.661756252e-07
4.626530857e-07
4.977900131e-07
5.44987081e-07
6.310953955e-07
6.734474397e-07
8.201482578e-07
9.525650516e-07
1.022750938e-06
1.203804528e-06
1.248505674e-06
1.476927634e-06
1.750508479e-06
1.911050014e-06
1.011795616e-06
4.068282918e-07
1.465464069e-07
)


100
(
1.47462405e-05
1.355784113e-05
1.07274856e-05
8.439612612e-06
6.893421788e-06
5.65156253e-06
4.718979933e-06
4.064530125e-06
3.576769084e-06
3.111823073e-06
2.820028576e-06
2.457207023e-06
2.158233805e-06
1.961513166e-06
1.766894186e-06
1.622339529e-06
1.546330739e-06
1.460441347e-06
1.361260067e-06
1.298347972e-06
1.263306434e-06
1.198469078e-06
1.137990846e-06
1.105380546e-06
1.100862321e-06
1.075330072e-06
1.051319263e-06
1.036740185e-06
1.033900906e-06
1.012342811e-06
9.856567644e-07
9.702929598e-07
9.646610489e-07
9.68242766e-07
9.446761302e-07
9.356637579e-07
9.375345494e-07
9.65516523e-07
9.645713098e-07
9.757015401e-07
9.892851764e-07
9.945560748e-07
9.93508547e-07
9.677048788e-07
9.543590696e-07
9.483998314e-07
9.595001431e-07
9.296161929e-07
9.067165096e-07
8.887021442e-07
8.741104128e-07
8.361815897e-07
7.97342786e-07
7.663936426e-07
7.323222387e-07
6.897772992e-07
6.493099704e-07
6.326204338e-07
6.120691048e-07
5.763459377e-07
5.189068766e-07
4.74016781e-07
4.694409443e-07
4.992107668e-07
5.305124396e-07
5.611721848e-07
5.900052851e-07
6.063938981e-07
6.178962213e-07
6.388350277e-07
6.600456026e-07
6.826514558e-07
7.571929674e-07
9.415047002e-07
1.117949356e-06
1.050817229e-06
9.56824511e-07
1.031994485e-06
1.051960312e-06
1.049212463e-06
1.051453233e-06
1.066343681e-06
1.293199514e-06
1.443192224e-06
1.532344351e-06
1.637231084e-06
1.680419789e-06
1.896255003e-06
2.247137785e-06
2.916039851e-06
2.903695188e-06
2.992509828e-06
3.525202209e-06
3.764198464e-06
4.51113686e-06
5.397162639e-06
5.368825699e-06
2.690871047e-06
1.276910872e-06
5.694150839e-07
)


100
(
1.474595039e-05
1.393766959e-05
1.153949524e-05
9.251464376e-06
7.729662771e-06
6.373908758e-06
5.478484337e-06
4.662539694e-06
4.189635547e-06
3.680904563e-06
3.300990271e-06
2.994759167e-06
2.637259575e-06
2.392119179e-06
2.202774532e-06
2.008536835e-06
1.888051173e-06
1.831701402e-06
1.758182206e-06
1.666544028e-06
1.621301271e-06
1.606609016e-06
1.572137316e-06
1.525668336e-06
1.524383578e-06
1.571900938e-06
1.62695927e-06
1.646473588e-06
1.658105937e-06
1.665520703e-06
1.685302029e-06
1.662271243e-06
1.656332436e-06
1.651039849e-06
1.676733173e-06
1.630180749e-06
1.595228567e-06
1.56927168e-06
1.616186581e-06
1.588891928e-06
1.564705028e-06
1.538585885e-06
1.528768901e-06
1.481428904e-06
1.408148868e-06
1.33290794e-06
1.307747332e-06
1.280079635e-06
1.209029532e-06
1.138578173e-06
1.101876369e-06
1.064755615e-06
1.021261171e-06
9.818349807e-07
9.609388479e-07
9.418765312e-07
9.246201824e-07
9.400574556e-07
9.97431765e-07
1.076803482e-06
1.145985857e-06
1.183672282e-06
1.203108514e-06
1.231243759e-06
1.257305712e-06
1.276177386e-06
1.300374515e-06
1.3194518e-06
1.31513232e-06
1.299001141e-06
1.318219936e-06
1.386212002e-06
1.484796638e-06
1.593617732e-06
1.746801438e-06
1.875695075e-06
1.784623017e-06
1.845741883e-06
2.016450868e-06
2.205088698e-06
2.548481508e-06
2.835852379e-06
2.941520286e-06
3.164950451e-06
3.525798699e-06
3.975366407e-06
4.172172281e-06
4.50118246e-06
5.80746525e-06
6.125315835e-06
6.154020653e-06
7.335534826e-06
7.86130416e-06
9.264236671e-06
1.070556315e-05
1.251046721e-05
1.042038607e-05
5.70947617e-06
3.059293651e-06
1.613600864e-06
)


100
(
1.47322111e-05
1.422704453e-05
1.221338472e-05
1.015947887e-05
8.49812173e-06
7.17236827e-06
6.194305128e-06
5.372092175e-06
4.744426284e-06
4.318171876e-06
3.817263557e-06
3.506959078e-06
3.197541312e-06
2.878321945e-06
2.676778018e-06
2.511513636e-06
2.341531e-06
2.260933676e-06
2.253489576e-06
2.226617368e-06
2.159651623e-06
2.141694735e-06
2.165363566e-06
2.184887342e-06
2.147631751e-06
2.183138993e-06
2.300926431e-06
2.414661488e-06
2.453338288e-06
2.460142006e-06
2.465612247e-06
2.493654068e-06
2.437494246e-06
2.37480071e-06
2.355587158e-06
2.351040402e-06
2.245097879e-06
2.123755561e-06
2.071702447e-06
2.050311492e-06
1.954314539e-06
1.870127689e-06
1.80298038e-06
1.764650584e-06
1.694791292e-06
1.597856828e-06
1.533379434e-06
1.521154728e-06
1.522622353e-06
1.471095652e-06
1.447357531e-06
1.457936206e-06
1.498543713e-06
1.559692461e-06
1.627966378e-06
1.722564795e-06
1.813103502e-06
1.874154658e-06
1.922549015e-06
1.984872393e-06
2.070328235e-06
2.131683336e-06
2.158332896e-06
2.186802349e-06
2.191137239e-06
2.185451271e-06
2.224451666e-06
2.360575913e-06
2.558492585e-06
2.720740595e-06
2.878096164e-06
2.997435447e-06
3.02846513e-06
2.965378061e-06
2.898587421e-06
3.129237381e-06
3.60892053e-06
3.959218848e-06
4.381265018e-06
4.731426954e-06
4.956767583e-06
5.267011635e-06
5.783196034e-06
6.467746898e-06
7.058196531e-06
7.590109097e-06
8.554975877e-06
9.583119977e-06
1.152087865e-05
1.240811352e-05
1.280733619e-05
1.41839492e-05
1.590013271e-05
1.864279018e-05
2.192253255e-05
2.447177913e-05
1.826133837e-05
1.108270631e-05
6.436071909e-06
3.803711978e-06
)


100
(
1.471163028e-05
1.450649214e-05
1.288210226e-05
1.102467832e-05
9.248825445e-06
8.064497071e-06
6.879871143e-06
6.159500221e-06
5.362279339e-06
4.904746647e-06
4.47851192e-06
4.056127872e-06
3.812837432e-06
3.524269523e-06
3.261875368e-06
3.119469693e-06
3.003713664e-06
2.87555204e-06
2.85959857e-06
2.91362258e-06
2.95493032e-06
2.9086338e-06
2.905968376e-06
2.95220986e-06
3.007058358e-06
2.92737555e-06
2.918951425e-06
3.047294816e-06
3.166641968e-06
3.203026978e-06
3.138789335e-06
3.163041156e-06
3.102175058e-06
2.971080791e-06
2.812224936e-06
2.794094303e-06
2.733940262e-06
2.585239197e-06
2.389233737e-06
2.343312606e-06
2.298770685e-06
2.188903024e-06
2.071309581e-06
2.025116399e-06
2.016115499e-06
1.994445494e-06
1.963969344e-06
1.999095492e-06
2.124530566e-06
2.274732291e-06
2.404609339e-06
2.510777375e-06
2.640875029e-06
2.763381253e-06
2.884507573e-06
2.997998512e-06
3.05218304e-06
3.069998783e-06
3.044117195e-06
2.995308422e-06
2.99404207e-06
3.020427427e-06
3.10655149e-06
3.270216924e-06
3.552608356e-06
3.884535564e-06
4.156101736e-06
4.391648021e-06
4.629484331e-06
4.841153949e-06
5.021724985e-06
5.15290217e-06
5.289390192e-06
5.630332825e-06
6.12485604e-06
6.495547665e-06
6.993223171e-06
7.402204865e-06
7.690871447e-06
7.957472708e-06
8.659148774e-06
9.593791534e-06
1.056782485e-05
1.149671431e-05
1.260394534e-05
1.390464124e-05
1.560911289e-05
1.729115439e-05
1.884508022e-05
2.072646024e-05
2.289070205e-05
2.567861031e-05
2.976101756e-05
3.432713208e-05
4.038352667e-05
4.372236604e-05
3.060774229e-05
2.004513822e-05
1.260013757e-05
7.972499647e-06
)


100
(
1.470444373e-05
1.480273432e-05
1.352710966e-05
1.175396219e-05
1.014105555e-05
8.869561649e-06
7.699733382e-06
6.851663063e-06
6.14742955e-06
5.508638354e-06
5.216144561e-06
4.79515088e-06
4.473760105e-06
4.325145283e-06
4.081446695e-06
3.89049353e-06
3.81865716e-06
3.748167494e-06
3.695980061e-06
3.712222168e-06
3.814772752e-06
3.914473596e-06
3.847555162e-06
3.801557266e-06
3.811989282e-06
3.802814487e-06
3.637416213e-06
3.542797438e-06
3.636326272e-06
3.719983282e-06
3.710086732e-06
3.595978743e-06
3.609447327e-06
3.479985379e-06
3.270332561e-06
3.094159049e-06
3.066467453e-06
2.997227699e-06
2.804172257e-06
2.681080215e-06
2.679582967e-06
2.712321762e-06
2.662587319e-06
2.662592473e-06
2.731137254e-06
2.879584154e-06
3.029190051e-06
3.1828008e-06
3.36799642e-06
3.629494699e-06
3.836151198e-06
4.008247867e-06
4.090992299e-06
4.114581929e-06
4.138164264e-06
4.15341441e-06
4.171088977e-06
4.254021697e-06
4.321778457e-06
4.395479961e-06
4.541821707e-06
4.824019868e-06
5.215025552e-06
5.584356098e-06
5.971116667e-06
6.361395293e-06
6.638998766e-06
6.802755731e-06
6.948964879e-06
7.184899657e-06
7.661920645e-06
8.447410048e-06
9.279295646e-06
9.940307258e-06
1.055578407e-05
1.09713441e-05
1.121369585e-05
1.1693645e-05
1.265099857e-05
1.390518647e-05
1.524311534e-05
1.637996362e-05
1.737306226e-05
1.917587635e-05
2.128123146e-05
2.381112563e-05
2.581465225e-05
2.925823719e-05
3.007449627e-05
3.218801337e-05
3.705667978e-05
4.248719856e-05
4.909871609e-05
5.702804314e-05
6.438764091e-05
6.845356677e-05
4.709982161e-05
3.308290081e-05
2.229380661e-05
1.519338847e-05
)


100
(
1.470367456e-05
1.510759978e-05
1.407132514e-05
1.248324106e-05
1.110176347e-05
9.598243436e-06
8.641736256e-06
7.570264762e-06
7.017748589e-06
6.333597635e-06
5.916016659e-06
5.750014842e-06
5.364774315e-06
5.165029931e-06
5.139490588e-06
4.95005015e-06
4.83227615e-06
4.838359455e-06
4.856621615e-06
4.765616255e-06
4.742360338e-06
4.823767462e-06
4.932739733e-06
4.791466544e-06
4.637063735e-06
4.580761149e-06
4.463663511e-06
4.22709333e-06
4.032107393e-06
4.057902655e-06
4.090514786e-06
3.973957206e-06
3.948039505e-06
3.959757588e-06
3.825450829e-06
3.562241193e-06
3.471473616e-06
3.50376152e-06
3.508274003e-06
3.417291132e-06
3.457826828e-06
3.644518658e-06
3.909788284e-06
4.111913341e-06
4.282018492e-06
4.499475522e-06
4.713056821e-06
4.9007778e-06
5.06185322e-06
5.123312464e-06
5.216331541e-06
5.307538554e-06
5.34410433e-06
5.3852834e-06
5.456632557e-06
5.51693587e-06
5.748019787e-06
6.104409017e-06
6.598686864e-06
7.176595986e-06
7.65127026e-06
8.044814109e-06
8.402141185e-06
8.675357643e-06
8.850314959e-06
9.037286928e-06
9.331117026e-06
9.830951736e-06
1.062360023e-05
1.165778802e-05
1.267688119e-05
1.365312253e-05
1.449593948e-05
1.497003598e-05
1.544529867e-05
1.629210583e-05
1.76845903e-05
1.941470007e-05
2.110451042e-05
2.258974877e-05
2.392198021e-05
2.596356562e-05
2.83800282e-05
3.113512918e-05
3.376927105e-05
3.692106471e-05
4.080550315e-05
4.390066532e-05
4.68510994e-05
5.192643919e-05
5.85868882e-05
6.670460944e-05
7.477133744e-05
8.707177093e-05
9.672721159e-05
9.64741033e-05
6.674305342e-05
4.957046102e-05
3.50718042e-05
2.540856182e-05
)


100
(
1.470067112e-05
1.53292756e-05
1.456017854e-05
1.330533749e-05
1.190536765e-05
1.047773612e-05
9.507296045e-06
8.541254075e-06
7.824165179e-06
7.37926119e-06
6.802807337e-06
6.64075056e-06
6.562691125e-06
6.260140182e-06
6.185772058e-06
6.286571167e-06
6.136060796e-06
6.05450614e-06
6.028812444e-06
6.069317822e-06
5.891884892e-06
5.752598711e-06
5.7609942e-06
5.782388102e-06
5.627021641e-06
5.39113537e-06
5.240633705e-06
5.038510511e-06
4.764363765e-06
4.501981406e-06
4.471351258e-06
4.461216553e-06
4.345911846e-06
4.424226213e-06
4.528586201e-06
4.446304137e-06
4.363385486e-06
4.433049808e-06
4.682466604e-06
4.889169947e-06
5.096450427e-06
5.337590532e-06
5.710840572e-06
6.050735826e-06
6.40234935e-06
6.568854544e-06
6.636216672e-06
6.689025118e-06
6.700069276e-06
6.688404161e-06
6.759582622e-06
6.790773237e-06
6.953895419e-06
7.238503303e-06
7.618857529e-06
8.134378122e-06
8.835845566e-06
9.418801149e-06
1.012339205e-05
1.080871024e-05
1.132968508e-05
1.168142526e-05
1.187189171e-05
1.208178686e-05
1.251923292e-05
1.325707953e-05
1.437124813e-05
1.56496332e-05
1.685327578e-05
1.798225019e-05
1.884388702e-05
1.953571337e-05
2.02761892e-05
2.157551927e-05
2.351291154e-05
2.587511379e-05
2.80096357e-05
2.99243009e-05
3.174204835e-05
3.414308494e-05
3.731859033e-05
4.097401879e-05
4.424444935e-05
4.658920421e-05
5.153715762e-05
5.523950074e-05
6.09659705e-05
6.414984233e-05
7.111338094e-05
7.89799153e-05
8.812185798e-05
9.878719078e-05
0.0001122188556
0.0001288671871
0.0001424475839
0.0001265537778
8.79597351e-05
6.836736521e-05
5.06737008e-05
3.869643378e-05
)


100
(
1.432924222e-05
1.5494322e-05
1.50689319e-05
1.411557504e-05
1.260172963e-05
1.150735063e-05
1.030390934e-05
9.675258295e-06
8.773514955e-06
8.413106546e-06
8.044555756e-06
7.649869209e-06
7.73315141e-06
7.734697226e-06
7.476508986e-06
7.487923174e-06
7.657779158e-06
7.45048072e-06
7.238483622e-06
7.172719509e-06
7.191918116e-06
6.906828811e-06
6.613668875e-06
6.552425677e-06
6.496927939e-06
6.374923353e-06
6.106242106e-06
5.877220084e-06
5.663649612e-06
5.388435126e-06
5.272385142e-06
5.222120476e-06
5.006711627e-06
5.235763994e-06
5.508067235e-06
5.890833677e-06
6.065024871e-06
6.283048524e-06
6.558717901e-06
6.937113146e-06
7.301917799e-06
7.568950815e-06
7.739621362e-06
7.980698583e-06
8.213220333e-06
8.39592098e-06
8.55513304e-06
8.565352414e-06
8.531199905e-06
8.687907424e-06
8.895551942e-06
9.27601701e-06
9.917855118e-06
1.060826884e-05
1.136700325e-05
1.2246587e-05
1.296592336e-05
1.363807818e-05
1.416148659e-05
1.442186258e-05
1.484837548e-05
1.551523293e-05
1.638454763e-05
1.75846652e-05
1.898869617e-05
2.040553918e-05
2.180492609e-05
2.299244507e-05
2.390778201e-05
2.440434243e-05
2.547028284e-05
2.714960305e-05
2.968255235e-05
3.249607774e-05
3.509069444e-05
3.775396854e-05
4.049214563e-05
4.350305708e-05
4.743586512e-05
5.176849291e-05
5.572686663e-05
5.946369915e-05
6.445745851e-05
6.941716635e-05
7.559983803e-05
8.092682981e-05
8.909109627e-05
9.610602654e-05
0.000105029642
0.0001169460407
0.000129376851
0.0001435768423
0.0001640505099
0.0001839697046
0.0002014771572
0.0001584730698
0.0001124459628
9.071805395e-05
6.924989683e-05
5.845622617e-05
)


100
(
1.353814516e-05
1.557784839e-05
1.55685405e-05
1.467759848e-05
1.343959164e-05
1.246668953e-05
1.129577328e-05
1.064166443e-05
1.005021195e-05
9.470047119e-06
9.413268181e-06
9.084425021e-06
8.898178651e-06
9.137436046e-06
9.160324597e-06
8.853981462e-06
8.85189899e-06
8.994563878e-06
8.700722289e-06
8.318368152e-06
8.157728001e-06
8.062000907e-06
7.769812714e-06
7.413865119e-06
7.248317558e-06
7.16520324e-06
7.133372484e-06
6.92760786e-06
6.70221287e-06
6.599501407e-06
6.473635012e-06
6.581778959e-06
6.748494027e-06
6.846331654e-06
7.235200999e-06
7.801557222e-06
8.333513558e-06
8.838128988e-06
9.04750333e-06
9.262544364e-06
9.472689912e-06
9.676382892e-06
9.873581059e-06
9.905850661e-06
9.881669126e-06
1.004147131e-05
1.030051941e-05
1.064512191e-05
1.118192589e-05
1.174618419e-05
1.238017312e-05
1.323346605e-05
1.412968363e-05
1.505733277e-05
1.61151353e-05
1.665942206e-05
1.702155919e-05
1.755395425e-05
1.810324332e-05
1.891264792e-05
2.020465362e-05
2.15942647e-05
2.336549968e-05
2.526679079e-05
2.708406168e-05
2.865840203e-05
2.935912702e-05
3.017713976e-05
3.136996256e-05
3.316392637e-05
3.5820513e-05
3.875320046e-05
4.208115959e-05
4.538849758e-05
4.827018019e-05
5.136764669e-05
5.643090012e-05
6.257752327e-05
6.761707833e-05
7.176338316e-05
7.660123369e-05
8.31631034e-05
9.080601027e-05
9.821931314e-05
0.0001043738183
0.0001151668514
0.0001240956494
0.0001338444555
0.0001489284028
0.0001662854177
0.000184225034
0.0002022052117
0.0002259070368
0.0002507490781
0.0002674017991
0.0001945129943
0.0001490296966
0.0001199588299
9.320794926e-05
7.668694734e-05
)


100
(
1.311517755e-05
1.560035205e-05
1.594755935e-05
1.515816242e-05
1.438472171e-05
1.323968204e-05
1.248065083e-05
1.156623081e-05
1.141556986e-05
1.084896556e-05
1.061036218e-05
1.077519389e-05
1.041987532e-05
1.034962444e-05
1.065818885e-05
1.060398326e-05
1.016080171e-05
1.007590051e-05
1.013971929e-05
9.78961778e-06
9.223663146e-06
8.991142047e-06
8.830254321e-06
8.601640686e-06
8.245000447e-06
8.026915784e-06
8.010237237e-06
8.083791434e-06
8.179713387e-06
8.139981243e-06
8.163349827e-06
8.370325594e-06
8.940342874e-06
9.347804254e-06
9.708675615e-06
1.007702615e-05
1.059222997e-05
1.104009207e-05
1.153774213e-05
1.179253459e-05
1.172057422e-05
1.169664703e-05
1.177599962e-05
1.187145361e-05
1.214859638e-05
1.239312278e-05
1.280446488e-05
1.360324699e-05
1.466524561e-05
1.577207237e-05
1.707781574e-05
1.802959396e-05
1.868805152e-05
1.931508783e-05
1.996389614e-05
2.061658008e-05
2.158632821e-05
2.223442101e-05
2.353415309e-05
2.546065125e-05
2.746580131e-05
2.977626844e-05
3.186946646e-05
3.319396632e-05
3.436075173e-05
3.575470976e-05
3.749197791e-05
3.972834346e-05
4.258843876e-05
4.624140858e-05
4.987656837e-05
5.32815824e-05
5.615981851e-05
5.963846101e-05
6.437789447e-05
7.029503271e-05
7.631385354e-05
8.256822243e-05
8.846448766e-05
9.434084578e-05
0.0001031692537
0.0001127113845
0.000120217634
0.0001296321319
0.0001412300098
0.000153538391
0.0001613744999
0.0001778996401
0.0002002029583
0.0002187442842
0.0002425982387
0.0002672061529
0.0003002758404
0.0003293836016
0.0003324250797
0.000243261846
0.0001996305884
0.0001624194496
0.0001285931382
0.0001219475807
)


100
(
1.311183409e-05
1.560807627e-05
1.618973967e-05
1.579729757e-05
1.518711841e-05
1.410103855e-05
1.357171258e-05
1.282216331e-05
1.249187618e-05
1.250712711e-05
1.200496453e-05
1.206306935e-05
1.224758306e-05
1.187983247e-05
1.181512113e-05
1.210767562e-05
1.193742043e-05
1.13391587e-05
1.11481264e-05
1.111897218e-05
1.078193946e-05
1.017113779e-05
9.849425815e-06
9.69499875e-06
9.657536717e-06
9.385107798e-06
9.219673287e-06
9.383508859e-06
9.703444955e-06
1.019064382e-05
1.05115573e-05
1.073965506e-05
1.113591758e-05
1.17023106e-05
1.221367593e-05
1.275270464e-05
1.297709204e-05
1.314024764e-05
1.347671774e-05
1.380330941e-05
1.410973439e-05
1.416118307e-05
1.40849054e-05
1.444033521e-05
1.501009665e-05
1.582166359e-05
1.697042297e-05
1.810103146e-05
1.914069978e-05
2.034053931e-05
2.138565454e-05
2.243272896e-05
2.341063662e-05
2.371680555e-05
2.398221625e-05
2.52529389e-05
2.692246616e-05
2.90770595e-05
3.169074466e-05
3.369685633e-05
3.55252818e-05
3.729421726e-05
3.92767488e-05
4.123049885e-05
4.230585823e-05
4.44355225e-05
4.807580516e-05
5.246879663e-05
5.713595938e-05
6.110460934e-05
6.452527511e-05
6.85246683e-05
7.332602433e-05
7.886623501e-05
8.533616263e-05
9.219567843e-05
9.789173205e-05
0.0001038523386
0.0001126068008
0.0001239419394
0.0001343952132
0.0001435222177
0.000153290763
0.0001676338989
0.0001824427632
0.0001932509947
0.0002071266566
0.0002284620527
0.0002485423485
0.0002723169765
0.000299032933
0.0003311073796
0.0003764758027
0.0004133503401
0.0004035746766
0.0003116804103
0.0002619374708
0.0002181638993
0.0001763900874
0.0001634462982
)


100
(
1.310689859e-05
1.557970976e-05
1.642863351e-05
1.644166716e-05
1.573830249e-05
1.516469138e-05
1.445372923e-05
1.429195719e-05
1.367064516e-05
1.386449953e-05
1.387305791e-05
1.343868436e-05
1.369741904e-05
1.383435064e-05
1.335422604e-05
1.321710957e-05
1.343130567e-05
1.318870941e-05
1.246828124e-05
1.217312242e-05
1.210492016e-05
1.189868697e-05
1.13284006e-05
1.099553653e-05
1.095941725e-05
1.109848686e-05
1.122245592e-05
1.132326494e-05
1.164013472e-05
1.225908252e-05
1.298285538e-05
1.380062489e-05
1.408435329e-05
1.424002819e-05
1.462518871e-05
1.506228355e-05
1.557422641e-05
1.574699706e-05
1.564292735e-05
1.576989188e-05
1.624034899e-05
1.683147003e-05
1.765293047e-05
1.837320229e-05
1.926030124e-05
2.050829176e-05
2.182771856e-05
2.30937944e-05
2.470207952e-05
2.547046385e-05
2.593569043e-05
2.667106729e-05
2.772774965e-05
2.904149641e-05
3.077601314e-05
3.24958559e-05
3.468420675e-05
3.755029743e-05
3.991882908e-05
4.266622036e-05
4.438320639e-05
4.513674232e-05
4.674570755e-05
4.947547009e-05
5.315915534e-05
5.769804612e-05
6.229752916e-05
6.695007817e-05
7.165583352e-05
7.624412051e-05
8.05148499e-05
8.569021829e-05
9.351090782e-05
0.0001020001721
0.0001092389742
0.0001156756436
0.0001235453796
0.0001326584857
0.0001436614246
0.0001561110075
0.0001664848703
0.0001779251699
0.0001955047094
0.0002112741039
0.0002241513313
0.0002408084423
0.0002645765864
0.0002877986351
0.0003112009883
0.0003349124183
0.0003694600686
0.0004032843839
0.0004517835375
0.0004960499845
0.0004777187595
0.0003924381051
0.0003335879517
0.0002825299904
0.0002326360856
0.0001975811075
)


100
(
1.226972046e-05
1.547489004e-05
1.666587958e-05
1.687472308e-05
1.633204514e-05
1.617074663e-05
1.548013841e-05
1.547218496e-05
1.534981892e-05
1.511349963e-05
1.563595929e-05
1.553723991e-05
1.517870755e-05
1.544197906e-05
1.545434274e-05
1.48122974e-05
1.456339496e-05
1.469933711e-05
1.445814765e-05
1.370232082e-05
1.333517343e-05
1.331608716e-05
1.34073346e-05
1.299824978e-05
1.273607909e-05
1.298734794e-05
1.343628442e-05
1.415068843e-05
1.45203099e-05
1.490769706e-05
1.560105381e-05
1.635957776e-05
1.721084551e-05
1.762560562e-05
1.755900817e-05
1.74487258e-05
1.775285957e-05
1.815248574e-05
1.874009742e-05
1.89643764e-05
1.931888718e-05
2.02923621e-05
2.168999119e-05
2.320744078e-05
2.501075883e-05
2.642106379e-05
2.743167678e-05
2.849440527e-05
2.95387544e-05
3.070322327e-05
3.208312128e-05
3.262757352e-05
3.374595769e-05
3.624407941e-05
3.919975198e-05
4.190805985e-05
4.522525865e-05
4.728667291e-05
4.888616991e-05
5.108289366e-05
5.342230239e-05
5.626112344e-05
5.80267499e-05
6.155543523e-05
6.72263161e-05
7.303988669e-05
7.856019785e-05
8.315216879e-05
8.779682614e-05
9.381048065e-05
0.0001014313212
0.0001103671327
0.0001185391433
0.0001267627109
0.0001347747354
0.0001432631133
0.0001544652758
0.0001677989009
0.0001803701061
0.0001926464479
0.0002065864063
0.000223169648
0.0002415361474
0.0002564918499
0.0002750044797
0.0003057242418
0.0003341067512
0.0003585110121
0.0003906832792
0.0004208584989
0.0004614868878
0.0005352571328
0.0005648474519
0.0006141704687
0.0005598220581
0.0004765319354
0.0004115950788
0.0003535247857
0.0002961105512
0.0002757094043
)


100
(
1.086978079e-05
1.520969113e-05
1.682777688e-05
1.711578686e-05
1.707560543e-05
1.6824427e-05
1.676722444e-05
1.648959584e-05
1.708907594e-05
1.69126434e-05
1.704165364e-05
1.77523198e-05
1.73759485e-05
1.696107139e-05
1.718575463e-05
1.707573718e-05
1.629969278e-05
1.595565555e-05
1.60347224e-05
1.59324858e-05
1.524291751e-05
1.488146467e-05
1.504478821e-05
1.538803358e-05
1.556599754e-05
1.566187076e-05
1.611559596e-05
1.686512542e-05
1.772638527e-05
1.858861669e-05
1.896898462e-05
1.923014421e-05
1.981958778e-05
2.047168189e-05
2.110606273e-05
2.089049476e-05
2.055787722e-05
2.091948459e-05
2.172495659e-05
2.285972731e-05
2.445447395e-05
2.575097496e-05
2.706487626e-05
2.876794543e-05
3.036350359e-05
3.222325417e-05
3.435503907e-05
3.499106021e-05
3.512696295e-05
3.649705837e-05
3.83743674e-05
4.089526345e-05
4.400287405e-05
4.67331289e-05
4.942862894e-05
5.243679097e-05
5.53919496e-05
5.869956973e-05
6.040755716e-05
6.114637426e-05
6.440228412e-05
6.907987173e-05
7.431318837e-05
8.011707417e-05
8.583232682e-05
9.086633931e-05
9.652471716e-05
0.0001027532764
0.0001089219489
0.0001166642195
0.0001273222319
0.0001383719138
0.0001469875429
0.0001553630818
0.0001664953355
0.0001811679508
0.0001946785139
0.0002079942787
0.000220910367
0.0002362448671
0.0002573143007
0.000279855473
0.0002951157843
0.0003119771945
0.0003411589708
0.0003750658497
0.0004074076979
0.0004414223105
0.0004796909155
0.0005249727479
0.0005720145323
0.0006448480409
0.0007033491531
0.0007559350362
0.0006818222107
0.0005649957766
0.0004925305757
0.0004292460758
0.0003658685942
0.0003482431605
)


100
(
1.030182046e-05
1.483815722e-05
1.682194634e-05
1.739132287e-05
1.776854753e-05
1.744278187e-05
1.791313479e-05
1.78830361e-05
1.830486973e-05
1.90618684e-05
1.882712443e-05
1.91637639e-05
1.984489075e-05
1.92091715e-05
1.86982819e-05
1.886465052e-05
1.873484067e-05
1.789489081e-05
1.748247163e-05
1.761488554e-05
1.783606898e-05
1.736482985e-05
1.70929392e-05
1.763244047e-05
1.839657437e-05
1.938465726e-05
1.979829739e-05
2.013306896e-05
2.096569751e-05
2.17925525e-05
2.298022533e-05
2.316679713e-05
2.301187474e-05
2.312202751e-05
2.371343475e-05
2.43870687e-05
2.506246473e-05
2.518239139e-05
2.589966459e-05
2.756807681e-05
2.966597822e-05
3.175961219e-05
3.436011484e-05
3.565500525e-05
3.662394078e-05
3.775970282e-05
3.956929995e-05
4.158374124e-05
4.375168127e-05
4.478126378e-05
4.710100757e-05
5.109492302e-05
5.467563014e-05
5.873785161e-05
6.261027051e-05
6.489663965e-05
6.60978073e-05
6.932570007e-05
7.292058472e-05
7.707892642e-05
8.089541631e-05
8.618855789e-05
9.365944062e-05
0.0001005964788
0.0001069105568
0.000112402868
0.0001186239798
0.0001267848034
0.0001372607304
0.0001488872049
0.0001592742214
0.0001687225395
0.0001793750946
0.0001909310184
0.0002060860161
0.0002244046155
0.0002411669483
0.00025603614
0.0002742647599
0.000294210942
0.0003171002032
0.0003388767697
0.0003591979401
0.0003899733153
0.0004243031852
0.000454267409
0.0004966338597
0.0005480422904
0.000602757541
0.0006449778279
0.0007160216642
0.0007593239296
0.0008473010116
0.0009208219679
0.0008178934257
0.0006651641649
0.000581387921
0.0005111968951
0.0004428669668
0.0004206419872
)


100
(
1.029688577e-05
1.445465062e-05
1.67045002e-05
1.770110261e-05
1.810703032e-05
1.830336869e-05
1.863349202e-05
1.948222262e-05
1.955360228e-05
2.051560747e-05
2.117433615e-05
2.080906853e-05
2.129241384e-05
2.182275089e-05
2.100793281e-05
2.04068302e-05
2.055098816e-05
2.052646276e-05
1.977403554e-05
1.937588099e-05
1.965832468e-05
2.020480917e-05
2.043025722e-05
2.061179041e-05
2.135897954e-05
2.248148289e-05