/*--------------------------------*- C++ -*----------------------------------*\
| =========                 |                                                 |
| \\      /  F ield         | OpenFOAM: The Open Source CFD Toolbox           |
|  \\    /   O peration     | Version:  2.3.1                                 |
|   \\  /    A nd           | Web:      www.OpenFOAM.org                      |
|    \\/     M anipulation  |                                                 |
\*---------------------------------------------------------------------------*/
FoamFile
{
    version     2.0;
    format      ascii;
    class       dictionary;
    location    "constant";
    object      GRPSI44;
}
// * * * * * * * * * * * * * * * * * * * * * * * * * * * * * * * * * * * * * //

GRPSI44_table
100
(

100
(
0.000646435628
0.000451411287
0.0001702126186
4.838105756e-05
-1.684452448e-05
-5.403596757e-05
-7.128951264e-05
-8.229652637e-05
-8.76591277e-05
-8.947967587e-05
-8.826737001e-05
-8.695204423e-05
-8.307476872e-05
-8.116091496e-05
-7.899613467e-05
-7.5516214e-05
-7.317762823e-05
-7.11336467e-05
-6.866749156e-05
-6.646011874e-05
-6.449512605e-05
-6.276733967e-05
-6.082282662e-05
-5.811060052e-05
-5.579434496e-05
-5.440163305e-05
-5.289507112e-05
-5.119305886e-05
-4.97487373e-05
-4.862988335e-05
-4.695867088e-05
-4.49788566e-05
-4.364662517e-05
-4.270332052e-05
-4.183862925e-05
-4.109316932e-05
-4.029542883e-05
-3.939480484e-05
-3.846250313e-05
-3.745803992e-05
-3.651937731e-05
-3.569712741e-05
-3.475208291e-05
-3.354066907e-05
-3.251882346e-05
-3.183336053e-05
-3.118952788e-05
-3.061948055e-05
-3.006947369e-05
-2.950261172e-05
-2.888715861e-05
-2.79897805e-05
-2.71814781e-05
-2.668181815e-05
-2.590938574e-05
-2.477909722e-05
-2.391163323e-05
-2.336009352e-05
-2.273315824e-05
-2.207207706e-05
-2.145764526e-05
-2.087700431e-05
-2.043785476e-05
-2.015024843e-05
-1.971488867e-05
-1.912412142e-05
-1.885150972e-05
-1.866685417e-05
-1.814569931e-05
-1.768774452e-05
-1.754436219e-05
-1.721872338e-05
-1.664144208e-05
-1.652082716e-05
-1.630431416e-05
-1.571319108e-05
-1.564760908e-05
-1.541404233e-05
-1.499049286e-05
-1.494422385e-05
-1.448918423e-05
-1.447396207e-05
-1.435226263e-05
-1.422510168e-05
-1.419064102e-05
-1.42434714e-05
-1.442381746e-05
-1.454684647e-05
-1.516516561e-05
-1.550332208e-05
-1.593683522e-05
-1.657832259e-05
-1.73854341e-05
-1.810396338e-05
-1.845525454e-05
-1.851539519e-05
-1.81838324e-05
-1.732471698e-05
-1.460365622e-05
-1.243284121e-05
)


100
(
0.0006728897119
0.0004780932572
0.0001959821744
6.910478445e-05
5.204314984e-07
-4.019911147e-05
-6.173590028e-05
-7.444108858e-05
-8.177641519e-05
-8.594583268e-05
-8.520964014e-05
-8.438474586e-05
-8.152668534e-05
-7.815387171e-05
-7.705194002e-05
-7.476176669e-05
-7.037756178e-05
-6.921483165e-05
-6.869550891e-05
-6.486490021e-05
-6.282973584e-05
-6.264505057e-05
-6.082984099e-05
-5.722084291e-05
-5.571633934e-05
-5.49953078e-05
-5.242944218e-05
-4.951087531e-05
-4.916303125e-05
-4.936711279e-05
-4.708906567e-05
-4.466683501e-05
-4.374042792e-05
-4.310404149e-05
-4.135704506e-05
-3.959707878e-05
-3.879594584e-05
-3.929698645e-05
-3.86835683e-05
-3.688137635e-05
-3.55425443e-05
-3.5545511e-05
-3.518048533e-05
-3.369080203e-05
-3.232936913e-05
-3.189465472e-05
-3.150588855e-05
-3.032577969e-05
-2.915750917e-05
-2.868630993e-05
-2.894708604e-05
-2.841762356e-05
-2.727706173e-05
-2.658724072e-05
-2.638029273e-05
-2.578185982e-05
-2.464001693e-05
-2.318919715e-05
-1.987685537e-05
-1.404227265e-05
-1.657070897e-05
-2.607873311e-05
-2.366323744e-05
-1.369263096e-05
-1.488660368e-05
-2.326886132e-05
-1.930881447e-05
-1.126640221e-05
-1.587550444e-05
-2.094783885e-05
-1.458902986e-05
-1.091599928e-05
-1.764493317e-05
-1.020830552e-05
9.528306253e-07
-1.838042408e-05
-1.903794225e-05
-3.246577994e-07
-1.864037819e-05
-1.371590726e-05
-3.733677085e-06
-1.648420571e-05
6.258467746e-07
-9.604515191e-06
-1.217442891e-05
3.972091783e-06
-8.437148851e-06
2.217978908e-06
1.861653139e-06
7.078689487e-09
1.072711669e-05
1.747691972e-05
2.071604768e-05
2.496233672e-05
2.654998626e-05
2.571232518e-05
1.812541676e-05
-0.0001139297278
-0.0001965550711
-0.0001635439557
)


100
(
0.0006945121926
0.0005015673784
0.0002212946371
9.12886767e-05
1.880583798e-05
-2.574896929e-05
-5.020595271e-05
-6.564860176e-05
-7.418913828e-05
-8.022156057e-05
-8.187611801e-05
-8.064281922e-05
-7.978069385e-05
-7.587972993e-05
-7.332622103e-05
-7.306651654e-05
-7.03580621e-05
-6.608333413e-05
-6.602052557e-05
-6.600131628e-05
-6.21979641e-05
-6.016503325e-05
-6.032319154e-05
-5.891710836e-05
-5.544701352e-05
-5.372070759e-05
-5.30930776e-05
-5.111740282e-05
-4.847478833e-05
-4.713231402e-05
-4.732978396e-05
-4.631642456e-05
-4.401741191e-05
-4.235200776e-05
-4.170978319e-05
-4.071467536e-05
-3.900927001e-05
-3.743416859e-05
-3.693070778e-05
-3.727793003e-05
-3.639983676e-05
-3.480473795e-05
-3.336686973e-05
-3.337388948e-05
-3.335819654e-05
-3.206420228e-05
-3.087886717e-05
-3.018905224e-05
-2.992601499e-05
-2.907405431e-05
-2.771548289e-05
-2.566357753e-05
-2.543056299e-05
-2.585922176e-05
-2.484769801e-05
-2.234990919e-05
-2.218743122e-05
-2.312939321e-05
-2.108168153e-05
-1.511807377e-05
-9.193521595e-06
-1.248657099e-05
-2.059530043e-05
-2.328636644e-05
-1.756993575e-05
-1.420552436e-05
-1.678607256e-05
-1.796730538e-05
-1.571960003e-05
-1.459754924e-05
-1.600071099e-05
-1.539778219e-05
-1.389962977e-05
-1.093419869e-05
2.151611925e-06
1.868954728e-05
3.324361882e-06
-1.705469952e-05
-4.768077138e-06
-2.534864178e-06
1.069876926e-06
2.392468844e-06
1.114221411e-05
1.499754923e-05
2.092009924e-06
1.443810922e-05
1.79307755e-05
1.841554768e-05
3.051484319e-05
3.74636404e-05
3.891746651e-05
4.827184821e-05
6.240436873e-05
6.538099196e-05
7.101065736e-05
8.526799292e-05
-4.857344548e-05
-0.0002589347705
-0.00029739822
-0.0002655589785
)


100
(
0.000711517102
0.0005218711514
0.0002463869872
0.0001140056728
3.750527232e-05
-1.016466645e-05
-3.727534858e-05
-5.540186974e-05
-6.704531349e-05
-7.333639231e-05
-7.763700897e-05
-7.660347693e-05
-7.615739155e-05
-7.551266706e-05
-7.093360257e-05
-6.932142629e-05
-6.94366877e-05
-6.677368088e-05
-6.28836175e-05
-6.325424249e-05
-6.373459961e-05
-6.036977771e-05
-5.782177048e-05
-5.789542943e-05
-5.730389972e-05
-5.422543589e-05
-5.185194058e-05
-5.115607278e-05
-5.007409173e-05
-4.771654006e-05
-4.552012355e-05
-4.519874951e-05
-4.518097566e-05
-4.329832472e-05
-4.134179903e-05
-3.99833898e-05
-3.930463006e-05
-3.821921121e-05
-3.672538317e-05
-3.507003621e-05
-3.402568248e-05
-3.419746203e-05
-3.343301293e-05
-3.171392496e-05
-2.902234219e-05
-2.897752072e-05
-2.996898684e-05
-2.870868961e-05
-2.526316433e-05
-2.489474876e-05
-2.65892314e-05
-2.535005797e-05
-2.270408913e-05
-2.244505533e-05
-2.470035032e-05
-2.389226931e-05
-1.953093911e-05
-1.868407854e-05
-2.222798561e-05
-2.101853938e-05
-1.628485379e-05
-1.325727525e-05
-1.479858111e-05
-1.84203689e-05
-2.030400607e-05
-1.856919065e-05
-1.605618061e-05
-1.439409542e-05
-9.101703659e-06
-3.767830631e-06
-1.275431525e-06
1.242520122e-06
4.240132415e-06
4.027631264e-06
3.379866237e-06
1.240604959e-05
9.774403258e-06
8.519868944e-07
1.817360611e-05
1.815859702e-05
5.956239903e-06
2.250081838e-05
2.080999475e-05
1.479998386e-05
2.802865036e-05
3.556175269e-05
3.889298213e-05
4.015472224e-05
4.345144275e-05
5.263028445e-05
6.169529326e-05
6.203192264e-05
7.583736198e-05
9.484972072e-05
0.0001038270741
0.0001204612435
-0.0001042610274
-0.0003517904081
-0.0003488740351
-0.0003338061649
)


100
(
0.0007252568455
0.0005404716702
0.0002695676821
0.0001355382124
5.668585353e-05
6.19485302e-06
-2.468339668e-05
-4.399062653e-05
-5.811665213e-05
-6.57743443e-05
-7.14735891e-05
-7.468409774e-05
-7.232808638e-05
-7.214029603e-05
-7.118135938e-05
-6.696653425e-05
-6.586093403e-05
-6.621693313e-05
-6.398833871e-05
-6.070166127e-05
-6.071472467e-05
-6.128518067e-05
-5.879371899e-05
-5.586664788e-05
-5.54589657e-05
-5.544122161e-05
-5.304372708e-05
-5.041256007e-05
-4.904390303e-05
-4.832371743e-05
-4.662925931e-05
-4.466381319e-05
-4.253067514e-05
-4.245322057e-05
-4.22434096e-05
-4.014523134e-05
-3.680360296e-05
-3.570117468e-05
-3.601083992e-05
-3.422281812e-05
-3.241121773e-05
-3.026220902e-05
-3.099432502e-05
-3.182308448e-05
-2.93744982e-05
-2.430940009e-05
-2.551935792e-05
-2.915991689e-05
-2.634960891e-05
-2.197076871e-05
-2.249017581e-05
-2.542218603e-05
-2.360202516e-05
-2.076264899e-05
-2.132145496e-05
-2.349641793e-05
-2.036618929e-05
-1.65445815e-05
-1.712685337e-05
-1.92550495e-05
-1.911938538e-05
-1.586103682e-05
-1.13005583e-05
-8.162759293e-06
-6.732738159e-06
-4.9583917e-06
-1.926637228e-06
-7.797493336e-07
-9.722294321e-07
5.27776361e-07
1.926384774e-06
4.006818137e-06
7.529576942e-06
1.152251111e-05
9.604164153e-06
9.758480771e-06
2.054818304e-05
1.889582857e-05
1.458860865e-05
2.324862192e-05
2.550125836e-05
1.928786221e-05
1.959596421e-05
3.040569532e-05
3.451776815e-05
3.60100713e-05
3.869253678e-05
3.287245804e-05
1.739009265e-05
2.901884213e-05
5.806848268e-05
4.610132757e-05
4.785822984e-05
6.801406236e-05
7.813170887e-05
0.000109871937
-4.530207717e-05
-0.0002541786491
-0.0003027444542
-0.0003190683034
)


100
(
0.0007344871145
0.0005556989975
0.0002914710168
0.0001572254811
7.618498252e-05
2.320858559e-05
-1.116940215e-05
-3.258784922e-05
-4.823090386e-05
-5.937541608e-05
-6.443614231e-05
-6.912692679e-05
-7.072488089e-05
-6.86463541e-05
-6.851814202e-05
-6.731007522e-05
-6.371339155e-05
-6.279855695e-05
-6.336188743e-05
-6.173555434e-05
-5.895882768e-05
-5.829115848e-05
-5.877704012e-05
-5.718646e-05
-5.451413113e-05
-5.301301598e-05
-5.284743428e-05
-5.179869632e-05
-4.947883505e-05
-4.659109257e-05
-4.558409467e-05
-4.515500041e-05
-4.317262288e-05
-3.949497821e-05
-3.922453623e-05
-4.03653968e-05
-3.845388009e-05
-3.254319013e-05
-3.133066074e-05
-3.420574741e-05
-3.248231104e-05
-2.908703999e-05
-2.714208582e-05
-2.975016607e-05
-3.062918944e-05
-2.54624611e-05
-2.01311871e-05
-2.436850793e-05
-2.774576838e-05
-2.320385501e-05
-1.979837072e-05
-2.122881673e-05
-2.279030952e-05
-2.105380634e-05
-1.920929184e-05
-1.897695646e-05
-1.67792362e-05
-1.277346993e-05
-9.587150532e-06
-5.647008998e-06
-3.381106833e-06
-5.434367975e-06
-6.710138344e-06
-3.453935738e-06
5.166578098e-07
5.300809797e-07
-1.905537655e-06
-1.161505215e-06
8.799075563e-07
2.098110386e-06
1.806151519e-06
1.29820268e-06
3.498247722e-06
1.211442658e-05
1.803240185e-05
1.194000317e-05
1.287668248e-05
1.811004492e-05
9.02147036e-06
-1.414900724e-06
2.21769137e-06
1.582551602e-05
1.589286249e-05
3.275490007e-06
-8.141783749e-06
-7.444152573e-06
-5.866785282e-06
-2.78486739e-05
-3.037764204e-05
-1.458858867e-05
-2.681349919e-05
-3.223636413e-05
-2.576781105e-05
-2.22046234e-05
6.74159688e-06
9.902990118e-05
0.000166577298
6.971056849e-05
-7.513850939e-05
-0.0001248694826
)


100
(
0.0007392473137
0.0005675008817
0.0003117330234
0.0001790251311
9.589787128e-05
3.97314669e-05
3.102968994e-06
-2.127698041e-05
-3.7442874e-05
-5.06054867e-05
-5.884617031e-05
-6.28499861e-05
-6.65959331e-05
-6.688668012e-05
-6.529642155e-05
-6.527402489e-05
-6.408790325e-05
-6.11438069e-05
-6.024445926e-05
-6.091648174e-05
-5.989863297e-05
-5.751051125e-05
-5.596940114e-05
-5.615194108e-05
-5.550881937e-05
-5.31335817e-05
-5.179022975e-05
-5.151885024e-05
-5.008031421e-05
-4.677852453e-05
-4.265401638e-05
-4.238078802e-05
-4.318941154e-05
-4.02527326e-05
-3.600969371e-05
-3.679214888e-05
-3.879560628e-05
-3.475626659e-05
-2.863187837e-05
-2.944362224e-05
-3.267317085e-05
-3.005105473e-05
-2.626235248e-05
-2.554250196e-05
-2.879389803e-05
-2.657352898e-05
-2.149921003e-05
-1.941183473e-05
-2.241669434e-05
-2.323525493e-05
-1.953513777e-05
-1.785778122e-05
-1.569518536e-05
-1.498978516e-05
-1.41359943e-05
-1.229505964e-05
-9.009098439e-06
-5.922744054e-06
-6.191118341e-06
-6.374466443e-06
-3.340568821e-06
2.768244949e-07
1.804288661e-06
-1.469404236e-06
-3.405297445e-06
-1.929806799e-06
-4.249754147e-06
-5.336203841e-06
-5.402638949e-06
-7.236433218e-06
-4.984963626e-06
1.181006605e-06
1.636949272e-06
-1.736482664e-06
-2.708527481e-06
-1.402385379e-05
-2.450773236e-05
-2.716253621e-05
-2.719055972e-05
-2.28572544e-05
-2.579480466e-05
-4.094757061e-05
-5.793857005e-05
-6.109121548e-05
-5.933638968e-05
-6.692386829e-05
-7.184679958e-05
-7.239611591e-05
-7.324874415e-05
-6.959219048e-05
-6.241851741e-05
-5.654139835e-05
-5.006605881e-05
-3.789589759e-05
-1.862313296e-05
7.454512443e-05
0.0002320228629
0.0002826132864
0.0003196342842
0.0003826643133
)


100
(
0.0007396560681
0.000575925023
0.0003308180207
0.0002000747651
0.000115091777
5.667586331e-05
1.806414176e-05
-9.144619195e-06
-2.756776914e-05
-4.091744742e-05
-5.156778552e-05
-5.715589138e-05
-6.096339495e-05
-6.409391975e-05
-6.366998292e-05
-6.24703706e-05
-6.257787199e-05
-6.168681464e-05
-5.947654944e-05
-5.83671358e-05
-5.875448779e-05
-5.826832278e-05
-5.61473784e-05
-5.345535376e-05
-5.300648858e-05
-5.313954112e-05
-5.110010697e-05
-5.018732238e-05
-4.977298282e-05
-4.79171027e-05
-4.235742661e-05
-3.865701639e-05
-4.076875027e-05
-4.135450116e-05
-3.668828932e-05
-3.275948554e-05
-3.544158686e-05
-3.664455925e-05
-3.07970646e-05
-2.562635348e-05
-2.7989068e-05
-3.059450727e-05
-2.732409644e-05
-2.409479632e-05
-2.446370615e-05
-2.49621579e-05
-2.218327386e-05
-1.927694684e-05
-1.753372934e-05
-1.626340439e-05
-1.627486258e-05
-1.602482936e-05
-1.43420486e-05
-9.976440995e-06
-5.469585521e-06
-7.803934778e-06
-1.087690912e-05
-8.259107673e-06
-5.181692252e-06
-4.508214773e-06
-7.011461709e-06
-7.763472675e-06
-7.769715795e-06
-1.389378675e-05
-1.930434704e-05
-1.860921453e-05
-1.932857484e-05
-2.123044698e-05
-1.771714329e-05
-1.65640192e-05
-2.211986024e-05
-2.70099368e-05
-3.65712603e-05
-5.099922774e-05
-5.751175759e-05
-5.800826021e-05
-5.923438056e-05
-6.372473805e-05
-6.797365887e-05
-7.514287849e-05
-8.316462809e-05
-8.290601571e-05
-7.923203556e-05
-7.65415663e-05
-7.365333825e-05
-6.566508078e-05
-5.399795081e-05
-4.269240147e-05
-3.670824487e-05
-3.234567857e-05
-2.275965055e-05
-1.486595235e-05
-1.006165753e-05
-4.920809745e-06
8.259495505e-08
2.044811466e-05
7.355199117e-05
0.0001590193318
0.0006020209831
0.0009947829497
)


100
(
0.0007370484157
0.0005818918535
0.0003481281041
0.0002194701618
0.0001338607312
7.383443194e-05
3.275328796e-05
3.848040133e-06
-1.699413899e-05
-3.125714384e-05
-4.300386139e-05
-5.173533984e-05
-5.550335205e-05
-5.923114621e-05
-6.200259098e-05
-6.144661983e-05
-6.028666628e-05
-6.041873e-05
-6.030748759e-05
-5.857155042e-05
-5.65347305e-05
-5.614817889e-05
-5.609732456e-05
-5.410024629e-05
-5.075929867e-05
-4.924639228e-05
-4.974410284e-05
-4.879143905e-05
-4.833563486e-05
-4.790149954e-05
-4.468109281e-05
-3.799825538e-05
-3.576502317e-05
-3.922291035e-05
-3.824642057e-05
-3.332917197e-05
-3.10366588e-05
-3.417575342e-05
-3.268562423e-05
-2.710762833e-05
-2.482710424e-05
-2.661685301e-05
-2.744229439e-05
-2.472172216e-05
-2.306468125e-05
-2.150545936e-05
-2.072561133e-05
-1.995853204e-05
-1.872910511e-05
-1.65255157e-05
-1.232901802e-05
-1.0519278e-05
-1.320517317e-05
-1.452495318e-05
-1.136018379e-05
-8.519322898e-06
-9.764861658e-06
-1.383924021e-05
-1.646506681e-05
-1.858145734e-05
-2.617263403e-05
-3.382229566e-05
-3.600328044e-05
-3.776406521e-05
-4.05536088e-05
-4.063882557e-05
-4.151783305e-05
-4.623420037e-05
-5.028202262e-05
-5.771092571e-05
-7.220845605e-05
-8.516642021e-05
-8.541396506e-05
-7.878444616e-05
-8.074837129e-05
-8.617246358e-05
-8.219609573e-05
-7.641344811e-05
-7.319376463e-05
-6.643238607e-05
-5.770310002e-05
-4.881732272e-05
-4.0397354e-05
-3.158406404e-05
-2.34404675e-05
-1.781682999e-05
-1.337278243e-05
-1.027242334e-05
-8.270598171e-06
-6.067588062e-06
-4.247200337e-06
-2.906378216e-06
-1.709036279e-06
1.836700669e-08
1.356392085e-06
6.901711964e-06
1.591888306e-05
3.367877409e-05
0.0006253226676
0.001202983355
)


100
(
0.0007335259317
0.0005859481551
0.0003619915753
0.0002365433842
0.0001524628485
9.110878189e-05
4.762014651e-05
1.731173483e-05
-5.743803676e-06
-2.227932432e-05
-3.402628022e-05
-4.439979096e-05
-5.152706323e-05
-5.462383433e-05
-5.818765893e-05
-6.058029846e-05
-6.010987294e-05
-5.915821281e-05
-5.88109612e-05
-5.840861622e-05
-5.67191385e-05
-5.361637902e-05
-5.266986262e-05
-5.321302205e-05
-5.150041261e-05
-4.799367379e-05
-4.530178137e-05
-4.598169834e-05
-4.642330034e-05
-4.642374103e-05
-4.588964141e-05
-4.024617375e-05
-3.398710068e-05
-3.429193582e-05
-3.752381219e-05
-3.494406116e-05
-3.059624788e-05
-3.026716517e-05
-3.144214994e-05
-2.939351639e-05
-2.617824846e-05
-2.504558417e-05
-2.528044389e-05
-2.629452126e-05
-2.585434763e-05
-2.428541277e-05
-2.081414023e-05
-1.732962733e-05
-1.798598055e-05
-1.997364973e-05
-1.916781114e-05
-1.675605571e-05
-1.606031767e-05
-1.914701348e-05
-2.307840795e-05
-2.547269035e-05
-2.977591529e-05
-3.981818251e-05
-5.093877316e-05
-5.580782397e-05
-5.597282205e-05
-5.730431162e-05
-6.10217639e-05
-6.666611391e-05
-7.153399786e-05
-7.248621361e-05
-7.587724712e-05
-8.399555708e-05
-9.335262025e-05
-9.814345248e-05
-9.136921738e-05
-8.431531572e-05
-8.344798623e-05
-7.804105608e-05
-6.443710796e-05
-5.272436148e-05
-4.514223095e-05
-3.644242317e-05
-2.84941599e-05
-2.197083649e-05
-1.67070266e-05
-1.224247144e-05
-8.966581741e-06
-7.218141287e-06
-6.05137859e-06
-5.124115595e-06
-4.700474678e-06
-4.032622599e-06
-3.212891668e-06
-2.613862857e-06
-1.895605109e-06
-1.277677643e-06
-4.346548188e-07
6.256093498e-07
8.453723073e-07
3.780370442e-06
7.500460208e-06
1.033208117e-05
0.0005541733571
0.001095691812
)


100
(
0.0007266110009
0.0005870214561
0.0003737910517
0.0002534182682
0.0001703017831
0.0001076350653
6.27865735e-05
3.061157429e-05
6.143913873e-06
-1.27237224e-05
-2.642981935e-05
-3.703419047e-05
-4.582944764e-05
-5.151374171e-05
-5.478770117e-05
-5.770225476e-05
-5.929577514e-05
-5.885982533e-05
-5.701061432e-05
-5.590200476e-05
-5.578725514e-05
-5.400347294e-05
-5.043942862e-05
-4.878828677e-05
-4.956648573e-05
-4.868983656e-05
-4.523481777e-05
-4.183202092e-05
-4.246579643e-05
-4.371402407e-05
-4.406308833e-05
-4.244641151e-05
-3.63984069e-05
-3.212409904e-05
-3.349635107e-05
-3.49255394e-05
-3.288062138e-05
-3.115455041e-05
-3.070638779e-05
-3.079001479e-05
-3.096169462e-05
-3.07430041e-05
-2.9294991e-05
-2.638157617e-05
-2.527911796e-05
-2.685189825e-05
-2.737088006e-05
-2.532821355e-05
-2.363206117e-05
-2.598190792e-05
-2.998053733e-05
-3.296447224e-05
-3.622277769e-05
-4.17489895e-05
-5.169719344e-05
-6.597772461e-05
-7.257852534e-05
-7.481060379e-05
-8.040288379e-05
-8.51896349e-05
-9.119017296e-05
-9.121880517e-05
-8.576659961e-05
-8.801656918e-05
-9.408087836e-05
-9.548359401e-05
-9.412852626e-05
-8.447957696e-05
-7.33663459e-05
-7.203899087e-05
-6.749866962e-05
-5.096082456e-05
-3.710089222e-05
-2.982244526e-05
-2.260665773e-05
-1.679334316e-05
-1.256712471e-05
-9.797851271e-06
-7.739626661e-06
-6.091828058e-06
-4.998438117e-06
-4.45702562e-06
-4.058656351e-06
-3.548070942e-06
-3.215918919e-06
-2.739000398e-06
-2.427459556e-06
-2.363610251e-06
-1.931317575e-06
-1.539329634e-06
-1.114280724e-06
-6.624280625e-07
4.228813592e-10
4.074200963e-07
7.434455999e-07
2.803483123e-06
4.347798672e-06
5.744083931e-06
0.0004639769317
0.0009206943207
)


100
(
0.0007126708584
0.0005829698122
0.0003831594876
0.0002690719002
0.0001871534613
0.0001238991726
7.800674392e-05
4.375042459e-05
1.82400196e-05
-2.738801138e-06
-1.861392175e-05
-3.0729893e-05
-4.039824591e-05
-4.744456664e-05
-5.190046985e-05
-5.462192339e-05
-5.620932968e-05
-5.701701111e-05
-5.622816835e-05
-5.363551518e-05
-5.240605741e-05
-5.256781503e-05
-5.0808201e-05
-4.720473135e-05
-4.500730873e-05
-4.589356298e-05
-4.58555189e-05
-4.27618981e-05
-3.971437605e-05
-3.907908408e-05
-4.070323241e-05
-4.232460279e-05
-3.875959526e-05
-3.427393567e-05
-3.353626946e-05
-3.443363124e-05
-3.564063582e-05
-3.637759139e-05
-3.680304141e-05
-3.560918431e-05
-3.426153903e-05
-3.434962901e-05
-3.527253796e-05
-3.476132746e-05
-3.309266471e-05
-3.400295864e-05
-3.73316437e-05
-3.962488077e-05
-4.207486241e-05
-4.663916897e-05
-5.429983193e-05
-6.623388562e-05
-7.693940326e-05
-8.360145668e-05
-9.027763359e-05
-9.58183692e-05
-0.0001052253926
-0.0001140623924
-0.0001056855385
-9.73157984e-05
-0.0001003055495
-0.0001006918671
-9.651532375e-05
-8.750566092e-05
-7.384486233e-05
-6.235394747e-05
-5.714517902e-05
-5.10125149e-05
-3.645431828e-05
-2.589528439e-05
-2.183834421e-05
-1.609804582e-05
-1.174615645e-05
-9.004807017e-06
-7.342148048e-06
-6.061718139e-06
-4.886287737e-06
-4.090779112e-06
-3.657437206e-06
-3.378154545e-06
-3.126334548e-06
-2.813820567e-06
-2.546614533e-06
-2.157970365e-06
-1.863456658e-06
-1.650126523e-06
-1.624601151e-06
-1.497232942e-06
-1.134610386e-06
-9.650871458e-07
-7.203841796e-07
-3.929625059e-07
5.689874231e-08
2.1126253e-07
7.863388188e-07
2.184422795e-06
2.685371289e-06
3.578609953e-06
0.0003840158799
0.0007633411837
)


100
(
0.0006916681141
0.0005736305505
0.0003916584226
0.0002830252314
0.0002018619083
0.000139552808
9.316228571e-05
5.706007077e-05
2.973151997e-05
7.219466258e-06
-1.08599447e-05
-2.424985022e-05
-3.530716867e-05
-4.326550305e-05
-4.811956777e-05
-5.117525857e-05
-5.2768636e-05
-5.327539833e-05
-5.359948061e-05
-5.265313865e-05
-5.005215392e-05
-4.88043012e-05
-4.90180584e-05
-4.761205203e-05
-4.429306848e-05
-4.186367656e-05
-4.251414165e-05
-4.310499401e-05
-4.101040042e-05
-3.873817172e-05
-3.80458449e-05
-3.926160238e-05
-4.045444161e-05
-3.943708357e-05
-3.911588271e-05
-4.054680663e-05
-4.145790966e-05
-4.159984042e-05
-4.220367252e-05
-4.279574968e-05
-4.211873452e-05
-4.266384161e-05
-4.445009178e-05
-4.64436424e-05
-4.891580021e-05
-5.220777552e-05
-5.806731217e-05
-6.831145825e-05
-7.638841299e-05
-8.198901494e-05
-9.17670207e-05
-0.000102224871
-0.0001119432729
-0.0001265821155
-0.0001224781748
-0.0001077432759
-0.000108494264
-0.0001109539108
-0.000108512339
-9.973218667e-05
-8.163277275e-05
-6.467143816e-05
-5.540592448e-05
-4.828984368e-05
-4.14516743e-05
-2.879152777e-05
-1.923594952e-05
-1.628170971e-05
-1.281555368e-05
-9.579812929e-06
-7.327408224e-06
-5.886731476e-06
-5.0390273e-06
-4.458342161e-06
-3.908637198e-06
-3.500710835e-06
-3.17284679e-06
-2.833244686e-06
-2.589171007e-06
-2.322680461e-06
-1.96063002e-06
-1.700836466e-06
-1.617155747e-06
-1.517075236e-06
-1.356093307e-06
-1.137922222e-06
-1.013538121e-06
-9.318679921e-07
-7.711540306e-07
-6.497424088e-07
-4.930674357e-07
-2.359904883e-07
5.709087889e-08
2.101803775e-07
7.917767543e-07
1.486535742e-06
1.737529741e-06
2.442886996e-06
0.0003050683749
0.0006071076662
)


100
(
0.0006710826448
0.0005638464743
0.000396367751
0.0002932504167
0.0002165719477
0.000154504608
0.000107076488
7.025896446e-05
4.079629467e-05
1.780759885e-05
-3.34719796e-06
-1.83951498e-05
-2.892526538e-05
-3.83700208e-05
-4.398272164e-05
-4.697656078e-05
-4.892415412e-05
-4.955009661e-05
-4.952607352e-05
-4.975387514e-05
-4.897878052e-05
-4.663646247e-05
-4.533968841e-05
-4.560940244e-05
-4.476801854e-05
-4.211761474e-05
-4.017230709e-05
-4.035175805e-05
-4.134277313e-05
-4.117087493e-05
-4.069054005e-05
-4.157742972e-05
-4.381174319e-05
-4.551090614e-05
-4.643815893e-05
-4.812696392e-05
-4.916208944e-05
-5.003957377e-05
-5.143738495e-05
-5.221161535e-05
-5.35969783e-05
-5.661067585e-05
-6.126968297e-05
-6.959397355e-05
-7.51348487e-05
-7.860493485e-05
-8.801902942e-05
-0.000100528713
-0.0001134218941
-0.0001291252518
-0.0001317665653
-0.0001217785031
-0.0001181363047
-0.0001218915238
-0.0001247174301
-0.0001188097178
-9.551740248e-05
-7.648646061e-05
-6.936274834e-05
-5.559016991e-05
-4.518099189e-05
-3.572669789e-05
-2.421615271e-05
-1.704452689e-05
-1.454048964e-05
-1.205449126e-05
-8.901911181e-06
-6.661825775e-06
-5.508665719e-06
-4.795560027e-06
-4.253429997e-06
-3.7455207e-06
-3.297391685e-06
-2.960334321e-06
-2.719195378e-06
-2.500080569e-06
-2.161601325e-06
-1.865356758e-06
-1.67566083e-06
-1.513920893e-06
-1.388784339e-06
-1.334650911e-06
-1.255722485e-06
-1.009309579e-06
-8.284290612e-07
-8.521194369e-07
-8.313665576e-07
-6.601233647e-07
-4.845923307e-07
-3.923565874e-07
-3.25810954e-07
-1.382111658e-07
1.023563588e-07
1.626174681e-07
5.741654392e-07
1.044902274e-06
1.180802764e-06
1.653709395e-06
0.0002624006362
0.0005227916219
)


100
(
0.0006513553807
0.0005525007424
0.0003976354646
0.0003020744723
0.0002295753601
0.0001684927228
0.000120459204
8.348493435e-05
5.136276535e-05
2.655035265e-05
6.307342592e-06
-1.235811487e-05
-2.392142653e-05
-3.154343764e-05
-3.879445264e-05
-4.25252796e-05
-4.434669248e-05
-4.573094512e-05
-4.585553424e-05
-4.570498615e-05
-4.605975264e-05
-4.558240784e-05
-4.363019798e-05
-4.248204455e-05
-4.289711264e-05
-4.276792425e-05
-4.142699494e-05
-4.074312309e-05
-4.194572539e-05
-4.400835071e-05
-4.567660229e-05
-4.802636258e-05
-5.098663217e-05
-5.352428387e-05
-5.601503877e-05
-5.670650041e-05
-5.817787903e-05
-6.09665959e-05
-6.434019629e-05
-7.100782584e-05
-7.575975422e-05
-7.647244046e-05
-8.2749902e-05
-9.407714719e-05
-0.0001061380241
-0.000121498474
-0.0001300366622
-0.0001301023419
-0.0001327272444
-0.0001347673482
-0.0001385743741
-0.0001401391808
-0.0001163213955
-9.178380689e-05
-8.739661768e-05
-7.88438461e-05
-6.336344973e-05
-4.846590302e-05
-3.326194746e-05
-2.251643252e-05
-1.743347032e-05
-1.452586417e-05
-1.22069356e-05
-8.371932448e-06
-6.257859772e-06
-5.862444789e-06
-5.061247199e-06
-4.381845943e-06
-3.808146217e-06
-3.383636276e-06
-3.064898739e-06
-2.679414555e-06
-2.267889876e-06
-1.993477716e-06
-1.826572538e-06
-1.688254158e-06
-1.554449815e-06
-1.399728007e-06
-1.28858361e-06
-1.212305231e-06
-1.035383453e-06
-8.846577063e-07
-8.214272092e-07
-7.664858741e-07
-7.666180669e-07
-6.817131219e-07
-5.311348569e-07
-4.121162478e-07
-3.764263995e-07
-3.279007984e-07
-3.150393881e-07
-6.79199467e-08
1.338822045e-07
5.946882716e-08
4.788225094e-07
8.265645327e-07
8.506135559e-07
1.114012309e-06
0.0002206654394
0.0004400168449
)


100
(
0.0006309742509
0.0005396942477
0.0003964400148
0.0003098023127
0.0002408334288
0.0001812654337
0.0001330084168
9.479082073e-05
6.331681138e-05
3.489899062e-05
1.400063891e-05
-3.595232893e-06
-1.837160308e-05
-2.637515131e-05
-3.162081108e-05
-3.706611715e-05
-3.97705842e-05
-4.107975783e-05
-4.22526384e-05
-4.226143809e-05
-4.226378597e-05
-4.284173427e-05
-4.276231892e-05
-4.161905088e-05
-4.118636986e-05
-4.221141531e-05
-4.32184298e-05
-4.415318006e-05
-4.613196032e-05
-4.957427213e-05
-5.454983551e-05
-5.690805497e-05
-5.85759415e-05
-6.223774334e-05
-6.540287755e-05
-7.118820367e-05
-7.533889627e-05
-7.629210914e-05
-8.041414955e-05
-8.916308668e-05
-0.0001001044925
-0.0001140355719
-0.000119785453
-0.0001224553533
-0.0001325723797
-0.0001413898803
-0.0001474321901
-0.000159317457
-0.0001469030681
-0.0001197446406
-0.0001100166815
-0.0001022397202
-9.038180977e-05
-7.180202904e-05
-5.127183134e-05
-3.636904983e-05
-2.791991862e-05
-2.020047519e-05
-1.587419267e-05
-1.198260002e-05
-7.925089705e-06
-6.646528285e-06
-6.397418539e-06
-5.662881161e-06
-4.774779889e-06
-3.950688605e-06
-3.322801256e-06
-2.946044695e-06
-2.677026224e-06
-2.383645686e-06
-2.098414101e-06
-1.933415639e-06
-1.781245714e-06
-1.598341475e-06
-1.461886716e-06
-1.32837642e-06
-1.129142423e-06
-9.75241235e-07
-9.006753849e-07
-8.557794885e-07
-8.130980628e-07
-7.358683243e-07
-6.7557345e-07
-5.875952438e-07
-5.323177727e-07
-5.037827759e-07
-4.361837635e-07
-3.617914222e-07
-2.804114329e-07
-2.372703124e-07
-2.303651635e-07
-5.459715156e-08
8.613850439e-08
8.486898096e-08
3.603421176e-07
6.26053469e-07
6.511309638e-07
7.870907013e-07
0.0001922849681
0.0003836514431
)


100
(
0.0006020626441
0.0005212318112
0.0003940327604
0.0003150574957
0.0002493966233
0.0001925938774
0.0001459166767
0.0001053504949
7.342458519e-05
4.421883331e-05
2.075150899e-05
4.618957142e-06
-1.002305467e-05
-2.093339959e-05
-2.62408098e-05
-3.006547589e-05
-3.425446097e-05
-3.663132741e-05
-3.784624421e-05
-3.895570814e-05
-3.914527669e-05
-3.972501453e-05
-4.067032902e-05
-4.11585058e-05
-4.17025339e-05
-4.305385336e-05
-4.670422258e-05
-4.971746734e-05
-5.265627146e-05
-5.763955149e-05
-6.244942393e-05
-6.863655561e-05
-7.306019056e-05
-7.375488587e-05
-7.67836136e-05
-8.370089992e-05
-9.328846634e-05
-0.0001065331088
-0.0001110387499
-0.0001112837984
-0.0001229694915
-0.0001374173288
-0.0001497469863
-0.0001627681364
-0.0001612028187
-0.0001468715449
-0.0001380612788
-0.0001320061149
-0.0001255948182
-0.0001113349917
-8.100158973e-05
-5.759074987e-05
-4.796156352e-05
-3.625815399e-05
-2.531541014e-05
-1.807383992e-05
-1.271190154e-05
-8.742548455e-06
-7.480481959e-06
-6.910725134e-06
-6.15129196e-06
-4.717470898e-06
-3.885042267e-06
-3.713720412e-06
-3.255674815e-06
-2.883860738e-06
-2.547696817e-06
-2.27022112e-06
-2.049129034e-06
-1.841881239e-06
-1.692431696e-06
-1.480332416e-06
-1.269005208e-06
-1.165362544e-06
-1.057098921e-06
-9.511365063e-07
-8.628437412e-07
-8.281439987e-07
-8.057546437e-07
-6.873484662e-07
-5.678988953e-07
-5.008886347e-07
-5.172719503e-07
-5.393793692e-07
-4.78695202e-07
-3.879822759e-07
-3.026416791e-07
-2.639212639e-07
-2.413190002e-07
-1.903618809e-07
-4.601806859e-08
-4.318965179e-08
-7.825988835e-08
1.002207743e-07
3.083394473e-07
4.453809216e-07
5.210438001e-07
6.248338299e-07
0.0001770104998
0.000353324561
)


100
(
0.0005686378398
0.0004993372095
0.0003893840106
0.0003175275555
0.0002573318517
0.0002021997507
0.0001562261045
0.0001155016382
8.183866896e-05
5.509151462e-05
2.792592555e-05
1.054992349e-05
-4.528809238e-07
-1.288821683e-05
-2.10535398e-05
-2.471611983e-05
-2.783317609e-05
-3.11755745e-05
-3.371972631e-05
-3.516565965e-05
-3.624878028e-05
-3.725134723e-05
-3.874864675e-05
-4.110590534e-05
-4.320389736e-05
-4.625032529e-05
-5.103162073e-05
-5.756800577e-05
-6.448708732e-05
-6.784658821e-05
-7.164238805e-05
-7.776551227e-05
-8.55239207e-05
-9.757201691e-05
-9.977002387e-05
-9.895211253e-05
-0.0001106326393
-0.0001255641078