/*--------------------------------*- C++ -*----------------------------------*\
| =========                 |                                                 |
| \\      /  F ield         | OpenFOAM: The Open Source CFD Toolbox           |
|  \\    /   O peration     | Version:  2.3.1                                 |
|   \\  /    A nd           | Web:      www.OpenFOAM.org                      |
|    \\/     M anipulation  |                                                 |
\*---------------------------------------------------------------------------*/
FoamFile
{
    version     2.0;
    format      ascii;
    class       dictionary;
    location    "constant";
    object      GRPSI38;
}
// * * * * * * * * * * * * * * * * * * * * * * * * * * * * * * * * * * * * * //

GRPSI38_table
100
(

100
(
5.959231024e-09
3.165287153e-09
-7.756987331e-10
-2.30649307e-09
-2.935032021e-09
-3.093699017e-09
-2.975218237e-09
-2.821661975e-09
-2.595940194e-09
-2.412497993e-09
-2.113518477e-09
-1.840502643e-09
-1.708540566e-09
-1.486342838e-09
-1.309746834e-09
-1.238707861e-09
-1.085449854e-09
-9.505009138e-10
-9.162533359e-10
-8.179538018e-10
-7.012168972e-10
-6.58566562e-10
-6.212785259e-10
-5.328651826e-10
-4.656589491e-10
-4.532450796e-10
-4.214158427e-10
-3.621965426e-10
-3.251119041e-10
-3.172985491e-10
-2.837284146e-10
-2.353054955e-10
-2.140260214e-10
-2.091562199e-10
-1.980718221e-10
-1.730504406e-10
-1.551549899e-10
-1.514879402e-10
-1.41827829e-10
-1.199338875e-10
-1.042337745e-10
-1.013698897e-10
-9.459410939e-11
-7.956790276e-11
-6.914780894e-11
-6.756828975e-11
-6.589741676e-11
-5.701704258e-11
-4.865505979e-11
-4.768284496e-11
-4.548534166e-11
-3.841820549e-11
-3.2645996e-11
-3.187372436e-11
-2.939235343e-11
-2.476777043e-11
-2.163218786e-11
-1.991706257e-11
-1.756068545e-11
-1.551353783e-11
-1.372285201e-11
-1.197882412e-11
-1.093390988e-11
-1.017607374e-11
-8.993443293e-12
-7.742901043e-12
-7.012853608e-12
-6.37432618e-12
-5.377894768e-12
-4.60352236e-12
-4.304638196e-12
-3.725915594e-12
-2.899480771e-12
-2.774164603e-12
-2.496740299e-12
-1.722766662e-12
-1.716258406e-12
-1.490257116e-12
-9.903034659e-13
-9.548661551e-13
-5.587693437e-13
-4.682120899e-13
-3.919345398e-13
-2.028025133e-13
-1.638078557e-13
-7.280000058e-14
-7.530046029e-14
-2.936087243e-14
-6.75942786e-14
-5.606028049e-14
-3.959341159e-14
-2.599601769e-14
-1.780530879e-14
-1.231501479e-14
-7.341299365e-15
-4.176818712e-15
-2.560491965e-15
-2.440695817e-15
-1.457893916e-15
-5.971130843e-16
)


100
(
1.026123883e-08
5.353801292e-09
-8.447449501e-10
-2.849655077e-09
-3.590204507e-09
-3.457675574e-09
-3.289697981e-09
-3.063723828e-09
-2.737733054e-09
-2.52215827e-09
-2.17744527e-09
-1.857664417e-09
-1.682374671e-09
-1.467930235e-09
-1.30069325e-09
-1.205042613e-09
-1.063206548e-09
-9.613551132e-10
-9.10684479e-10
-8.141285449e-10
-7.375396408e-10
-6.881737203e-10
-6.270247154e-10
-5.593088219e-10
-5.17737644e-10
-4.826050197e-10
-4.328762027e-10
-3.919501873e-10
-3.708076358e-10
-3.474272078e-10
-3.086735098e-10
-2.784253575e-10
-2.590287842e-10
-2.397939478e-10
-2.178880704e-10
-1.990800549e-10
-1.842833497e-10
-1.736656262e-10
-1.594641761e-10
-1.433944667e-10
-1.303939142e-10
-1.217231244e-10
-1.128665062e-10
-1.022429792e-10
-9.231875022e-11
-8.446031751e-11
-7.775598181e-11
-7.017502739e-11
-6.209749812e-11
-5.510248808e-11
-5.013895934e-11
-4.574294013e-11
-4.145808488e-11
-3.772454585e-11
-3.491268303e-11
-3.174574314e-11
-2.609368968e-11
-1.618988693e-11
8.970417836e-13
1.805972105e-11
-9.98361631e-13
-3.72846856e-11
-2.966467475e-11
-6.909865413e-15
-4.182939315e-12
-2.475021067e-11
-1.411102231e-11
2.225835384e-12
-9.175317857e-12
-1.814164777e-11
-4.998698582e-12
-6.583237447e-13
-1.025091067e-11
3.61382422e-12
1.709881457e-11
-1.236314414e-11
-1.524720732e-11
7.760466507e-12
-1.209229758e-11
-8.474776374e-12
2.329850033e-12
-9.573411754e-12
5.750596566e-12
-3.356353072e-12
-7.62401224e-12
8.101189598e-12
-4.217541449e-12
3.449064558e-12
3.173160461e-12
-6.892688774e-13
6.519455233e-12
1.185362594e-11
1.407184085e-11
1.70003204e-11
1.448214912e-11
7.956501393e-12
2.859222494e-12
-5.663797408e-11
-6.736440149e-11
-3.178068417e-11
)


100
(
1.336264614e-08
6.84541704e-09
-9.547252842e-10
-2.854369783e-09
-3.441425588e-09
-3.37216346e-09
-3.202771031e-09
-2.993697072e-09
-2.739231252e-09
-2.507524732e-09
-2.269062947e-09
-1.970872359e-09
-1.770203578e-09
-1.579767221e-09
-1.40886224e-09
-1.295825345e-09
-1.183136306e-09
-1.070263474e-09
-9.945172053e-10
-9.204793688e-10
-8.364538092e-10
-7.694076516e-10
-7.096017946e-10
-6.478700819e-10
-5.899563718e-10
-5.411047064e-10
-4.962355875e-10
-4.554486201e-10
-4.200862129e-10
-3.863042036e-10
-3.536068009e-10
-3.223324841e-10
-2.931422663e-10
-2.660431715e-10
-2.437397378e-10
-2.263211507e-10
-2.093475089e-10
-1.895059724e-10
-1.700996165e-10
-1.559786635e-10
-1.427331756e-10
-1.276651644e-10
-1.118663009e-10
-1.047774032e-10
-1.036595322e-10
-9.703621251e-11
-8.580349841e-11
-7.711261905e-11
-7.354237774e-11
-6.626935263e-11
-5.183840466e-11
-3.408765067e-11
-2.906745138e-11
-3.195886537e-11
-2.841392178e-11
-1.872124653e-11
-1.859420558e-11
-2.146766492e-11
-6.261377563e-12
3.066482595e-11
5.963395168e-11
2.771127224e-11
-3.478151669e-11
-5.282006338e-11
-2.420441931e-11
-1.193788345e-11
-2.459432434e-11
-2.691669653e-11
-1.994618342e-11
-2.109881805e-11
-2.509632e-11
-2.05071421e-11
-1.633585482e-11
-4.537044627e-12
3.940070711e-11
8.399341542e-11
3.446345535e-11
-2.467488788e-11
-6.772750325e-12
-7.500680731e-13
2.857659751e-11
1.449937701e-11
4.384359832e-11
6.238245913e-11
-6.129049993e-12
3.533629303e-11
4.735139255e-11
3.287383976e-11
8.908024758e-11
1.275355939e-10
1.248916628e-10
1.512407421e-10
2.761241043e-10
2.391094579e-10
1.713865484e-10
2.64515778e-10
-2.725949435e-10
-8.879325006e-10
-6.573720386e-10
-3.789334788e-10
)


100
(
1.508295242e-08
7.833926096e-09
-7.295722166e-10
-2.535093863e-09
-3.123890324e-09
-3.234122484e-09
-3.127246904e-09
-2.959332197e-09
-2.782113164e-09
-2.554093789e-09
-2.344362522e-09
-2.107174927e-09
-1.88674085e-09
-1.69990607e-09
-1.527737151e-09
-1.386732573e-09
-1.266705651e-09
-1.157105845e-09
-1.058768598e-09
-9.722881422e-10
-8.933736009e-10
-8.181796695e-10
-7.452377378e-10
-6.811679624e-10
-6.267375569e-10
-5.708765956e-10
-5.126679057e-10
-4.681579512e-10
-4.396965158e-10
-4.093229324e-10
-3.659325052e-10
-3.267144045e-10
-3.008875384e-10
-2.728293743e-10
-2.404431835e-10
-2.131574735e-10
-2.027591409e-10
-1.954177427e-10
-1.766713481e-10
-1.45933798e-10
-1.186989136e-10
-1.098444403e-10
-9.832715125e-11
-7.724369271e-11
-4.939119719e-11
-5.046392642e-11
-6.633349858e-11
-6.036047088e-11
-3.326743289e-11
-3.274181263e-11
-5.122867185e-11
-4.452356398e-11
-2.764976609e-11
-3.127038201e-11
-5.37059827e-11
-5.148826692e-11
-2.507070447e-11
-2.359296172e-11
-5.059126764e-11
-4.142040189e-11
-1.13113581e-12
2.247524457e-11
-6.34333801e-13
-4.43003075e-11
-6.507798346e-11
-5.591263602e-11
-4.113914603e-11
-2.419123043e-11
1.074305342e-11
4.162368243e-11
6.091266814e-11
8.879765882e-11
1.16793238e-10
7.218901496e-11
5.892198921e-11
2.105799497e-10
1.351414974e-10
-5.495475332e-11
1.582099398e-10
2.014210697e-10
1.650668903e-11
1.296872289e-10
1.345688547e-10
5.782155845e-11
1.775015458e-10
2.977125829e-10
3.764504065e-10
3.845652908e-10
4.794290667e-10
6.55215249e-10
6.850591513e-10
7.849690242e-10
8.452933204e-10
1.029295873e-09
1.371412971e-09
1.300650094e-09
-2.03076934e-09
-4.337095402e-09
-2.588302381e-09
-1.696720588e-09
)


100
(
1.57716605e-08
8.541270528e-09
-1.420123894e-10
-2.118034345e-09
-2.847531754e-09
-3.074558526e-09
-3.055461674e-09
-2.94284152e-09
-2.786846721e-09
-2.607669094e-09
-2.407786556e-09
-2.196422709e-09
-1.986820371e-09
-1.786285093e-09
-1.605726714e-09
-1.448337925e-09
-1.307811756e-09
-1.189245551e-09
-1.087603195e-09
-9.850064536e-10
-8.943517995e-10
-8.234410785e-10
-7.516190345e-10
-6.674421821e-10
-6.027777283e-10
-5.622711234e-10
-5.080624124e-10
-4.379380866e-10
-3.909743638e-10
-3.800591968e-10
-3.631780618e-10
-3.20231761e-10
-2.549386507e-10
-2.324025359e-10
-2.274160177e-10
-1.874690509e-10
-1.204956088e-10
-1.050004602e-10
-1.249593948e-10
-1.05939901e-10
-8.45177323e-11
-5.95971433e-11
-8.132942671e-11
-1.059897034e-10
-7.545006852e-11
-9.487983872e-12
-3.540829912e-11
-1.006916979e-10
-7.566939702e-11
-2.622053073e-11
-3.980491707e-11
-8.498212131e-11
-7.236854243e-11
-4.882165047e-11
-6.447080641e-11
-9.223806713e-11
-5.895740861e-11
-1.797980405e-11
-3.085100761e-11
-6.743313033e-11
-7.199440765e-11
-2.731545203e-11
3.006688333e-11
6.265985878e-11
7.70564558e-11
8.966379353e-11
9.288635219e-11
8.709274517e-11
9.305319474e-11
1.036470845e-10
1.074106498e-10
1.705367543e-10
3.685655578e-10
5.476187953e-10
2.926682826e-10
1.602032228e-11
2.656270263e-10
3.47894265e-10
1.790803406e-10
2.210584724e-10
3.218626183e-10
5.513867352e-10
7.891360169e-10
7.905050744e-10
7.315372586e-10
7.407300333e-10
1.006008182e-09
1.400828891e-09
1.938263147e-09
1.723430541e-09
1.499776179e-09
2.223313121e-09
2.731466086e-09
3.381820948e-09
4.255712215e-09
2.931062988e-09
-7.378877203e-09
-1.232676342e-08
-6.782519498e-09
-4.890019745e-09
)


100
(
1.63798666e-08
9.112559477e-09
3.455157075e-10
-1.730059039e-09
-2.550794174e-09
-2.892085813e-09
-2.963751283e-09
-2.898523929e-09
-2.776553162e-09
-2.614821109e-09
-2.438449791e-09
-2.237155973e-09
-2.033808386e-09
-1.834751245e-09
-1.642823687e-09
-1.469994387e-09
-1.304019002e-09
-1.161102244e-09
-1.058486148e-09
-9.64613638e-10
-8.502808245e-10
-7.518399923e-10
-6.934527284e-10
-6.261594766e-10
-5.253812077e-10
-4.407604167e-10
-4.154608438e-10
-3.920818773e-10
-3.294490224e-10
-2.514215174e-10
-2.482400465e-10
-2.709356137e-10
-2.367658148e-10
-1.440519145e-10
-1.53300817e-10
-2.16398876e-10
-1.830272964e-10
-3.913579345e-11
-2.307511416e-11
-1.266801132e-10
-1.122532623e-10
-5.291458104e-11
-3.666817558e-11
-1.255646499e-10
-1.647133542e-10
-6.84901833e-11
2.600156091e-11
-7.410331985e-11
-1.632444277e-10
-9.48734125e-11
-3.546119635e-11
-6.276461827e-11
-9.836242204e-11
-7.970216732e-11
-5.670755157e-11
-5.334205989e-11
-3.016972796e-12
9.177573982e-11
1.677074963e-10
2.192383633e-10
2.11909293e-10
1.514980531e-10
1.230648145e-10
1.408622182e-10
1.580362358e-10
1.585053773e-10
1.392928721e-10
1.228874532e-10
1.280138978e-10
1.963252913e-10
3.308738466e-10
4.74857535e-10
5.927063734e-10
7.099301709e-10
8.454698297e-10
6.110450994e-10
3.935330985e-10
6.16904579e-10
9.854148084e-10
1.27261801e-09
1.353392534e-09
1.414402126e-09
1.439226973e-09
1.655661192e-09
2.109100709e-09
2.181392685e-09
2.23572474e-09
3.522283937e-09
3.841142074e-09
3.012044462e-09
4.237010692e-09
5.199056433e-09
6.065037863e-09
7.885071296e-09
9.462645161e-09
1.18366421e-09
-1.851327644e-08
-2.296729864e-08
-1.401554921e-08
-1.107315119e-08
)


100
(
1.680450177e-08
9.563055222e-09
7.959691977e-10
-1.313811449e-09
-2.221580277e-09
-2.68416996e-09
-2.836233214e-09
-2.817021909e-09
-2.726045525e-09
-2.582170841e-09
-2.409601992e-09
-2.222625622e-09
-2.026990608e-09
-1.828451871e-09
-1.624373518e-09
-1.440442984e-09
-1.263952507e-09
-1.072137728e-09
-9.263155679e-10
-8.526685841e-10
-7.720964602e-10
-6.409458063e-10
-5.155140326e-10
-4.783095198e-10
-4.298146521e-10
-2.95053472e-10
-2.26348712e-10
-2.689170897e-10
-2.891609656e-10
-2.164514591e-10
-1.000410388e-10
-1.495196194e-10
-2.450851117e-10
-1.774358371e-10
-5.977772173e-11
-1.454773301e-10
-2.763972671e-10
-1.662895601e-10
1.602683075e-11
-4.469149353e-11
-1.953568295e-10
-1.492089411e-10
-6.30915288e-11
-7.80657325e-11
-1.993758669e-10
-1.59054398e-10
-2.473943375e-11
3.261115664e-11
-5.786198142e-11
-1.041200673e-10
-1.342525384e-11
5.707922584e-11
1.415874403e-10
1.728937133e-10
1.996950172e-10
2.401454824e-10
2.681388266e-10
2.806171747e-10
2.713825196e-10
2.869322537e-10
3.132771114e-10
3.216639372e-10
3.604370625e-10
3.27621976e-10
2.64550745e-10
3.269245221e-10
5.077173412e-10
7.655899526e-10
8.511474835e-10
8.005007672e-10
8.167894453e-10
8.693782739e-10
8.980685269e-10
8.846432867e-10
1.010537754e-09
1.390564681e-09
1.796031965e-09
1.989250048e-09
2.048998932e-09
2.111522787e-09
2.233289132e-09
2.769285892e-09
3.46782294e-09
3.656489472e-09
3.658439944e-09
4.126064756e-09
4.7297369e-09
5.826875727e-09
6.669470291e-09
5.988109134e-09
6.325961236e-09
8.493613214e-09
1.106275102e-08
1.427869818e-08
1.705092554e-08
-3.699644787e-09
-3.430385808e-08
-3.553288978e-08
-2.484093724e-08
-2.185505259e-08
)


100
(
1.70624035e-08
9.890947166e-09
1.242067381e-09
-8.6809091e-10
-1.897441918e-09
-2.436264805e-09
-2.654830087e-09
-2.690877857e-09
-2.607730885e-09
-2.490266265e-09
-2.33047569e-09
-2.136111023e-09
-1.938143166e-09
-1.755862107e-09
-1.546586652e-09
-1.328858461e-09
-1.147674263e-09
-9.47669303e-10
-7.329058757e-10
-5.847537489e-10
-5.505699162e-10
-5.079596854e-10
-3.669399624e-10
-2.039744449e-10
-2.236110337e-10
-2.547772947e-10
-9.641356286e-11
-6.96541732e-11
-1.828054639e-10
-2.462980139e-10
-7.071263882e-11
1.783015425e-11
-2.054071674e-10
-3.193036153e-10
-1.429852086e-10
-1.888320665e-11
-2.329709533e-10
-3.61521068e-10
-1.460716663e-10
4.962246223e-11
-9.091847138e-11
-2.572898136e-10
-1.651149134e-10
-4.9961246e-11
-6.717104898e-11
-9.159684101e-11
2.422680057e-11
1.863681866e-10
3.203126125e-10
3.946931814e-10
3.66376024e-10
3.601007732e-10
4.034564807e-10
4.836690489e-10
5.730764071e-10
4.627234718e-10
3.348485484e-10
3.579751e-10
3.900483045e-10
4.738869695e-10
4.939209738e-10
5.200222425e-10
7.020187832e-10
9.872571718e-10
1.291489641e-09
1.39273478e-09
1.280583528e-09
1.228115258e-09
1.391502762e-09
1.596255082e-09
1.587464953e-09
1.554859871e-09
1.822541465e-09
2.279671727e-09
2.58115239e-09
2.581099847e-09
2.676484318e-09
2.98356686e-09
3.189644415e-09
3.697626987e-09
4.363764477e-09
4.655641938e-09
4.866174244e-09
5.349725711e-09
6.185551386e-09
6.833086686e-09
7.127925159e-09
8.050757451e-09
9.146117685e-09
9.795073783e-09
1.193999447e-08
1.508521757e-08
1.885865812e-08
2.486563276e-08
2.759073791e-08
-1.535616999e-08
-5.881557858e-08
-5.026161313e-08
-3.84621222e-08
-3.658049112e-08
)


100
(
1.710956645e-08
1.013574763e-08
1.707725544e-09
-4.383970239e-10
-1.541284305e-09
-2.146171321e-09
-2.422592503e-09
-2.504064722e-09
-2.451131027e-09
-2.31534171e-09
-2.165573321e-09
-1.99633496e-09
-1.748647922e-09
-1.547630013e-09
-1.388321271e-09
-1.154905157e-09
-9.350872284e-10
-7.136150087e-10
-5.021674347e-10
-3.230588392e-10
-1.48194438e-10
-1.938409344e-10
-2.540107935e-10
-1.346881318e-10
1.248558576e-11
-1.964891991e-11
-1.139102585e-10
6.181485757e-12
-1.321502196e-11
-1.888628296e-10
-2.168591844e-10
3.773827721e-11
3.519535263e-11
-3.271554836e-10
-3.605000309e-10
-1.270697801e-10
-6.70389599e-11
-3.340909843e-10
-3.251304958e-10
-3.973939379e-11
9.612568102e-11
-1.739559171e-11
-9.217432959e-11
6.129503507e-11
2.143086208e-10
4.002719408e-10
5.003077385e-10
5.839699395e-10
7.121626686e-10
7.90422266e-10
8.653388573e-10
8.369695105e-10
6.622215079e-10
5.837968256e-10
6.735695032e-10
7.773942353e-10
8.925920559e-10
8.595847462e-10
7.487936895e-10
8.845000533e-10
1.203611387e-09
1.621637407e-09
1.902171895e-09
1.941632494e-09
1.98846005e-09
2.111812503e-09
2.237260862e-09
2.283984626e-09
2.281351369e-09
2.612574761e-09
3.224273101e-09
3.750365628e-09
3.708383015e-09
3.333364488e-09
3.504225076e-09
3.921800775e-09
4.093486579e-09
4.557182315e-09
5.217083253e-09
5.527626919e-09
5.670893317e-09
5.997918705e-09
7.28076683e-09
8.525438349e-09
9.209309052e-09
9.923289529e-09
1.198961995e-08
1.286585288e-08
1.290919185e-08
1.60161464e-08
2.042469629e-08
2.635931476e-08
3.397383163e-08
4.073551402e-08
3.936596154e-08
-3.531310892e-08
-9.615109406e-08
-7.2810552e-08
-5.697752337e-08
-5.482385133e-08
)


100
(
1.70059154e-08
1.031483597e-08
2.148538598e-09
-4.548205144e-11
-1.152030886e-09
-1.807992937e-09
-2.146472299e-09
-2.232983177e-09
-2.213117122e-09
-2.092212983e-09
-1.879624791e-09
-1.715709254e-09
-1.535279357e-09
-1.198764243e-09
-1.011171923e-09
-8.898390241e-10
-6.068603223e-10
-2.985100765e-10
-1.898604779e-10
-1.403767838e-10
3.651312608e-11
2.467223315e-10
1.154308912e-10
-9.583528273e-11
-1.218519793e-11
9.469182276e-11
1.227813579e-10
-8.86068263e-12
2.602260806e-12
-5.871957994e-11
-2.806982086e-10
-1.172589355e-10
1.653734484e-10
-3.837831091e-11
-4.466365701e-10
-3.27604859e-10
-1.942554847e-11
-2.180496343e-11
-1.629671992e-10
-1.949458792e-11
3.169415944e-10
5.660345436e-10
6.747987216e-10
6.045464524e-10
6.48751329e-10
7.893227515e-10
9.96187327e-10
1.219902035e-09
1.145012592e-09
1.043383104e-09
1.110692085e-09
1.133691072e-09
1.188992018e-09
1.257318862e-09
1.155090851e-09
1.232843557e-09
1.620677884e-09
2.027079289e-09
2.482354538e-09
2.669514881e-09
2.441124301e-09
2.333493066e-09
2.650089311e-09
3.054217797e-09
3.177727319e-09
3.083740655e-09
3.298911377e-09
3.832782432e-09
4.457893858e-09
4.924714457e-09
4.827076799e-09
4.69615432e-09
4.868970094e-09
5.032710443e-09
5.103457935e-09
5.661518333e-09
6.483632584e-09
6.786434516e-09
6.898429725e-09
7.402457085e-09
8.86587184e-09
1.03466505e-08
1.133797397e-08
1.238586823e-08
1.41973888e-08
1.706133279e-08
1.869254206e-08
1.972929048e-08
2.32324233e-08
2.818373878e-08
3.59280627e-08
4.352836804e-08
5.531985468e-08
6.757596265e-08
4.908619509e-08
-7.583840362e-08
-1.502041935e-07
-1.042453154e-07
-8.383673718e-08
-8.004342583e-08
)


100
(
1.687004284e-08
1.040800623e-08
2.500507458e-09
3.804890869e-10
-7.367245022e-10
-1.444548701e-09
-1.810477047e-09
-1.91365953e-09
-1.867329023e-09
-1.762247195e-09
-1.558276032e-09
-1.275592271e-09
-1.106342696e-09
-8.890429272e-10
-4.62356792e-10
-3.200524286e-10
-2.892746638e-10
3.603704964e-12
3.22923405e-10
2.824590109e-10
1.566090101e-10
2.835060888e-10
4.43132616e-10
3.4230052e-10
6.286953573e-11
1.3494052e-11
9.132775391e-11
2.041275901e-10
6.491133644e-11
-4.771212689e-11
-1.330706863e-10
-2.512366592e-10
3.919485477e-11
2.937148174e-10
1.840358025e-11
-2.149490443e-10
2.968312383e-11
3.533797599e-10
5.696292279e-10
6.904482388e-10
8.438318631e-10
1.079037655e-09
1.305370636e-09
1.619590056e-09
1.612242371e-09
1.30072005e-09
1.248364521e-09
1.418789916e-09
1.641345152e-09
1.866836293e-09
1.738804065e-09
1.60470649e-09
1.878915575e-09
2.198857922e-09
2.64590534e-09
3.33487449e-09
3.51798209e-09
3.461217723e-09
3.731272328e-09
3.99485953e-09
4.266223965e-09
4.053591169e-09
3.612879985e-09
3.91231771e-09
4.632203044e-09
5.158126847e-09
5.60840039e-09
5.577016296e-09
5.417020748e-09
5.990927492e-09
6.625837611e-09
6.385017217e-09
6.51973063e-09
7.696003845e-09
8.74256577e-09
9.041075096e-09
9.094439006e-09
9.797515459e-09
1.13637065e-08
1.339156899e-08
1.513584037e-08
1.601835085e-08
1.658055245e-08
2.041946339e-08
2.393492506e-08
2.630832573e-08
2.896890328e-08
3.271558309e-08
3.884785046e-08
4.72513641e-08
5.858494412e-08
7.361625635e-08
9.434094523e-08
1.074436799e-07
3.933696044e-08
-1.533640061e-07
-2.19949713e-07
-1.444107884e-07
-1.21161811e-07
-1.17161133e-07
)


100
(
1.661281408e-08
1.039493507e-08
2.800250602e-09
8.058124128e-10
-3.120186085e-10
-1.04496582e-09
-1.400495991e-09
-1.526603755e-09
-1.446920037e-09
-1.291721015e-09
-1.111346923e-09
-7.90866477e-10
-4.679735753e-10
-3.24756491e-10
-8.504567508e-11
3.912419889e-10
4.165339654e-10
2.820635111e-10
5.083517354e-10
8.197128729e-10
6.444271995e-10
3.204896276e-10
4.094728062e-10
5.31729464e-10
5.271742312e-10
2.066988045e-10
9.901901445e-16
7.91960517e-11
1.969199261e-10
2.714425239e-10
1.342203691e-10
-3.25486567e-10
3.622451687e-11
6.819386823e-10
7.849112796e-10
7.538494034e-10
7.132792656e-10
9.255806125e-10
1.184825261e-09
1.645026117e-09
1.902946969e-09
1.827496661e-09
1.896888422e-09
2.069879218e-09
2.287960326e-09
2.5488959e-09
2.344399182e-09
1.923389352e-09
2.123680464e-09
2.596278464e-09
3.012162864e-09
3.646492714e-09
3.990289276e-09
4.080017347e-09
4.42259424e-09
4.754447252e-09
5.430189693e-09
6.018692757e-09
5.331468154e-09
4.791424507e-09
5.282362069e-09
5.781713637e-09
6.213835814e-09
6.513346807e-09
6.411410211e-09
6.345508211e-09
6.825490741e-09
7.413646543e-09
6.803463867e-09
7.039717374e-09
8.812223619e-09
1.044998811e-08
1.163771292e-08
1.205258522e-08
1.275891007e-08
1.408847232e-08
1.546954223e-08
1.75058032e-08
1.971310585e-08
2.091903725e-08
2.241425723e-08
2.58215307e-08
2.950762667e-08
3.290123189e-08
3.588663138e-08
4.252928274e-08
4.840320962e-08
5.238572844e-08
6.515814816e-08
7.941639603e-08
9.517904214e-08
1.199737918e-07
1.479070689e-07
1.626887453e-07
-4.263221273e-09
-2.843316092e-07
-3.062865994e-07
-1.968304376e-07
-1.700785721e-07
-1.627787666e-07
)


100
(
1.624128882e-08
1.028264292e-08
3.099951993e-09
1.212492215e-09
8.63498043e-11
-6.142590825e-10
-9.489079872e-10
-1.047119497e-09
-9.625166951e-10
-6.924805303e-10
-4.780940528e-10
-2.577571587e-10
1.972447412e-10
5.029927014e-10
5.427007678e-10
7.271528459e-10
1.173218142e-09
1.074198045e-09
7.408411464e-10
8.441774665e-10
1.062198051e-09
8.982802156e-10
5.075747264e-10
4.67244556e-10
5.77764942e-10
7.0713344e-10
4.341546332e-10
9.99423532e-11
1.935145921e-10
3.919110647e-10
6.908990157e-10
7.702872442e-10
5.895723355e-10
9.944356686e-10
1.600703218e-09
1.846727321e-09
2.221460512e-09
2.109418575e-09
1.899961856e-09
2.198212918e-09
2.611561641e-09
3.150626123e-09
3.071229166e-09
2.689922317e-09
2.824129501e-09
3.21732426e-09
3.631700182e-09
4.174726667e-09
4.376376892e-09
4.411405893e-09
4.834411574e-09
5.35671293e-09
6.081059034e-09
7.302450195e-09
7.018346098e-09
5.901911505e-09
6.191348855e-09
6.851542028e-09
7.384093152e-09
7.849688486e-09
7.565495772e-09
7.296785224e-09
7.752674335e-09
8.543224157e-09
9.495592903e-09
8.501544662e-09
7.739455305e-09
9.047904133e-09
1.057269771e-08
1.247737424e-08
1.409919335e-08
1.529909032e-08
1.669459736e-08
1.78657259e-08
1.921867351e-08
2.296895755e-08
2.768834148e-08
2.916255923e-08
2.911118929e-08
3.156921029e-08
3.698750643e-08
4.252732406e-08
4.565398218e-08
4.928098308e-08
5.901692262e-08
6.773386017e-08
7.117103445e-08
8.677600338e-08
1.10120153e-07
1.291653818e-07
1.474686486e-07
1.795366783e-07
2.233223822e-07
2.25622873e-07
-9.551490765e-08
-4.554143893e-07
-4.084609056e-07
-2.761468883e-07
-2.499977813e-07
-2.523154149e-07
)


100
(
1.581736421e-08
1.01642176e-08
3.34674705e-09
1.53753661e-09
5.028071161e-10
-1.517207452e-10
-4.778441637e-10
-4.727286184e-10
-3.629021264e-10
-1.204378073e-10
3.511053431e-10
5.515728611e-10
7.42138979e-10
1.288909234e-09
1.487177257e-09
1.340799651e-09
1.410082751e-09
1.776166064e-09
1.597193882e-09
1.07252549e-09
1.028430907e-09
1.203870187e-09
1.151458341e-09
7.334964871e-10
5.526230277e-10
7.055207146e-10
8.926135801e-10
9.675316379e-10
7.323901165e-10
7.167653849e-10
1.106377132e-09
1.609528126e-09
2.324395683e-09
2.474536773e-09
2.378257233e-09
2.762377396e-09
3.147674011e-09
3.75530853e-09
3.983815766e-09
3.356048694e-09
3.051243971e-09
3.535119006e-09
4.159803371e-09
4.742068742e-09
4.708308975e-09
4.573380936e-09
5.294788235e-09
6.190578509e-09
6.917177674e-09
7.970949791e-09
8.138636873e-09
7.319459138e-09
7.169460564e-09
7.894168174e-09
8.823436089e-09
9.336156979e-09
8.210941365e-09
7.834044377e-09
9.124662015e-09
9.478330973e-09
1.039873469e-08
1.129323211e-08
1.034204834e-08
9.773726899e-09
1.114402304e-08
1.276898928e-08
1.373909684e-08
1.495101311e-08
1.682272374e-08
1.883422176e-08
2.057533435e-08
2.178551747e-08
2.349731753e-08
2.677121366e-08
3.177436584e-08
3.657275931e-08
3.967834196e-08
4.218662293e-08
4.433544718e-08
5.063390265e-08
5.907151814e-08
6.308824557e-08
6.825342729e-08
7.925312803e-08
8.962902294e-08
9.533818429e-08
1.110802193e-07
1.422698336e-07
1.644159487e-07
1.888889165e-07
2.237547103e-07
2.783178191e-07
3.30194126e-07
2.744019075e-07
-2.295010312e-07
-6.595019482e-07
-5.349789772e-07
-3.820490777e-07
-3.395144811e-07
-3.312213778e-07
)


100
(
1.53774918e-08
1.000608906e-08
3.529519889e-09
1.846479573e-09
9.038513894e-10
3.157342372e-10
3.864049655e-11
9.26127312e-11
3.726665847e-10
6.193427546e-10
9.961555534e-10
1.544744545e-09
1.682427153e-09
1.814667633e-09
2.328765638e-09
2.369588695e-09
1.991654771e-09
1.936366194e-09
2.198026265e-09
2.002987847e-09
1.362541194e-09
1.169494534e-09
1.352377796e-09
1.542359287e-09
1.159148739e-09
8.354615775e-10
1.155046628e-09
1.533404818e-09
2.048625958e-09
2.187148827e-09
2.139040432e-09
2.570450498e-09
3.214144525e-09
4.030760914e-09
4.794996568e-09
4.5270506e-09
4.150461563e-09
4.468114756e-09
5.068200054e-09
5.778305816e-09
5.521816631e-09
4.708307714e-09
5.091447211e-09
6.174727863e-09
7.08916936e-09
8.270327118e-09
8.79115283e-09
8.673143748e-09
9.044855606e-09
9.475837712e-09
1.028843196e-08
1.11589963e-08
9.471623618e-09
7.816767762e-09
9.140126989e-09
1.059420773e-08
1.14502238e-08
1.253931796e-08
1.203457701e-08
1.139119824e-08
1.203386415e-08
1.393934321e-08
1.604658624e-08
1.460696214e-08
1.484098501e-08
1.845032808e-08
2.153020775e-08
2.429141258e-08
2.562210673e-08
2.65989801e-08
2.904982472e-08
3.257225167e-08
3.641328434e-08
4.086399121e-08
4.562250425e-08
4.979580167e-08
5.458231757e-08
6.164348618e-08
7.136736052e-08
7.94952669e-08
8.351892109e-08
8.891512944e-08
1.028076424e-07
1.194628453e-07
1.294954965e-07
1.402314665e-07
1.638940899e-07
1.951702144e-07
2.331170067e-07
2.74732739e-07
3.19382799e-07
4.04247132e-07
4.795488703e-07
3.407012456e-07
-3.932300589e-07
-9.038036616e-07
-6.994243937e-07
-5.208772197e-07
-5.104286158e-07
-5.422849013e-07
)


100
(
1.493647121e-08
9.8084943e-09
3.648381199e-09
2.140936931e-09
1.285833512e-09
7.601529483e-10
6.101751648e-10
7.064399438e-10
1.070871493e-09
1.514648051e-09
1.839140188e-09
2.304693778e-09
2.794572252e-09
2.779093934e-09
2.774831483e-09
3.195966677e-09
3.117108607e-09
2.52885115e-09
2.328896151e-09
2.511984293e-09
2.426723253e-09
1.754135594e-09
1.417944135e-09
1.688449109e-09
2.01902481e-09
2.099385365e-09
1.978117656e-09
2.30609503e-09
2.98674165e-09
3.765179578e-09
4.723563886e-09
4.709890866e-09
4.477931997e-09
5.085186806e-09
5.881129613e-09
7.025451456e-09
7.050773022e-09
6.052827206e-09
5.962672042e-09
6.809793507e-09
7.744274534e-09
8.704350939e-09
8.712661761e-09
8.626462868e-09
9.571326682e-09
1.04252117e-08
1.131693149e-08
1.329911333e-08
1.279138033e-08
1.05803041e-08
1.046323689e-08
1.11393763e-08
1.183291536e-08
1.224281187e-08
1.189521498e-08
1.228616678e-08
1.382834383e-08
1.465445899e-08
1.704221964e-08
1.759894372e-08
1.5149865e-08
1.620675174e-08
1.964264153e-08
2.271937031e-08
2.612140587e-08
2.859565463e-08
3.034146199e-08
3.283764588e-08
3.547273378e-08
3.722888177e-08
4.011145253e-08
4.781142108e-08
5.627795882e-08
6.043106429e-08
6.379571335e-08
7.042106239e-08
7.862697158e-08
8.88533007e-08
1.000374854e-07
1.082614835e-07
1.172835559e-07
1.358154953e-07
1.542453269e-07
1.632195499e-07
1.793454014e-07
2.087530156e-07
2.430160753e-07
2.831085623e-07
3.135579712e-07
3.740498688e-07
4.438241371e-07
5.432186844e-07
6.414405075e-07
3.890662131e-07
-5.692850747e-07
-1.162388572e-06
-9.028665358e-07
-6.942723139e-07
-7.415869866e-07
-8.348575121e-07
)


100
(
1.440000377e-08
9.532906145e-09
3.752668029e-09
2.393792509e-09
1.619316444e-09
1.192116508e-09
1.164280509e-09
1.392105154e-09
1.801975438e-09
2.428031154e-09
2.88364546e-09
3.146412167e-09
3.630672762e-09
3.967129138e-09
3.728535919e-09
3.566571517e-09
3.890636557e-09
3.785371293e-09
3.033101352e-09
2.677874117e-09
2.858275149e-09
3.065585499e-09
2.47388806e-09
2.020314112e-09
2.535444901e-09
3.174855887e-09
4.075091811e-09
4.27215617e-09
4.372846076e-09
5.283913638e-09
6.203317602e-09
7.46249714e-09
7.950585597e-09
7.154182367e-09
6.930336132e-09
7.793450458e-09
9.031740562e-09
1.016796677e-08
9.613033011e-09
8.708018581e-09
9.761710927e-09
1.124257729e-08
1.247746676e-08
1.398563132e-08
1.418345475e-08
1.317966868e-08
1.301199966e-08
1.35374216e-08
1.466142198e-08
1.534861483e-08
1.285462744e-08
1.131655708e-08
1.325618884e-08
1.500660114e-08
1.604373738e-08
1.833767491e-08
1.889303507e-08
1.798675293e-08
1.957154581e-08
2.203418171e-08
2.436377249e-08
2.36369822e-08
2.563874108e-08
3.173518736e-08
3.644101253e-08
4.028341872e-08
4.240172229e-08
4.465009594e-08
4.880846818e-08
5.502872567e-08
6.376648461e-08
7.004658226e-08
7.443617591e-08
8.029672076e-08
8.64651549e-08
9.71857092e-08
1.129040931e-07
1.277137882e-07
1.406666765e-07
1.514322889e-07
1.653250431e-07
1.849174618e-07
2.049584721e-07
2.301306583e-07
2.754025182e-07
3.103456682e-07
3.27482285e-07
3.785916578e-07
4.414062649e-07
5.151484004e-07
6.784005945e-07
7.60439178e-07
7.991678482e-07
3.613338799e-07
-8.678755361e-07
-1.450802662e-06
-1.136899186e-06
-9.082219492e-07
-1.025909446e-06
-1.196473967e-06
)


100
(
1.380961859e-08
9.214934699e-09
3.821738048e-09
2.591996778e-09
1.926466451e-09
1.616645722e-09
1.679211494e-09
2.121027381e-09
2.624893334e-09
3.210208446e-09
4.033178747e-09
4.301162339e-09
4.346800557e-09
4.839898309e-09
5.006246882e-09
4.53358586e-09
4.257105716e-09
4.490394592e-09
4.455548619e-09
3.641343169e-09
3.167479476e-09
3.483395449e-09
3.889685803e-09
3.934042134e-09
3.802719521e-09
4.370201143e-09
5.422627643e-09
6.642598255e-09
7.817977583e-09
7.991321797e-09
8.09111967e-09
8.878476313e-09
1.012697221e-08
1.167133602e-08
1.067296864e-08
9.146938141e-09
1.027970271e-08
1.20124675e-08
1.345750838e-08
1.513612794e-08
1.492064867e-08
1.416030551e-08
1.500487922e-08
1.576654332e-08
1.741956585e-08
1.974948185e-08
1.708698396e-08
1.334883043e-08
1.424108869e-08
1.575215992e-08
1.691894769e-08
1.826951396e-08
1.813223906e-08
1.806155171e-08
1.97213805e-08
2.248659392e-08
2.674629439e-08
2.621161081e-08
2.310153716e-08
2.655489762e-08
3.193400101e-08
3.622482938e-08
4.110424547e-08
4.542238332e-08
4.843018959e-08
5.174545938e-08
5.654466923e-08
6.047848633e-08
6.64848535e-08
7.786386076e-08
8.89723029e-08
9.570826231e-08
1.017359591e-07
1.114596478e-07
1.277106371e-07
1.411740808e-07
1.506529218e-07
1.640036938e-07
1.827618437e-07
2.108295145e-07
2.425152622e-07
2.586608403e-07