/*--------------------------------*- C++ -*----------------------------------*\
| =========                 |                                                 |
| \\      /  F ield         | OpenFOAM: The Open Source CFD Toolbox           |
|  \\    /   O peration     | Version:  2.3.1                                 |
|   \\  /    A nd           | Web:      www.OpenFOAM.org                      |
|    \\/     M anipulation  |                                                 |
\*---------------------------------------------------------------------------*/
FoamFile
{
    version     2.0;
    format      ascii;
    class       dictionary;
    location    "constant";
    object      GRPSI36;
}
// * * * * * * * * * * * * * * * * * * * * * * * * * * * * * * * * * * * * * //

GRPSI36_table
100
(

100
(
0.008925284885
0.007336377471
0.004922507813
0.003704685637
0.002979877594
0.002446162562
0.002070238247
0.001776040232
0.001527591608
0.001350844649
0.001135515923
0.0009403419859
0.0008594762794
0.0006962131752
0.0005701795398
0.0005320579936
0.0004002252562
0.0002841583722
0.0002730005981
0.0001841895787
7.128096059e-05
4.170031573e-05
1.13806582e-05
-9.405670374e-05
-0.0001695862893
-0.0001667159488
-0.0002066960493
-0.0003054608994
-0.0003587752334
-0.0003518625518
-0.000405517986
-0.000494312652
-0.0005211987283
-0.0005106428057
-0.0005336540405
-0.0006275713852
-0.0006851153487
-0.0006707584512
-0.0006882179041
-0.0007703465779
-0.0008208801794
-0.0008052407741
-0.0008170855061
-0.0008844949385
-0.0009228289083
-0.0009043672774
-0.0008907784428
-0.0009758287827
-0.001054528013
-0.001035368207
-0.001035104053
-0.00110568918
-0.00115945469
-0.00114170794
-0.001151443388
-0.001199693551
-0.001217791444
-0.001194953205
-0.001204312407
-0.001268319643
-0.001298716359
-0.001272550909
-0.001287842387
-0.001347434869
-0.001363580349
-0.001333393392
-0.001372184622
-0.00142723325
-0.001411070075
-0.001407482924
-0.0014563755
-0.001474409733
-0.001450517872
-0.00149304464
-0.001522144698
-0.001498259267
-0.001534071827
-0.001552422673
-0.001545437786
-0.001572737947
-0.001564366899
-0.001583755131
-0.001595729661
-0.001597880134
-0.001605779108
-0.001610045076
-0.001617943323
-0.001613257052
-0.001623809751
-0.001613534263
-0.001605741312
-0.001606741068
-0.001609086355
-0.001609395089
-0.001603223073
-0.001612909078
-0.00164475611
-0.001687370745
-0.001993610224
-0.002273124486
)


100
(
0.008816178657
0.007292019255
0.004942379606
0.003730616289
0.003036537358
0.002486053363
0.002111153183
0.001830357292
0.001582436712
0.001406690938
0.001205313793
0.001015669154
0.0008944752706
0.0007606594225
0.0006394944466
0.0005651738053
0.0004697139503
0.0003679925311
0.000310869267
0.0002475568565
0.0001651700991
0.0001026859817
5.927473418e-05
-3.695795046e-07
-7.360838455e-05
-0.0001214430659
-0.0001521480934
-0.0001973376118
-0.0002597045504
-0.0003043680047
-0.0003330793764
-0.0003753477273
-0.0004287681444
-0.0004664155188
-0.0004813466244
-0.0005032734597
-0.0005463782754
-0.0005963551608
-0.0006247789129
-0.0006429931738
-0.0006736476456
-0.0007189660506
-0.0007505706861
-0.0007638312695
-0.0007821315472
-0.0008184224059
-0.0008455345538
-0.0008507116047
-0.0008594611296
-0.0008901027468
-0.0009426241791
-0.0009742241478
-0.0009829468979
-0.001004075969
-0.001047131397
-0.001075271243
-0.001078065244
-0.001087967108
-0.001111176625
-0.00113757858
-0.001102814836
-0.001084484133
-0.001183327175
-0.001235309065
-0.001143347238
-0.001115306241
-0.001270467342
-0.001265235384
-0.00114345054
-0.001210316826
-0.00131589149
-0.001219375635
-0.001168110188
-0.001358316095
-0.001342210453
-0.001157804364
-0.001292698497
-0.001366998022
-0.001172808214
-0.001294699356
-0.00130941102
-0.001187977006
-0.001354290688
-0.001196118399
-0.001191461367
-0.001320438831
-0.001152383864
-0.001252043348
-0.001214760104
-0.00118149598
-0.001226827178
-0.001241655383
-0.001279170053
-0.001313296735
-0.001348722087
-0.00142468176
-0.001887680261
-0.003316548725
-0.004187098359
-0.00393888929
)


100
(
0.008687560724
0.00723184417
0.004953754704
0.003770752938
0.003083676112
0.002538164662
0.002151698407
0.00186910592
0.001631370189
0.001446127086
0.001270414339
0.001082785553
0.0009482883823
0.0008164243693
0.0006954922258
0.0006112503579
0.000528659656
0.0004349331714
0.000363790899
0.0003055600235
0.000236376679
0.0001715925604
0.0001177491191
6.554722453e-05
8.955382697e-06
-4.64386901e-05
-9.441610121e-05
-0.0001352337962
-0.0001741830115
-0.0002166292538
-0.0002634072212
-0.0003046459265
-0.0003385353081
-0.0003739873795
-0.000413952396
-0.0004465184626
-0.0004667680092
-0.0004838491549
-0.0005155223333
-0.0005621248278
-0.0005939140861
-0.0006089825127
-0.0006238609265
-0.0006657406414
-0.0007074506935
-0.0007210296094
-0.0007290044905
-0.0007503408746
-0.000784754057
-0.0008047455467
-0.0008075220669
-0.0008085491106
-0.0008603444512
-0.0009215045616
-0.0009303806607
-0.0008976847654
-0.0009387721266
-0.001015853388
-0.001014553031
-0.0009708130313
-0.001001172846
-0.001007539582
-0.0009618539204
-0.001039421021
-0.0011111737
-0.001034172633
-0.000961272324
-0.001088694122
-0.001117509891
-0.001002813271
-0.0009896562232
-0.001083015708
-0.001095421681
-0.001013515661
-0.001068425025
-0.001205114049
-0.001125175356
-0.0009630793084
-0.001061282799
-0.001100355014
-0.001082848066
-0.001021433406
-0.001098875312
-0.001152574098
-0.0009723169187
-0.001059861095
-0.001081598796
-0.0009887622439
-0.00104914521
-0.001086040809
-0.001074888066
-0.001082427329
-0.001151441752
-0.001168498043
-0.001198195559
-0.001418813045
-0.002607118376
-0.00410135805
-0.004370559162
-0.004190387022
)


100
(
0.008555339895
0.007158317565
0.004980066658
0.003805595485
0.003092964843
0.002584321056
0.002192884892
0.001904558944
0.001691693088
0.001486517182
0.001324214963
0.00114435875
0.0009973067022
0.0008798999761
0.0007513655758
0.0006533012079
0.0005790132436
0.0004988200376
0.0004183819853
0.0003564014649
0.0003000983574
0.0002371924831
0.0001797463711
0.0001266671762
7.487142193e-05
2.476951736e-05
-2.234047832e-05
-6.997823535e-05
-0.0001134622645
-0.0001485120367
-0.0001806493567
-0.0002233401935
-0.0002693935659
-0.0003031943663
-0.000330098017
-0.0003611306816
-0.0003997451937
-0.0004302371017
-0.0004451997233
-0.0004548683231
-0.000482666541
-0.0005330021898
-0.0005675410291
-0.0005763749809
-0.000575364062
-0.0006187922413
-0.0006735302644
-0.000678781609
-0.0006479822305
-0.0006830407055
-0.0007564534044
-0.0007604070055
-0.000720831042
-0.0007501570964
-0.0008433029153
-0.0008511259239
-0.0007626918749
-0.0007757946174
-0.0008998878576
-0.0008952795832
-0.0008166520102
-0.0008596187613
-0.0009052441066
-0.0008763311149
-0.0008938709195
-0.0009412508806
-0.0009283329391
-0.0008777944339
-0.000877158807
-0.0009319642286
-0.0009686117554
-0.000948819613
-0.000911067391
-0.0008896758426
-0.000939047015
-0.001023608038
-0.0009332113636
-0.0008103076836
-0.0009893637887
-0.001018615155
-0.0008510862072
-0.0009181089611
-0.0009484413327
-0.0008780151634
-0.0008759362485
-0.0009154048153
-0.0009376015637
-0.00093343454
-0.0009348477223
-0.000924605424
-0.0009329261816
-0.0009736253193
-0.0009663420448
-0.0009978584958
-0.001097087491
-0.001316130163
-0.003309757808
-0.004700024324
-0.004311158986
-0.0043402369
)


100
(
0.008455887935
0.007097915508
0.004973627389
0.003806857426
0.003125790131
0.002625668373
0.00223523513
0.001938161577
0.001725822507
0.001528834653
0.001362184265
0.001216983639
0.001049612639
0.0009243405162
0.0008166341552
0.0007029900422
0.0006179750835
0.0005507313839
0.0004794070282
0.0004083696204
0.0003500428686
0.0002978037567
0.000241657083
0.000186839726
0.0001344053384
8.516972966e-05
4.007663799e-05
-8.886271975e-07
-4.438274972e-05
-8.847079451e-05
-0.0001244589255
-0.0001525912546
-0.0001828037805
-0.0002283556655
-0.0002716801314
-0.0002951690803
-0.0003084450468
-0.0003469907455
-0.0003964442466
-0.0004143118806
-0.0004130293092
-0.0004214573485
-0.000474310887
-0.0005209282026
-0.0005087983717
-0.0004704544053
-0.0005292793624
-0.0006185501185
-0.0005993104758
-0.0005440172512
-0.0005906601865
-0.0006841920382
-0.0006731457841
-0.000622736183
-0.0006648217065
-0.0007522640191
-0.0007112074371
-0.0006341963685
-0.0006680218683
-0.0007464853092
-0.0007582983758
-0.0007281178495
-0.0007486932033
-0.0008035915441
-0.0008293644212
-0.0008207125106
-0.0007921509301
-0.0008038652412
-0.0008390561909
-0.0008308401916
-0.0008098321927
-0.0008002323423
-0.0008484066363
-0.0008953924226
-0.0008072154798
-0.0007110798555
-0.0008020268865
-0.0008633863923
-0.0007843555531
-0.0007313081751
-0.0007553464126
-0.0008352016675
-0.0008443354798
-0.0007889718765
-0.0008015528588
-0.0007773145374
-0.0007502065122
-0.0007967125794
-0.0008457046706
-0.0008307899064
-0.0007580559084
-0.0008208150224
-0.0008403547031
-0.0008313737183
-0.000940135311
-0.00141741467
-0.003802328442
-0.005057645179
-0.00439046779
-0.004424229962
)


100
(
0.008345789004
0.00702619489
0.004955047111
0.00380428161
0.003156326713
0.002658108013
0.002271323691
0.001981063579
0.001756188116
0.001586720925
0.001399642559
0.001254291028
0.001117634681
0.0009718266169
0.000862385475
0.0007651475511
0.0006651436804
0.0005890168725
0.0005294749024
0.000466504659
0.0004022798581
0.0003471182336
0.0002986115716
0.000246754946
0.0001926006041
0.0001394402425
9.193027816e-05
5.28877033e-05
1.933017551e-05
-1.783520581e-05
-6.289489487e-05
-0.0001024004241
-0.0001264270371
-0.0001462451413
-0.0001907857627
-0.0002389066458
-0.0002561658068
-0.0002473314589
-0.0002853512583
-0.0003537931081
-0.0003711683707
-0.0003491453391
-0.0003560468355
-0.0004261573262
-0.0004673746935
-0.0004149080159
-0.0003687597097
-0.0004617041688
-0.0005467448241
-0.0005003883193
-0.000456348083
-0.0005125737473
-0.0005802104234
-0.0005694778182
-0.0005454049618
-0.0005730877077
-0.0005998325836
-0.0006094811383
-0.0006189447771
-0.0006072355425
-0.0006165116462
-0.0006706640724
-0.0007068236208
-0.0006860784479
-0.0006546701383
-0.0006751107156
-0.0007277650955
-0.0007297718315
-0.0007034512725
-0.0006886172079
-0.0007195641411
-0.0007610937384
-0.0007538545278
-0.0006998454828
-0.000723067715
-0.0007334578466
-0.0006664961023
-0.0006402980405
-0.0006620232662
-0.0007397714828
-0.0007359297663
-0.0006150466517
-0.0006345507804
-0.0006930766047
-0.0006599941509
-0.0006855770387
-0.0007015680036
-0.0006701832117
-0.0006582750072
-0.0006982950837
-0.0006814981346
-0.0006728855754
-0.000675797283
-0.000679052558
-0.0008236685855
-0.001901297793
-0.004243941169
-0.004989341903
-0.004400220118
-0.00444107421
)


100
(
0.008219185899
0.006939968918
0.004924690821
0.003825340163
0.00318138831
0.002680700305
0.002303652984
0.00202116521
0.001784562018
0.001614438567
0.001456923147
0.001289714752
0.00116299768
0.001033169513
0.0009065531771
0.000811437209
0.0007245174288
0.0006361104033
0.0005674418297
0.0005147581546
0.0004589890634
0.0004005471097
0.0003483005503
0.0003025145622
0.0002525428953
0.0001958285586
0.000141313253
9.613027e-05
6.479584258e-05
4.196817533e-05
1.099055543e-05
-3.576145068e-05
-7.585422333e-05
-9.158653444e-05
-0.0001050960031
-0.0001530635371
-0.0002016986015
-0.0002008136099
-0.0001852584669
-0.0002341248768
-0.0003044325708
-0.0003089448962
-0.0002811190198
-0.0003006261801
-0.0003741027713
-0.0003780386221
-0.0003244885571
-0.000314688741
-0.000391339631
-0.0004365162149
-0.0004057347721
-0.0003995450806
-0.0004278345426
-0.0004845233318
-0.0005165820327
-0.0005192778324
-0.0005116554107
-0.0005148695985
-0.0005484620877
-0.0005726084562
-0.0005580027784
-0.0005302714521
-0.0005181251725
-0.0005682218359
-0.0006116745275
-0.000596198799
-0.0005908320838
-0.0005773561893
-0.000601862119
-0.0006534473374
-0.0006425918977
-0.0005907417041
-0.0005919965463
-0.0006362666405
-0.0006228251452
-0.0006135532793
-0.0006075665502
-0.0006167631629
-0.0006155123662
-0.0005466466296
-0.0005543719784
-0.000577322432
-0.0005502435126
-0.0005542634616
-0.0005613859702
-0.0005453189338
-0.0005701171442
-0.0006066787385
-0.0005674565831
-0.0005251635065
-0.0005563274432
-0.0005613738083
-0.000534103094
-0.0005530480075
-0.0006506026091
-0.002281192996
-0.004617479214
-0.004834666373
-0.004343162984
-0.004421907051
)


100
(
0.008079223816
0.00684171657
0.0049002709
0.003838731887
0.003183999277
0.002705244432
0.002332566524
0.002050090717
0.001837754643
0.001639946544
0.001493583808
0.001335731462
0.001195651932
0.001085662338
0.0009637248259
0.0008530061476
0.0007702225786
0.0006933221881
0.0006156955712
0.0005529989605
0.0005053910983
0.0004560272343
0.0004030272757
0.0003535902127
0.0003097212158
0.0002599172145
0.0001977386747
0.0001403498711
9.970777705e-05
8.044499341e-05
6.983814541e-05
4.167960482e-05
-7.121200757e-06
-4.39679317e-05
-4.910325453e-05
-6.226122921e-05
-0.0001165678683
-0.0001577351533
-0.000141662131
-0.0001285418536
-0.0001837845249
-0.0002444821366
-0.0002383538026
-0.0002177798334
-0.0002470747528
-0.0002920638353
-0.000291074418
-0.0002714355873
-0.0002772556352
-0.000314287048
-0.0003618646284
-0.0003863453415
-0.0003896901847
-0.0003774045346
-0.0003687005522
-0.0004173783037
-0.0004677429682
-0.0004623026528
-0.0004459747119
-0.0004429584228
-0.000476972113
-0.0004974764436
-0.0004802722843
-0.0004765930173
-0.0004707259385
-0.0004733425528
-0.0005209785977
-0.0005528447105
-0.0004984740243
-0.0004406442173
-0.0004790669399
-0.0005244223864
-0.000532827053
-0.0005349157568
-0.0005145566873
-0.0005455183847
-0.0005337192765
-0.0004470667127
-0.0004532141138
-0.0004983430574
-0.000497755055
-0.0004844445448
-0.0004739379586
-0.0004573314207
-0.0004313089222
-0.0004399646842
-0.0004744627456
-0.0005042610854
-0.000455649742
-0.0003817378673
-0.0004219931208
-0.0004488310689
-0.0004354102681
-0.0004464156028
-0.000585890273
-0.002630141167
-0.004795727938
-0.004592000582
-0.004218915597
-0.004305088757
)


100
(
0.007943368848
0.00674628016
0.004874203321
0.003831677567
0.003190711838
0.002724744293
0.002364269876
0.002076511526
0.001867804215
0.001672279483
0.00151569282
0.001389269802
0.001233823849
0.001115753847
0.001020226289
0.0009077994958
0.0008105456148
0.0007381496065
0.0006703537792
0.0006025495371
0.0005440473045
0.0004994422441
0.0004556041238
0.0004067911621
0.0003614119347
0.0003182497004
0.0002673710803
0.0002015644639
0.0001421653891
0.0001085437799
0.0001024408714
0.0001014838923
7.343665378e-05
2.425903989e-05
-3.515684622e-06
-3.490860718e-06
-2.220154451e-05
-7.773268126e-05
-0.0001019858158
-8.415321314e-05
-8.465773932e-05
-0.0001323347676
-0.0001729521231
-0.0001715218359
-0.000171041087
-0.0001896246021
-0.0002266669355
-0.000253957914
-0.0002620204867
-0.0002624282822
-0.000258504997
-0.0002749765714
-0.0003198681809
-0.0003489348197
-0.0003353730814
-0.0003146978992
-0.0003146536026
-0.0003509832351
-0.0003903237132
-0.0003945485508
-0.0003990663117
-0.000395794141
-0.0003903368537
-0.000415512888
-0.0004330537638
-0.0004060822063
-0.0003705798875
-0.0003842649437
-0.0004251450729
-0.0004229262673
-0.0004151636617
-0.0003959120341
-0.0004099777132
-0.0004760870156
-0.0004283545475
-0.0003437861101
-0.0003707648016
-0.0004193256107
-0.0004193927318
-0.0004078590483
-0.0004007552435
-0.0003897156493
-0.0003733526716
-0.0003785019822
-0.0003988464713
-0.0003888035117
-0.0003728277109
-0.0003490861349
-0.0003400539416
-0.0003591697274
-0.0003510374132
-0.0003260811282
-0.0003084345786
-0.0003680735529
-0.0006096468635
-0.002871074237
-0.004814479309
-0.004315962183
-0.004067318502
-0.004177011303
)


100
(
0.007826979552
0.006657252066
0.004826472881
0.003802225733
0.003201810574
0.002738820594
0.002383263724
0.002106943187
0.001891220096
0.001724526559
0.001536118548
0.001408393001
0.001295448982
0.001148935332
0.001048242965
0.0009656095149
0.0008648936332
0.0007767660552
0.0007122503918
0.0006550401085
0.000594767621
0.0005371604935
0.0004946990322
0.0004564539142
0.0004105320547
0.000369836029
0.000327496364
0.0002766005957
0.0002109734689
0.0001520207186
0.0001264681583
0.000130420518
0.0001339868739
0.0001052803326
5.924689686e-05
4.138248327e-05
4.152352726e-05
1.688830314e-05
-2.839973561e-05
-4.720400861e-05
-4.190334904e-05
-4.849620522e-05
-7.963358527e-05
-0.0001207891434
-0.0001436593302
-0.000152371212
-0.0001539323435
-0.0001591867861
-0.0001908620647
-0.0002235108671
-0.0002293549686
-0.000221090668
-0.0002158084922
-0.0002317284224
-0.0002709880106
-0.0002872237461
-0.000276625696
-0.000276309129
-0.0002743625067
-0.0002841512871
-0.000325950335
-0.0003541014115
-0.0003261548507
-0.0002872995519
-0.0002992783279
-0.0003400556554
-0.0003426826067
-0.0003328352143
-0.0003289740198
-0.0003155289545
-0.0003454708865
-0.0003578813968
-0.00029571639
-0.0002597343251
-0.000302801083
-0.0003387135203
-0.0003313132972
-0.0003264055745
-0.0003245540036
-0.0003158959249
-0.0003032485262
-0.0003204270047
-0.000344919477
-0.0003319583125
-0.0003130071501
-0.0002923119488
-0.0002421871916
-0.0002519189887
-0.0002801567957
-0.0002676149443
-0.0002583136448
-0.0002549786755
-0.0002612854021
-0.0003433101436
-0.0007213778732
-0.003153596231
-0.004752048837
-0.003979598065
-0.003885919276
-0.004024625422
)


100
(
0.007705487459
0.006561967067
0.004769308021
0.003787211505
0.003206697213
0.002746677956
0.002396954787
0.002138792061
0.001912871168
0.00174534767
0.001589555904
0.001426203049
0.00131610778
0.001208978867
0.001078884214
0.0009920580281
0.000921243847
0.0008318154239
0.000750027452
0.0006923253444
0.0006437758753
0.0005881444314
0.0005348885193
0.0004909702223
0.0004544699294
0.0004148957017
0.0003780743106
0.000337426603
0.0002889285377
0.0002293289975
0.0001736405434
0.0001531421062
0.0001634439287
0.0001666555533
0.000137567552
0.0001002785437
8.399472043e-05
7.570412299e-05
5.241640185e-05
1.667443598e-05
-1.216849195e-05
-2.64801092e-05
-3.386998293e-05
-4.00406922e-05
-6.291790705e-05
-9.917131344e-05
-0.0001203042627
-0.0001188265558
-0.0001118230366
-0.0001192148066
-0.0001542379779
-0.0001845351316
-0.0001851709921
-0.0001806505825
-0.0001806342886
-0.0001824617897
-0.0002080008086
-0.0002393952194
-0.0002415466794
-0.000219070129
-0.0001941018348
-0.0002179873353
-0.0002647915969
-0.0002612848829
-0.0002378812626
-0.0002490867126
-0.0002598445421
-0.0002851862547
-0.0003063083717
-0.000236211834
-0.0001670956666
-0.0002132517936
-0.000250705636
-0.0002356789404
-0.0002343237629
-0.0002402887396
-0.0002465128889
-0.0002403368942
-0.0002410257288
-0.0002648386295
-0.0002771884103
-0.0002636081108
-0.0002480217992
-0.0002422817738
-0.0002217657813
-0.000239890612
-0.0002329124272
-0.0001885628541
-0.0001897790794
-0.0001799386574
-0.0001735681122
-0.000177226809
-0.0002224113295
-0.0002467969941
-0.001041796897
-0.003614935711
-0.004506731488
-0.003604930254
-0.003693518878
-0.003815586104
)


100
(
0.007565975376
0.006453756342
0.004707591885
0.003772159136
0.003200854646
0.002754390386
0.002406185711
0.002151854344
0.001955110385
0.001764913225
0.001619763398
0.001467716512
0.001331324
0.001237934264
0.001138416116
0.001020123564
0.0009438152246
0.0008850249667
0.0008064493131
0.0007288650524
0.0006760693366
0.000635018588
0.0005822171974
0.0005332563663
0.0004882043201
0.0004537519294
0.0004205458021
0.0003856943783
0.0003496247321
0.00030311998
0.0002478593208
0.0002034382451
0.0001924843526
0.0001999638626
0.0001950933516
0.0001689691815
0.0001364294583
0.0001126797758
9.526268725e-05
7.802292185e-05
5.28348887e-05
2.132023005e-05
-2.059696056e-06
-1.036604899e-05
-8.597328014e-06
-1.247304995e-05
-3.981443053e-05
-7.436073365e-05
-8.350302437e-05
-7.849100432e-05
-8.028380048e-05
-8.802219834e-05
-0.0001117803089
-0.0001409470508
-0.0001535901261
-0.0001491667986
-0.0001222829017
-0.0001086125821
-0.0001503972803
-0.0001846269411
-0.0001692005915
-0.0001507457083
-0.0001531805707
-0.0001771974546
-0.0002144323203
-0.000230445388
-0.0001854719194
-0.0001321822747
-0.0001797781272
-0.0001987392264
-0.0001476382555
-0.0001491501726
-0.0001623696488
-0.0001615491335
-0.0001569229958
-0.0001642584781
-0.0001928253843
-0.0002138602919
-0.000209912439
-0.0001929085898
-0.0001765167657
-0.0001690407494
-0.0001651248142
-0.0001925033749
-0.0001964299155
-0.0001941318835
-0.0001476732622
-0.0001193524628
-0.0001328513804
-9.657684196e-05
-0.0001056968696
-0.0001253399384
-0.0001597929052
-0.0001977512584
-0.001549326652
-0.004057522062
-0.004108245373
-0.00319184753
-0.003535995869
-0.00368475033
)


100
(
0.007408086027
0.006332825346
0.004661973792
0.003749187182
0.00317840059
0.00275564218
0.002426288586
0.002160468093
0.00197387087
0.001791666088
0.001636723077
0.001511046677
0.001365785337
0.001250563953
0.001169960833
0.001078609452
0.0009712383046
0.0009027086234
0.0008545311004
0.0007863749661
0.0007159267332
0.0006629181936
0.0006238424333
0.000577844199
0.00053248968
0.0004872888869
0.0004542087611
0.0004266753031
0.0003935708826
0.0003614800978
0.0003217093217
0.0002780594426
0.0002452735361
0.000227447799
0.00022063737
0.0002122979482
0.0001922512375
0.0001636567859
0.0001355115702
0.0001153098326
0.0001031068222
9.055757431e-05
6.508596262e-05
3.479095831e-05
1.909912595e-05
1.853810198e-05
1.870271837e-05
9.541927606e-06
-1.303305571e-05
-3.729699791e-05
-5.318723666e-05
-6.023660828e-05
-5.350579916e-05
-3.889910966e-05
-6.082677399e-05
-0.0001008499793
-0.0001002900589
-7.488727445e-05
-6.005967724e-05
-6.978398603e-05
-0.0001088706188
-0.0001479886113
-0.0001533294246
-0.0001194822299
-7.672938969e-05
-0.0001139907138
-0.0001465691993
-0.0001003981337
-7.306147044e-05
-8.641805807e-05
-0.0001101756998
-0.0001298295057
-0.0001373655817
-0.0001345782791
-0.0001306625012
-0.0001235451499
-0.0001186051085
-0.0001161917341
-0.0001068993501
-0.0001051353379
-0.0001348410449
-0.0001539770582
-0.0001296446905
-0.0001079192446
-0.0001051456161
-0.0001339877933
-0.0001212262738
-7.208558764e-05
-5.868231773e-05
-4.849772339e-05
-6.037106788e-05
-8.157920038e-05
-0.0001151588482
-0.0003351364628
-0.002022228204
-0.004098681964
-0.003667830793
-0.002896204523
-0.003262995345
-0.003389963664
)


100
(
0.007258107752
0.006222069333
0.004605010035
0.003703916406
0.003165689088
0.002751221537
0.002429814721
0.002172186132
0.001981197195
0.001832718324
0.001652995309
0.001526364685
0.001416913465
0.001278254129
0.001179346326
0.001110870726
0.001028428551
0.0009312098648
0.0008679896767
0.000829074764
0.0007706891755
0.0007054747315
0.0006512054232
0.0006141026536
0.0005751941782
0.0005320608688
0.0004914965434
0.0004550866096
0.0004290224116
0.0004027177444
0.0003720119932
0.0003401599395
0.00030526115
0.0002787571087
0.0002596945565
0.0002417841563
0.0002274785515
0.0002120163975
0.0001904653325
0.0001637714979
0.0001405824493
0.0001283595904
0.000120714818
0.0001065229467
8.107359942e-05
5.671480151e-05
4.516660111e-05
3.991234886e-05
3.472309261e-05
3.131737765e-05
1.634295132e-05
-1.121162457e-05
-2.549348946e-05
-1.133629061e-05
1.139231951e-05
1.166946201e-05
-2.676665347e-05
-5.332438369e-05
-5.177916993e-05
-6.072126317e-05
-5.411898039e-05
-4.793382538e-05
-7.991807399e-05
-9.325187996e-05
-4.284472807e-05
-1.506049469e-06
-1.828490164e-05
-5.249829769e-05
-6.741040399e-05
-6.808573917e-05
-6.912439713e-05
-7.643590826e-05
-8.2676417e-05
-8.005361267e-05
-6.88913495e-05
-5.430948529e-05
-6.886441007e-05
-8.805033946e-05
-8.43976297e-05
-8.463759853e-05
-8.473005217e-05
-5.666288899e-05
-3.453518503e-05
-8.48431487e-05
-0.0001167277055
-5.912358292e-05
-1.688015493e-05
-2.943257707e-05
-5.582241018e-05
-5.742681473e-05
-5.227169813e-05
-7.486982436e-05
-0.0001444749901
-0.0004394544498
-0.00219944108
-0.003921396248
-0.003260302675
-0.002637330245
-0.003119198412
-0.003360839272
)


100
(
0.007118192703
0.006111638764
0.004535606061
0.003661100143
0.003146588605
0.002742773839
0.002427301203
0.00219293695
0.001984760901
0.001838950818
0.001701946597
0.001541164307
0.001428893502
0.001327337428
0.001203134924
0.001116850854
0.001059505538
0.0009857379673
0.000899442271
0.0008401688586
0.0008067146341
0.0007575463016
0.0006969424186
0.0006401949386
0.0006056609472
0.0005749332221
0.0005321678669
0.0004952653196
0.0004592534525
0.0004327866023
0.0004110633821
0.0003847724587
0.0003593373423
0.0003326063637
0.0003054613624
0.000282752199
0.0002618968047
0.0002440386264
0.0002320255553
0.0002171534468
0.0001950367548
0.0001709142738
0.0001535815729
0.0001434636566
0.0001331887027
0.0001187293305
9.915802068e-05
7.758501215e-05
6.207883785e-05
5.902016112e-05
6.959900609e-05
7.54314988e-05
4.870603742e-05
1.921208028e-05
2.469513473e-05
3.77633401e-05
3.464664683e-05
1.788932883e-05
-1.567982574e-05
-4.41564388e-05
-3.994896591e-05
4.91628679e-06
4.161887646e-05
6.335116205e-06
-1.352507203e-05
8.221875666e-06
5.15081795e-06
-5.981467538e-06
-1.247411573e-05
-1.252434086e-05
-1.125165582e-05
-2.186792635e-05
-4.536390962e-05
-5.766491725e-05
-5.092589439e-05
-3.768099784e-05
-3.173572812e-05
-3.556886616e-05
-3.021792129e-05
-1.134796999e-05
-3.254126028e-05
-4.866370051e-05
-4.454265325e-05
-4.145725296e-05
7.963878568e-06
1.250494938e-05
-2.007415723e-05
-3.373901588e-05
-4.207763051e-05
-3.989977579e-05
-5.61857863e-05
-9.410097602e-05
-0.0001256136938
-0.0005002081623
-0.002281526197
-0.003679390046
-0.002907965244
-0.002361272772
-0.002788874603
-0.003010943998
)


100
(
0.00697784139
0.005998669149
0.004460455404
0.003626341886
0.003120580388
0.002729470275
0.002419619871
0.002191515693
0.002011727778
0.001842823662
0.001717681562
0.001581517329
0.00144000798
0.001342476538
0.001251263679
0.001139900252
0.00106198526
0.001014410173
0.0009511598106
0.0008751621989
0.000816071278
0.0007853945774
0.0007461372852
0.0006894944607
0.0006378414509
0.0005983218747
0.0005685465171
0.0005339818946
0.0004994042438
0.0004697019789
0.000441157981
0.000421674416
0.0004010277327
0.0003737557643
0.0003510764055
0.0003269838833
0.0003043385993
0.0002837497262
0.00026397162
0.0002502376187
0.0002388090161
0.0002218299636
0.0002001934657
0.00017906564
0.0001620659071
0.0001510819232
0.0001448218484
0.0001406561393
0.0001239554378
9.988771088e-05
9.210085786e-05
0.0001031927913
0.0001112181276
9.763138797e-05
6.74483603e-05
4.335636707e-05
3.242875673e-05
3.127531999e-05
4.960128335e-05
4.889460325e-05
1.945688155e-05
2.575148581e-05
6.435199572e-05
7.929784851e-05
6.402185572e-05
4.014717385e-05
2.075406396e-05
1.077585e-05
9.288529456e-06
8.916577214e-06
7.20799051e-06
3.140280749e-06
-1.901185317e-06
3.232011267e-06
1.467366854e-05
1.498141708e-05
-1.027982759e-05
-2.830310142e-05
-2.084074149e-05
-2.229239322e-07
8.57093942e-06
-6.549797477e-06
-3.653256071e-07
3.933779619e-06
2.556647351e-05
3.668787482e-05
6.932665009e-06
-1.334828134e-05
-3.557706266e-05
-3.40383224e-05
-1.938492586e-05
-9.943450629e-05
-0.0001570587238
-0.000660739553
-0.002290349636
-0.003346053365
-0.002589230206
-0.00206924734
-0.002453375458
-0.002646603468
)


100
(
0.006813440186
0.005870929559
0.004392837124
0.003586111467
0.003083109528
0.002709286299
0.00242297027
0.002184845001
0.002018530959
0.001858295827
0.001719639903
0.001607473753
0.001474362467
0.001350762401
0.001267773859
0.001186766962
0.001087037109
0.001014035618
0.0009752248498
0.0009241048247
0.0008560524798
0.0007933031641
0.0007647146014
0.0007365773025
0.000682774272
0.0006361841615
0.000591335405
0.0005635805359
0.0005412247903
0.0005093241003
0.0004821468457
0.0004541094865
0.0004301829067
0.0004116849686
0.0003890737853
0.000366196005
0.0003460119683
0.0003241261822
0.0003035917983
0.000284709463
0.0002659357723
0.0002515643891
0.000238523683
0.0002241899638
0.0002072438485
0.0001876967649
0.0001728415079
0.0001708758639
0.0001760644713
0.0001708976752
0.0001470095681
0.0001266661941
0.0001226047886
0.0001179622181
0.0001055540617
9.253452078e-05
7.238914079e-05
5.471854639e-05
6.908882368e-05
0.0001033315093
0.0001156870983
8.892033531e-05
7.427799565e-05
7.807178644e-05
6.824461795e-05
5.817724101e-05
5.210286268e-05
4.980637697e-05
4.8365881e-05
4.579263209e-05
4.461520303e-05
3.31054717e-05
1.986943328e-05
2.211392341e-05
2.820720013e-05
2.042649166e-05
8.750583419e-07
1.651149984e-05
4.725748863e-05
2.839525043e-05
-4.025031409e-06
-2.02743567e-05
2.216309176e-05
7.287543118e-05
6.582552365e-05
3.257354301e-05
8.018734312e-07
-1.433193597e-05
-3.529102271e-05
-5.352747231e-05
-8.875926032e-05
-0.0001414519433
-0.000212964437
-0.0007836179379
-0.002187793317
-0.002972158804
-0.002262759367
-0.001811820558
-0.002183653009
-0.002393626277
)


100
(
0.006635709972
0.005736040534
0.004326004182
0.00353728651
0.003053753833
0.00268336157
0.002406781143
0.002180119775
0.002013193417
0.001883783305
0.001722432473
0.001606833019
0.001511190999
0.001380957014
0.00127195342
0.00120285123
0.001131310397
0.001043350656
0.0009733263466
0.0009411435775
0.0009022063832
0.0008393030786
0.0007823196147
0.0007445152383
0.0007170846756
0.0006770080184
0.000634780616
0.0005993743788
0.000566998156
0.0005418725169
0.0005176403378
0.0004910986291
0.0004669100328
0.000439282526
0.0004217749524
0.0004054884652
0.0003794088781
0.0003584655601
0.0003405876262
0.0003176018627
0.0002974201478
0.0002812870791
0.0002651623003
0.0002542240697
0.0002459824777
0.000234178291
0.0002192679297
0.0002044871645
0.000197818662
0.0002000038272
0.0001946033081
0.000174385946
0.0001485944784
0.0001275673567
0.0001161715312
0.0001205614424
0.0001331977436
0.0001247901375
0.0001068081041
0.0001182946096
0.0001381312015
0.0001342636165
0.0001175124496
0.0001021397194
8.573052063e-05
7.144609942e-05
6.589544662e-05
6.336605018e-05
6.089755491e-05
5.583813095e-05
5.124942514e-05
5.517822752e-05
6.23518165e-05
6.160845169e-05
5.292419181e-05
3.198734111e-05
1.275168747e-05
2.392964724e-05
4.315674398e-05
2.693377962e-05
2.094329677e-05
3.566809202e-05
4.824254733e-05
5.981061095e-05
4.393349161e-05
2.096296254e-05
6.70738936e-06
-1.64803485e-05
-4.717344251e-05
-8.2023321e-05
-0.0001351741382
-0.000195978515
-0.0002433323463
-0.0008797555065