/*--------------------------------*- C++ -*----------------------------------*\
| =========                 |                                                 |
| \\      /  F ield         | OpenFOAM: The Open Source CFD Toolbox           |
|  \\    /   O peration     | Version:  2.3.1                                 |
|   \\  /    A nd           | Web:      www.OpenFOAM.org                      |
|    \\/     M anipulation  |                                                 |
\*---------------------------------------------------------------------------*/
FoamFile
{
    version     2.0;
    format      ascii;
    class       dictionary;
    location    "constant";
    object      GRPSI11;
}
// * * * * * * * * * * * * * * * * * * * * * * * * * * * * * * * * * * * * * //

GRPSI11_table
100
(

100
(
-0.000220920465
-0.0002263328785
-0.0002017786371
-0.0001599400664
-0.0001347825495
-9.31150181e-05
-6.139198498e-05
-3.435218016e-05
-8.850419277e-06
2.133893313e-05
3.016977407e-05
7.356061061e-05
8.365815835e-05
9.651233603e-05
0.0001300655154
0.000139230729
0.0001458910206
0.0001814799289
0.0001899900261
0.0001933691733
0.0002191041553
0.0002349678045
0.0002398191295
0.0002490133711
0.0002737185926
0.0002793612063
0.0002823653324
0.0002956945839
0.0003218560469
0.0003267817142
0.0003296363025
0.0003433045637
0.0003608523423
0.0003647175298
0.0003669023234
0.000377134169
0.0004048850965
0.0004196618471
0.0004227125834
0.0004318470167
0.0004544587403
0.000470940224
0.0004740008075
0.0004810567781
0.0004968438661
0.0005105994489
0.0005127787097
0.0005156638723
0.0005398385441
0.0005639522001
0.000578947392
0.0005880664092
0.0006092146034
0.0006292105741
0.0006430909145
0.0006520132119
0.0006668377057
0.0006861202651
0.0007246383646
0.0008310133586
0.001005311654
0.001022095616
0.0009271959848
0.0009745757179
0.001135219128
0.001156544024
0.001078011888
0.001186634021
0.00133051309
0.001305878876
0.001285831227
0.001442076223
0.001527971437
0.001452547975
0.001641148173
0.001774123425
0.001685857627
0.001835589769
0.001961919447
0.001890202553
0.002076742137
0.002126328822
0.002189558165
0.002391927493
0.002338171681
0.002540101983
0.002577248483
0.002739239433
0.002873878936
0.003031642219
0.003203675139
0.003408880727
0.003600467697
0.003805293142
0.00401018756
0.004211765746
0.004372328677
0.004296622535
0.002887360106
0.001852091485
)


100
(
-0.0002209063475
-0.0002234090584
-0.0002054710095
-0.0001727815496
-0.00014936236
-0.000110948809
-8.471577783e-05
-5.605330654e-05
-3.352489451e-05
-4.392131423e-06
7.87662791e-06
4.178482899e-05
5.693148115e-05
6.885123538e-05
9.553116396e-05
0.0001090650671
0.0001165355067
0.0001418777967
0.0001579564548
0.0001640111809
0.0001820827114
0.0001998991233
0.0002106036549
0.0002190982159
0.0002362570829
0.0002495145413
0.0002566564851
0.0002666709967
0.0002837360317
0.0002981476057
0.0003073947319
0.0003178588129
0.000330730246
0.0003418658036
0.0003501481458
0.0003585008314
0.0003754383946
0.0003907030206
0.0004055188166
0.0004186772665
0.0004345470514
0.0004497410383
0.0004646781435
0.0004824113942
0.0004960409884
0.0005071366455
0.0005169588268
0.0005289145136
0.0005481825268
0.0005627172662
0.0005780899097
0.0006016518009
0.0006417234232
0.0006681470957
0.000692802969
0.0007226035239
0.0007725026458
0.0007963077105
0.0008214735904
0.0008698037629
0.0009895880416
0.001111968737
0.001171540435
0.001171567902
0.001183106314
0.001246868745
0.001298099303
0.001331718606
0.001357871206
0.00140738059
0.001446705267
0.001480932145
0.001523850834
0.001569480848
0.001640350031
0.001742323413
0.001852098252
0.001901225489
0.001946746809
0.002045069579
0.002100736109
0.002172759746
0.002294244973
0.002369894304
0.002475638964
0.002599923675
0.002702025081
0.002828222083
0.002966245113
0.00309252563
0.003226880702
0.003366740411
0.003518639247
0.003645984008
0.00381984226
0.003977598191
0.004104134594
0.003634782398
0.002790021857
0.002095083156
)


100
(
-0.0002208651737
-0.0002237102246
-0.0002158733833
-0.0001990174035
-0.0001757890511
-0.0001475164004
-0.0001241162039
-9.964982468e-05
-7.777857825e-05
-5.238117343e-05
-3.506655689e-05
-1.158632979e-05
8.392522303e-06
2.189197065e-05
4.005239154e-05
5.81911002e-05
6.981832821e-05
8.406524304e-05
0.0001040371013
0.0001191650349
0.0001309567916
0.0001474802529
0.0001644725614
0.0001786414157
0.000189127014
0.000205136257
0.0002194271365
0.0002324787405
0.00024207795
0.000259057164
0.0002746436708
0.0002912226522
0.0003028226099
0.0003182153524
0.0003330146159
0.0003487653364
0.0003630898365
0.0003777189823
0.0003957526195
0.0004149647986
0.0004393589188
0.0004643930488
0.0004890548314
0.0005166898681
0.0005493185062
0.0005933850469
0.000622115899
0.0006505564946
0.0006824945566
0.0007372715556
0.0007664012225
0.000800208638
0.0008378016158
0.0008980010373
0.0009332037653
0.0009629462519
0.001003213464
0.001075370625
0.001100874564
0.001077428416
0.00105613659
0.001149267007
0.001290097055
0.00133422484
0.00129615998
0.001315580644
0.001401603935
0.001408845453
0.00140129103
0.001487068483
0.001566766329
0.001569956473
0.001611524736
0.001745281799
0.001759964396
0.001779585667
0.001896495359
0.001959627673
0.002029180898
0.002134227577
0.002161545843
0.002271913211
0.002362073086
0.002386266183
0.002562153559
0.002601161071
0.002720031594
0.002774314208
0.002854318636
0.00291947938
0.002993025047
0.003051492076
0.00310580477
0.003206985259
0.003291202903
0.003382331768
0.003468698755
0.002692494674
0.002572742243
0.002333645642
)


100
(
-0.0002207986452
-0.0002352535685
-0.0002321021049
-0.0002198614672
-0.0002008865933
-0.0001792013142
-0.0001564967962
-0.0001345761632
-0.0001146333243
-9.000909686e-05
-7.212735122e-05
-4.933229635e-05
-2.752672536e-05
-1.086246533e-05
6.445515025e-06
2.490405509e-05
4.156777618e-05
5.675954275e-05
7.273341459e-05
9.171162017e-05
0.0001098778453
0.000125115739
0.0001414612475
0.0001600885683
0.0001786581647
0.0001920947613
0.0002071671306
0.0002250105493
0.0002453421703
0.0002622752808
0.0002786984776
0.0002985598604
0.0003212434605
0.000348093482
0.0003664236034
0.0003897792458
0.0004175125701
0.0004583866565
0.0004825920031
0.0005103587385
0.0005449314677
0.0005870556792
0.0006320639421
0.0006552142348
0.0006894692663
0.000739741319
0.0008149087138
0.0008412352855
0.0008718599516
0.0009245530875
0.0009979272514
0.00102643168
0.001039086024
0.001082700772
0.001139269806
0.001165005265
0.001163826353
0.00122324828
0.001283486215
0.001304959039
0.001246086715
0.001195222944
0.001214789559
0.001294205955
0.001356252004
0.001363789826
0.001388402939
0.001455795301
0.001517658106
0.001554478252
0.0016108923
0.001685928296
0.001746199815
0.001778312214
0.001796915824
0.001833676606
0.001867810052
0.001927609727
0.002001361453
0.002051031849
0.00215303092
0.002217414907
0.002211906441
0.002261255427
0.00230752965
0.002323363954
0.002395666758
0.00242045696
0.00242184811
0.002409649719
0.002460994467
0.002522686235
0.002518780352
0.002607949059
0.002643044685
0.002707933962
0.002686060215
0.00220894514
0.002250218359
0.002202218722
)


100
(
-0.0002207215498
-0.0002418673731
-0.0002449618237
-0.0002357835337
-0.0002264320644
-0.0002038584036
-0.0001879043562
-0.0001614395483
-0.0001447007607
-0.0001196375719
-9.739720432e-05
-7.769200025e-05
-5.3509485e-05
-3.327219995e-05
-1.509840378e-05
3.833366423e-06
2.267002631e-05
4.130321178e-05
5.896691943e-05
7.603555996e-05
9.672204393e-05
0.0001185034433
0.000138219115
0.0001567268508
0.000179509106
0.000203017216
0.0002231608491
0.0002401038374
0.0002639838044
0.0002937236464
0.000327238486
0.0003492318381
0.0003768687952
0.0004098507426
0.0004557437435
0.0004776465463
0.0005026892839
0.0005371786618
0.0006063547105
0.0006369192303
0.0006608177484
0.0006897448506
0.0007480288485
0.0007889720603
0.000801634588
0.0008074618735
0.000873134314
0.0009419638807
0.0009528994209
0.0009496731541
0.001004217456
0.001061408315
0.001085507602
0.001086517877
0.001127643575
0.001181533459
0.001212721985
0.00121599149
0.00125009875
0.001306143002
0.001340602513
0.001332716906
0.001314879781
0.001331057331
0.001391637669
0.001470753319
0.00151693612
0.001550342173
0.00159406454
0.001630454656
0.001674586553
0.001695279155
0.001707033564
0.001711245305
0.001733346809
0.001750148574
0.001813309839
0.00183058518
0.001847852643
0.001902241593
0.001892271607
0.001887644915
0.001944767857
0.001956982661
0.001960128482
0.001954998085
0.001970898544
0.001978973789
0.001960368754
0.001984650179
0.001999022364
0.002003139883
0.002039904068
0.002048450396
0.002085574707
0.002139644958
0.001839184613
0.001796562306
0.001876375876
0.00193737216
)


100
(
-0.0002117102213
-0.0002397058198
-0.0002519947616
-0.000252907747
-0.0002430725247
-0.0002270943294
-0.0002096268151
-0.0001877956168
-0.000164351556
-0.0001458492474
-0.0001179072566
-9.725129562e-05
-7.519788979e-05
-5.123542547e-05
-3.078437725e-05
-1.112076726e-05
8.725295704e-06
2.930752512e-05
5.117946455e-05
7.248541253e-05
9.265943906e-05
0.0001169449794
0.0001446417306
0.0001733100827
0.0001973075229
0.0002267576166
0.0002576627079
0.0002814128905
0.0002983130209
0.0003245712938
0.0003647375227
0.00041150847
0.0004361211608
0.0004577996498
0.0005006947944
0.0005523934252
0.0005690534898
0.0005745422433
0.0006179060793
0.0006817487931
0.0007024012072
0.0007120177694
0.0007334392842
0.0007913870749
0.0008276091122
0.0008254296387
0.0008317917915
0.0008954628753
0.0009598990814
0.0009623715257
0.0009667863272
0.001012196937
0.001065245381
0.001089172762
0.001089028014
0.001118244329
0.001160496686
0.001176329141
0.001187025548
0.001206271029
0.001243749646
0.001280286084
0.001315682348
0.001356897786
0.001385622354
0.001421737715
0.001454589762
0.001464634213
0.001493157372
0.001504781827
0.001507741005
0.001516592847
0.001545708585
0.001586757982
0.001624590095
0.001618951012
0.001588639583
0.001608325294
0.001601984196
0.00158897767
0.001590210973
0.001592830128
0.001620363914
0.001626818924
0.001621695118
0.001628079183
0.001602603121
0.001584274969
0.00157240441
0.001621703383
0.001616784841
0.001584603056
0.00163008997
0.001627264911
0.00166088441
0.001711233292
0.001279350528
0.001453693532
0.001591571767
0.00169655865
)


100
(
-0.0001968432502
-0.0002370723779
-0.0002591067274
-0.0002659759572
-0.0002552721985
-0.000249340811
-0.0002249615508
-0.0002114876604
-0.0001825255142
-0.000163137176
-0.0001402643655
-0.0001134779781
-9.264298347e-05
-6.892850462e-05
-4.501653822e-05
-2.328164939e-05
-1.733713521e-06
2.005160882e-05
4.408899803e-05
7.091134551e-05
9.870273285e-05
0.000123429171
0.0001519146761
0.0001862799162
0.0002257077785
0.0002544760049
0.0002849292521
0.0003171779852
0.0003367075274
0.0003493198755
0.0003661988948
0.0004186808565
0.0004594645546
0.0004769938426
0.0004835244324
0.000538286201
0.0005855542575
0.0005970468846
0.0005822821755
0.0006367310469
0.0006960935421
0.0007146714925
0.0007086585663
0.0007381441349
0.0007944619041
0.0008287602386
0.0008201713749
0.0008238675284
0.000884381955
0.0009322325715
0.0009393111202
0.0009340649607
0.0009595220661
0.0009889876675
0.001018062263
0.001047459082
0.001064368693
0.001075673784
0.001101444991
0.001129303075
0.00114979858
0.001159729022
0.001195274022
0.001228395571
0.001239545786
0.001243228968
0.00125887881
0.001267615037
0.001267768101
0.001289445706
0.001314404689
0.001339090126
0.001368606484
0.001381268586
0.001366841123
0.001383797968
0.001352734159
0.00133698315
0.001336187878
0.001352061945
0.0013684172
0.001359720615
0.001318361151
0.001317998543
0.00131028814
0.001317436858
0.001305050725
0.001301022359
0.00131202367
0.00131017593
0.001313031695
0.001327686585
0.001330961615
0.001342927134
0.001383937351
0.001407339272
0.001070947472
0.001242315761
0.001371168445
0.001501722407
)


100
(
-0.0001909247132
-0.0002353163669
-0.000264548311
-0.0002725117906
-0.000270874862
-0.0002627399661
-0.000243647783
-0.0002249756679
-0.0002042703832
-0.0001769306917
-0.0001595750879
-0.0001330890945
-0.0001075686792
-8.553619067e-05
-6.029508311e-05
-3.542918803e-05
-1.119387448e-05
1.307400727e-05
3.857839485e-05
6.595067701e-05
9.805041907e-05
0.0001327040275
0.0001591939616
0.0001861752564
0.0002216524658
0.0002632503786
0.0002946388035
0.0003246107266
0.000354641934
0.0003662145429
0.000368851172
0.0003813535888
0.0004405390266
0.0004755544065
0.0004809026075
0.000489300177
0.0005468291757
0.0005914027664
0.0005835884989
0.0005834431284
0.0006349497604
0.000691517677
0.0007005748374
0.0007042120834
0.0007310375659
0.0007836221512
0.0007971300802
0.000789972208
0.000781720877
0.0008190378425
0.0008361202711
0.0008581463642
0.0008693528239
0.0008789872319
0.000903364927
0.0009406504298
0.0009793067561
0.001008572982
0.001020879826
0.001042600114
0.001061400893
0.001060312339
0.001053649061
0.001045113043
0.001051722023
0.001053305127
0.001065873432
0.001092693112
0.001104374007
0.001126929697
0.001155511471
0.001156488537
0.001147303537
0.001136638394
0.001120378843
0.001124249347
0.001152426464
0.001159341462
0.001167064486
0.001155373962
0.001125251024
0.001115013972
0.00111116644
0.001112535772
0.001102994791
0.001086986698
0.001087122612
0.00109839285
0.00112928971
0.001129199242
0.001122533033
0.001134432366
0.001157856561
0.001187285185
0.001211881178
0.001185654889
0.0009554401291
0.001102759984
0.001189702676
0.001307224638
)


100
(
-0.0001908642609
-0.0002364817355
-0.0002661771766
-0.0002787408907
-0.0002856770179
-0.0002702727508
-0.0002628371712
-0.0002363442719
-0.0002229593662
-0.0001962403108
-0.0001729917997
-0.0001543089842
-0.0001259932383
-0.0001005501291
-7.619160488e-05
-4.924574416e-05
-2.242465503e-05
5.460630101e-06
3.474912698e-05
6.073800556e-05
8.742723243e-05
0.0001206973407
0.0001580092642
0.0001816034884
0.0002003093994
0.0002327100719
0.0002727154147
0.0003100091948
0.0003420169914
0.0003697474079
0.0003754514333
0.0003603457002
0.0003883992151
0.0004474636858
0.0004794124948
0.0004701241573
0.0004919670097
0.0005487073993
0.0005862311343
0.0005755358509
0.0005796499712
0.0006234618082
0.0006686792176
0.0006757421026
0.0006708894959
0.0006844126496
0.0007036056085
0.0007152684784
0.0007269187489
0.0007268210394
0.0007395356241
0.0007661217484
0.0007996269005
0.0008320220972
0.0008454908725
0.000841882338
0.0008718717001
0.000899493553
0.0009103644746
0.0009134172171
0.0009100534799
0.0009095356625
0.0009007832529
0.0009067511991
0.0009286188999
0.0009395045273
0.0009457687472
0.0009736803444
0.0009886194116
0.0009738701051
0.0009546005638
0.0009417417221
0.0009351514976
0.0009566054894
0.000981870661
0.000988023345
0.001003626716
0.0009918224904
0.0009663310396
0.0009560024649
0.000962404775
0.0009706524024
0.0009675772631
0.00095724474
0.0009538793113
0.0009523597127
0.0009654620009
0.0009828618075
0.00100342258
0.001010385201
0.001009514414
0.001037282161
0.001057182543
0.001099579036
0.001119970995
0.00103490316
0.0008669253942
0.0009898280178
0.001052665475
0.001124587501
)


100
(
-0.0001907889013
-0.0002349232683
-0.0002666743624
-0.000286956759
-0.0002918023287
-0.0002823875312
-0.0002741192466
-0.0002550581864
-0.0002342835086
-0.0002174283699
-0.0001892444403
-0.0001692270243
-0.0001480169392
-0.0001194683063
-9.273056904e-05
-6.540884068e-05
-3.712942297e-05
-8.668089496e-06
2.078613985e-05
5.206616208e-05
7.543154983e-05
9.664032018e-05
0.0001278926012
0.0001630866331
0.0001869172352
0.0001998960004
0.0002254781451
0.000264546645
0.0003085678191
0.0003464156339
0.0003738834468
0.0003703083811
0.0003561962127
0.0003913415287
0.000448868373
0.0004676498395
0.0004675802431
0.0004879216697
0.0005398836975
0.0005567555486
0.0005526563607
0.0005442349421
0.0005686580612
0.0005850657815
0.0006040940262
0.0006090919202
0.0006126993971
0.0006282705219
0.0006540095351
0.0006838767934
0.0007095205196
0.000708637936
0.0007188213474
0.0007457030483
0.0007697621417
0.0007744628665
0.0007722410862
0.0007554439333
0.0007546089416
0.0007554406006
0.0007671974349
0.0007925839909
0.0008020477735
0.0008066668329
0.0008308832904
0.0008507754408
0.0008427897666
0.0008259898716
0.0008080639132
0.0007970828562
0.0008041526889
0.0008288283334
0.0008285044714
0.0008478467448
0.0008688628907
0.0008586107781
0.0008408365787
0.0008382850091
0.0008466629407
0.0008554991867
0.0008584998074
0.0008575110222
0.0008572952077
0.0008603008544
0.0008710884986
0.0008911345176
0.000892303092
0.0009105358301
0.000923970418
0.0009371372202
0.0009621135072
0.0009891825801
0.001012375679
0.001051452566
0.00108179778
0.0008738721333
0.0007664264874
0.0008836565794
0.0009346704217
0.000985564422
)


100
(
-0.0001831384155
-0.0002306280967
-0.000268045157
-0.0002934298923
-0.0002933150485
-0.0002962737863
-0.0002802035726
-0.0002736872894
-0.0002477841631
-0.000232446529
-0.0002117060195
-0.0001848596856
-0.0001661451514
-0.0001430349355
-0.0001143138805
-8.589759712e-05
-5.701765108e-05
-2.987105961e-05
-4.605429304e-06
2.541603123e-05
5.70210451e-05
7.731539581e-05
9.209459247e-05
0.0001207632454
0.0001542653063
0.0001808381819
0.0001915668824
0.0002086760579
0.0002463653754
0.0002908765877
0.000339725356
0.000368033999
0.0003488641021
0.0003499473938
0.0003839706101
0.0004345106984
0.0004426010896
0.0004433061016
0.0004517135788
0.0004761251075
0.0004852958879
0.0004852667189
0.0004781116596
0.0004878728935
0.0005107596667
0.000541934548
0.000572312774
0.0005802538887
0.0005798403286
0.0006041266491
0.0006306409668
0.0006506634207
0.0006576030246
0.0006477067072
0.0006376740921
0.0006395417291
0.0006349644124
0.0006437805034
0.0006576646013
0.000656042563
0.0006630651082
0.0006915720178
0.0007189365049
0.0007238638453
0.0007104753722
0.0006978543135
0.0006907356467
0.0006898576714
0.0007025248173
0.0006984304758
0.0007097185342
0.0007355836081
0.000746053771
0.000738575067
0.000732473702
0.0007386935015
0.0007467848784
0.0007527695774
0.000759045818
0.0007639534695
0.00076999108
0.0007764252882
0.0007899982581
0.0008098161719
0.0008169533562
0.0008275004549
0.0008334242953
0.000851203203
0.0008644046738
0.0008881780696
0.0009168597569
0.0009365857171
0.0009797038081
0.001000447286
0.00102643962
0.000693883597
0.0006891013905
0.0008002340228
0.0008479312538
0.000893788772
)


100
(
-0.000166811331
-0.0002253193124
-0.0002687999236
-0.0002910007872
-0.0002995689692
-0.000304103793
-0.0002915253044
-0.0002826183851
-0.0002681271753
-0.0002453358673
-0.0002317873344
-0.0002082296858
-0.0001836797612
-0.0001643564969
-0.0001406533056
-0.0001131507445
-8.473851101e-05
-5.663439739e-05
-3.251367601e-05
-1.099737684e-05
1.812934836e-05
4.832227593e-05
6.835872289e-05
8.062072522e-05
0.0001037656885
0.0001359285768
0.0001651681106
0.0001765414921
0.000186571027
0.0002192487549
0.0002613855256
0.0003146747719
0.0003361639978
0.0003254260283
0.0003231528283
0.0003464260164
0.0003677360559
0.0003781352717
0.0003738983899
0.0003754480524
0.0003875822889
0.0004088297039
0.0004331073708
0.0004435211936
0.0004425777565
0.0004582973424
0.0004884979996
0.0005178838342
0.0005335243425
0.0005310006733
0.0005237640679
0.0005287155368
0.0005287655937
0.000527901514
0.000533745231
0.0005277294184
0.0005209037012
0.0005367513725
0.0005637784305
0.0005894056619
0.0005984336578
0.0005870488201
0.0005828540221
0.0005826822865
0.0005802539172
0.0005844543646
0.0005828198197
0.0005899171375
0.0006178393034
0.000642185152
0.0006393909076
0.0006297958033
0.0006342389017
0.0006327283041
0.0006366439844
0.0006430155481
0.0006545117307
0.000665802441
0.0006763894394
0.0006880235125
0.000701910887
0.0007137607346
0.0007255142216
0.0007395269416
0.0007507857138
0.0007625576967
0.000778941808
0.0007891262286
0.0008100020684
0.0008388071902
0.0008583861879
0.0008757297276
0.0008937291557
0.0009081632399
0.0008984163251
0.0005716409467
0.0006837557825
0.0007576807264
0.0008117902019
0.0008629481189
)


100
(
-0.0001580635491
-0.0002201702651
-0.000265377356
-0.0002870745957
-0.0003066317438
-0.0003048032839
-0.0003052640335
-0.0002888881169
-0.0002853377139
-0.0002648529825
-0.0002463553244
-0.0002327400993
-0.0002075066778
-0.0001848911924
-0.0001660281397
-0.0001436121639
-0.000118632638
-9.179143432e-05
-6.569535281e-05
-4.41011473e-05
-2.603779274e-05
1.665197827e-06
3.090146216e-05
5.209710752e-05
6.310023608e-05
7.997979878e-05
0.0001097552128
0.000137342766
0.0001535331484
0.0001616988313
0.0001808450447
0.0002152275264
0.0002620437781
0.0002731190432
0.0002658345861
0.0002568444108
0.0002646351361
0.000277323317
0.0002990766353
0.0003146574607
0.0003176338696
0.0003278092291
0.0003526305516
0.0003811619052
0.0004037436376
0.0004049688139
0.0004024720007
0.0004148999628
0.0004298786925
0.0004297531587
0.0004265348492
0.0004149406873
0.0004014181409
0.0004028567054
0.000421630985
0.0004481021627
0.0004702555499
0.0004630356236
0.000462402886
0.0004757475737
0.0004797826647
0.0004778328062
0.0004717861994
0.0004609178747
0.0004650249457
0.0004919628985
0.0005208468123
0.0005281522472
0.0005261961517
0.0005430844096
0.0005432700576
0.0005406582207
0.0005429684231
0.0005468394872
0.0005523788974
0.0005620805292
0.0005766873225
0.0005887386693
0.000599592181
0.0006102759255
0.0006212904506
0.0006322164405
0.0006477643615
0.0006576831734
0.0006699615784
0.000679779979
0.0007007594313
0.0007118142713
0.0007388305301
0.0007376974011
0.0007506563206
0.0007533306603
0.0007730012453
0.0007822009196
0.0007104391376
0.0005242927571
0.0007028890106
0.0007503781827
0.0008164528688
0.000869206409
)


100
(
-0.000158002453
-0.000216248446
-0.0002594011003
-0.0002884885783
-0.0003079398628
-0.0003082777089
-0.0003126591304
-0.0003028120649
-0.000293209347
-0.0002867965163
-0.0002645848096
-0.0002493778855
-0.0002346149757
-0.0002109390266
-0.0001902825529
-0.0001725915377
-0.000152217046
-0.0001300206629
-0.0001054798098
-8.111862284e-05
-6.105300426e-05
-4.439980998e-05
-2.00167538e-05
8.222016015e-06
3.109213155e-05
4.146372373e-05
5.245215627e-05
7.63361047e-05
0.000100065993
0.0001167524728
0.0001240653119
0.000131349677
0.000150978438
0.0001743150243
0.0001846323933
0.0001925193914
0.0001943779114
0.0001964941538
0.0002145741994
0.000241270253
0.0002678145948
0.000277983732
0.0002782834721
0.0002951351305
0.0003175774819
0.0003329550221
0.0003356722179
0.0003264172576
0.0003128213644
0.0003077778757
0.000308134638
0.0003215376759
0.0003384009945
0.0003387119579
0.0003328038129
0.0003523457245
0.0003759918319
0.000387828883
0.0003838169781
0.0003677722249
0.0003538212522
0.0003573162342
0.0003799939319
0.0004047513973
0.0004045932807
0.0004074427978
0.000430284783
0.0004428089877
0.0004435526344
0.0004440469878
0.0004494582085
0.0004584427405
0.0004680152766
0.0004751242718
0.0004828196861
0.0004908364542
0.0004979620536
0.0005049401035
0.0005120169697
0.0005223084676
0.000537519949
0.0005445664536
0.00055402151
0.0005606721401
0.0005731048314
0.0005881411926
0.0006034679585
0.0006135149566
0.0006087764162
0.0006070724144
0.0005992329607
0.0006125012744
0.0006175818893
0.0006249146657
0.0005359684507
0.0004988135639
0.0006681000616
0.0007403030891
0.00082086994
0.0008906203593
)


100
(
-0.0001579431973
-0.000211108459
-0.0002552191167
-0.000288983676
-0.0003029195468
-0.0003155851212
-0.0003136547464
-0.0003173264062
-0.0003026730471
-0.0002993819976
-0.0002889294925
-0.000267483867
-0.0002552918188
-0.0002407631394
-0.0002189454828
-0.0002000795937
-0.0001835140218
-0.0001651221486
-0.0001452159469
-0.0001229549646
-9.97664833e-05
-8.041311607e-05
-6.505660586e-05
-4.494049013e-05
-1.874495048e-05
2.891749322e-06
1.479433629e-05
2.254562252e-05
3.473611015e-05
5.196129286e-05
6.493404065e-05
7.486489068e-05
7.987759019e-05
8.519985029e-05
0.0001000098229
0.0001186061031
0.0001402006515
0.0001532267514
0.0001556277819
0.0001656591826
0.0001906453426
0.0002159558326
0.0002301775234
0.0002294518993
0.0002260008579
0.0002300555469
0.0002318767607
0.0002308833993
0.0002349043004
0.0002332504948
0.0002284970213
0.0002362710559
0.0002588989785
0.0002820843169
0.0002899929601
0.0002822902169
0.0002745487296
0.0002794401084
0.0002784740773
0.0002872306715
0.0002940946723
0.0002911701538
0.0003006044161
0.0003278327222
0.0003491832631
0.0003525015308
0.0003500525613
0.0003520341921
0.0003572454828
0.0003635609081
0.0003700072983
0.0003768552019
0.0003861791366
0.0003952870882
0.000405281387
0.0004119915757
0.0004150089514
0.0004187912744
0.0004262460235
0.0004339354332
0.0004436396712
0.0004497845658
0.0004498605995
0.000458704821
0.0004683260357
0.0004854999757
0.0004880556251
0.0004855552641
0.0004754863441
0.000467330304
0.0004623455337
0.0004671646551
0.0004320557336
0.0004268367492
0.0003584903571
0.000428451622
0.0005812983329
0.0006809600492
0.0007784046217
0.0008799975413
)


100
(
-0.0001491321022
-0.0002046885095
-0.0002512288987
-0.0002840505563
-0.0003004263489
-0.0003189180662
-0.0003180630396
-0.0003226512644
-0.0003197765062
-0.0003082855906
-0.0003071950867
-0.000294307839
-0.0002756122726
-0.0002645296044
-0.0002508413759
-0.000230962902
-0.0002135342068
-0.0001977261052
-0.0001810823454
-0.0001630767439
-0.0001429973846
-0.000120821232
-0.0001023516684
-8.837188421e-05
-7.363104343e-05
-5.160553129e-05
-3.312155789e-05
-2.152757027e-05
-1.690032399e-05
-1.275256928e-05
-3.170839263e-06
8.60720352e-06
2.238812521e-05
3.383411462e-05
4.019370674e-05
4.79918561e-05
6.876712167e-05
9.458742989e-05
0.0001161709647
0.0001211397227
0.0001222394187
0.0001337423335
0.0001490825788
0.0001544480061
0.0001532113167
0.0001461329294
0.0001381183592
0.0001383193169
0.0001490231089
0.0001683178451
0.0001855576474
0.0001851540981
0.0001847483828
0.0002000175966
0.0002126478099
0.0002110956363
0.0002071664541
0.0001984896756
0.000194572968
0.0002091553558
0.0002344463908
0.0002556387669
0.0002527231886
0.0002531698193
0.000267970226
0.0002722436229
0.0002739264273
0.0002773509765
0.0002826866114
0.0002885173346
0.0002937819354
0.0003012541005
0.0003072089158
0.0003149188125
0.0003221786481
0.0003286653251
0.0003302283613
0.0003301003193
0.0003397839372
0.0003470575346
0.0003411632146
0.0003450532276
0.0003421598963
0.0003565701635
0.0003639300647
0.0003669002079
0.0003629690463
0.0003535451671
0.0003476344591
0.0003309060614
0.0003190274194
0.0003072546022
0.0002817221665
0.0002588030248
0.0001792663282
0.0003099933984
0.0004602610913
0.0005718229743
0.0006801984035
0.0007909384864
)


100
(
-0.0001343886677
-0.0001972439435
-0.0002459793554
-0.0002757175335
-0.0003010893544
-0.000314162651
-0.0003259886157
-0.0003241305533
-0.0003331036594
-0.0003247456337
-0.0003177335335
-0.0003181891492
-0.0003029017141
-0.0002861286895
-0.0002764334993
-0.0002640278177
-0.0002460528851
-0.0002297986152
-0.0002144528287
-0.0001997783547
-0.0001835750983
-0.0001659509787
-0.0001457221782
-0.000129066077
-0.0001172265519
-0.0001068177762
-9.345449818e-05
-8.0097768e-05
-7.00069614e-05
-6.36629395e-05
-5.961052813e-05
-5.522240637e-05
-4.238575244e-05
-2.354159399e-05
-4.384339475e-06
5.121284187e-06
9.631951571e-06
2.400773423e-05
4.660495777e-05
6.540500354e-05
7.225853142e-05
6.805534536e-05
6.192420814e-05
6.172070993e-05
6.251949417e-05
6.822825415e-05
7.711528091e-05
8.001179674e-05
7.889106885e-05
9.280346722e-05
0.0001140781302
0.000130676315
0.0001329072653
0.0001264675521
0.000120620865
0.000122272166
0.0001294461717
0.0001446898972
0.0001524778044
0.0001507267931
0.0001646187894
0.0001865413997
0.0001969143905
0.0001974863782
0.0001970613686
0.0001962782624
0.0001982181124
0.0002027861842
0.0002076944615
0.0002128421114
0.0002180187
0.0002230946994
0.000229231195
0.0002363195665
0.0002392847167
0.0002401967328
0.0002375635393
0.0002387551242
0.000241774116
0.0002461246079
0.0002391791335
0.0002421382021
0.0002442359616
0.0002424655504
0.0002482889727
0.0002369759093
0.000225550806
0.0002141892908
0.0001962905851
0.0001858225862
0.0001551722105
0.0001237773351
0.0001229072316
7.885005256e-05
3.082480735e-05
0.000162679184
0.000315180876
0.0004333117626
0.0005485689655
0.0006765569727
)


100
(
-0.0001284031148
-0.0001903530992
-0.000237928945
-0.0002701098466
-0.0002994584386
-0.0003101493896
-0.0003285129555
-0.0003317957854
-0.0003360697667
-0.0003428313715
-0.0003326000184
-0.0003290862091
-0.0003297468877
-0.0003139099588
-0.0002988254385
-0.0002903091525
-0.0002798128631
-0.0002636686645
-0.0002483509466
-0.0002338193076
-0.0002218115223
-0.0002075720106
-0.0001931028233
-0.0001770107592
-0.00016383975
-0.0001562199248
-0.0001497123792
-0.0001425154843
-0.0001322617302
-0.0001213217187
-0.0001111394961
-0.0001022737125
-9.633307414e-05
-8.528766796e-05
-6.494949659e-05
-4.333043127e-05
-3.055157194e-05
-2.764989143e-05
-2.479492149e-05
-1.459195525e-05
-6.181361049e-06
-4.481641143e-06
-7.249139804e-06
-1.206516493e-05
-1.610895074e-05
-1.18114774e-05
3.330112365e-06
2.242951305e-05
3.398829732e-05
3.423689446e-05
3.600695259e-05
4.600223265e-05
5.14380357e-05
5.276253993e-05
5.327104916e-05
5.342377826e-05
5.474649883e-05
7.293114625e-05
9.590039735e-05
0.0001082731844
0.0001071698621
0.0001077622283
0.0001164870726
0.0001186137357
0.0001206451675
0.0001241334632
0.0001278191517
0.0001306584479
0.0001333334681
0.0001379475439
0.0001398770579
0.0001376632659
0.0001397181651
0.0001432397198
0.0001440928254
0.0001409663775
0.0001429597254
0.0001502154912
0.0001436075008
0.0001299696656
0.000125431667
0.0001256748552
0.000137830346
0.0001283485064
0.0001127803207
8.65434717e-05
7.219117973e-05
6.048500246e-05
4.325872288e-05
1.804132385e-05
-1.152396979e-05
-5.613395246e-05
-8.321572484e-05
-0.000124659146
-0.000125157667
5.906568488e-06
0.0001565621102
0.0002827308527
0.00040351614
0.0005510436055
)


100
(
-0.0001283589053
-0.0001838783469
-0.0002295843713
-0.0002655573396
-0.0002909557424
-0.0003108644103
-0.0003236116629
-0.0003400976215
-0.000339299815
-0.000348676729
-0.0003527732994
-0.0003418631281
-0.0003416108734
-0.0003421490441
-0.0003272895665
-0.0003136539799
-0.0003062311378
-0.0002981549097
-0.000284042163
-0.0002696831185
-0.0002570412596
-0.0002469157498
-0.0002370788503
-0.0002269128
-0.0002167928464