/*--------------------------------*- C++ -*----------------------------------*\
| =========                 |                                                 |
| \\      /  F ield         | OpenFOAM: The Open Source CFD Toolbox           |
|  \\    /   O peration     | Version:  2.3.1                                 |
|   \\  /    A nd           | Web:      www.OpenFOAM.org                      |
|    \\/     M anipulation  |                                                 |
\*---------------------------------------------------------------------------*/
FoamFile
{
    version     2.0;
    format      ascii;
    class       dictionary;
    location    "constant";
    object      GRPSI31;
}
// * * * * * * * * * * * * * * * * * * * * * * * * * * * * * * * * * * * * * //

GRPSI31_table
100
(

100
(
-0.00110034694
-0.0008656607366
-0.0005136060703
-0.0003431950394
-0.0002454899712
-0.0001806609565
-0.0001417775734
-0.0001129696879
-9.119499339e-05
-7.654906959e-05
-6.191183813e-05
-4.871413996e-05
-4.458939042e-05
-3.663858293e-05
-3.047460103e-05
-2.87063326e-05
-2.425994621e-05
-2.033765479e-05
-1.959291419e-05
-1.735238818e-05
-1.46677919e-05
-1.371298605e-05
-1.29274095e-05
-1.105617087e-05
-9.634458037e-06
-9.37710277e-06
-8.7742491e-06
-7.677816666e-06
-6.981618664e-06
-6.815648118e-06
-6.194505462e-06
-5.311108911e-06
-4.909545162e-06
-4.799269887e-06
-4.594517484e-06
-4.174250738e-06
-3.864185382e-06
-3.774679346e-06
-3.593111017e-06
-3.223338396e-06
-2.949971805e-06
-2.875707179e-06
-2.731467331e-06
-2.440564987e-06
-2.232855598e-06
-2.183758219e-06
-2.135492651e-06
-1.985559821e-06
-1.843599405e-06
-1.80804738e-06
-1.751014934e-06
-1.60585977e-06
-1.485173585e-06
-1.455338805e-06
-1.387292909e-06
-1.273924528e-06
-1.189729775e-06
-1.124435756e-06
-1.048063036e-06
-1.004102961e-06
-9.553879732e-07
-8.780016152e-07
-8.369356553e-07
-8.305667343e-07
-7.890063124e-07
-7.155469549e-07
-6.941875991e-07
-6.877904085e-07
-6.277748995e-07
-5.773813993e-07
-5.787657731e-07
-5.500064281e-07
-4.8322111e-07
-4.840840684e-07
-4.703210395e-07
-4.027732439e-07
-4.041046522e-07
-3.840319385e-07
-3.356039396e-07
-3.312631408e-07
-2.825068762e-07
-2.697957461e-07
-2.504288743e-07
-2.191502057e-07
-1.997054402e-07
-1.758513175e-07
-1.61958217e-07
-1.408236447e-07
-1.459515231e-07
-1.36978771e-07
-1.258211936e-07
-1.127562092e-07
-1.06263268e-07
-9.837794474e-08
-8.581317089e-08
-6.78556327e-08
-6.178227731e-08
-7.347326138e-08
-6.256551996e-08
-4.831599688e-08
)


100
(
-0.001080397652
-0.0008626085413
-0.0005211316401
-0.0003464105925
-0.0002540467269
-0.0001829911669
-0.0001438293806
-0.000117906219
-9.461902113e-05
-8.198117394e-05
-6.568733312e-05
-5.267631686e-05
-4.631369931e-05
-3.842788981e-05
-3.338358681e-05
-3.073054289e-05
-2.594251519e-05
-2.344418056e-05
-2.280089569e-05
-1.98032285e-05
-1.799368901e-05
-1.739039848e-05
-1.587136583e-05
-1.383582236e-05
-1.320892292e-05
-1.275101254e-05
-1.123891062e-05
-1.008485739e-05
-1.010350462e-05
-9.946262149e-06
-8.726327702e-06
-7.87126935e-06
-7.660412646e-06
-7.35305726e-06
-6.668142043e-06
-6.12607119e-06
-5.888054945e-06
-5.910604611e-06
-5.581811215e-06
-5.051471267e-06
-4.729714538e-06
-4.682252736e-06
-4.508389692e-06
-4.120970346e-06
-3.798765815e-06
-3.647394994e-06
-3.506827571e-06
-3.218756306e-06
-2.904135769e-06
-2.710569822e-06
-2.656040184e-06
-2.530635881e-06
-2.33140558e-06
-2.199340777e-06
-2.146984231e-06
-2.013661005e-06
-1.673686778e-06
-1.097076368e-06
-2.452634407e-07
3.925430386e-07
-3.971814078e-07
-1.87273687e-06
-1.756044712e-06
-5.124286852e-07
-4.912694943e-07
-1.365315454e-06
-1.021359283e-06
-1.651832549e-07
-6.143031454e-07
-1.184446739e-06
-4.883755165e-07
-9.022457292e-08
-5.915853321e-07
2.11484603e-07
1.052873712e-06
-6.992427083e-07
-9.322172461e-07
4.609998216e-07
-8.081755005e-07
-5.113997637e-07
2.577888266e-07
-5.759796867e-07
6.723406547e-07
-1.368793787e-07
-3.681407517e-07
1.005914083e-06
-4.576051348e-08
7.927305572e-07
7.62976097e-07
5.10025829e-07
1.334293772e-06
1.941631547e-06
2.166407836e-06
2.437929168e-06
2.296389084e-06
1.687158237e-06
4.498905067e-07
-9.483016705e-06
-1.283550241e-05
-8.150321664e-06
)


100
(
-0.001055382433
-0.0008564308992
-0.0005313668153
-0.0003572159493
-0.0002629302853
-0.0001921062414
-0.0001497981603
-0.0001222055786
-0.0001006576031
-8.553784377e-05
-7.278416262e-05
-5.905228181e-05
-5.123911366e-05
-4.344978775e-05
-3.731037948e-05
-3.427528283e-05
-3.065070487e-05
-2.676831635e-05
-2.525970943e-05
-2.381776767e-05
-2.121931896e-05
-1.960119735e-05
-1.859671029e-05
-1.714340967e-05
-1.548239807e-05
-1.444429054e-05
-1.360169448e-05
-1.254537887e-05
-1.158642439e-05
-1.090981295e-05
-1.040449064e-05
-9.715305089e-06
-8.903703232e-06
-8.203424013e-06
-7.721706525e-06
-7.30151842e-06
-6.793285845e-06
-6.239196254e-06
-5.819301072e-06
-5.621987361e-06
-5.315930517e-06
-4.841869919e-06
-4.34095981e-06
-4.205598304e-06
-4.23451435e-06
-3.98316317e-06
-3.591269926e-06
-3.3236287e-06
-3.238298303e-06
-2.990999041e-06
-2.479255348e-06
-1.862659485e-06
-1.760113774e-06
-1.925792567e-06
-1.740073996e-06
-1.212928409e-06
-1.1599563e-06
-1.285594145e-06
-5.573800053e-07
9.446789163e-07
1.736955908e-06
6.473195975e-07
-1.146598432e-06
-1.8996802e-06
-1.206548315e-06
-6.299584002e-07
-8.024542514e-07
-1.090080265e-06
-9.069497317e-07
-7.330947381e-07
-8.334307652e-07
-7.967665203e-07
-5.798262131e-07
2.436542169e-07
2.001817703e-06
3.286457708e-06
1.576374078e-06
-3.000979476e-07
3.402482542e-07
6.050331425e-07
1.279966681e-06
1.451286359e-06
2.44664878e-06
2.766571705e-06
1.345388542e-06
2.59186938e-06
3.003918912e-06
3.046668034e-06
4.726778728e-06
5.795302358e-06
5.891410169e-06
6.931587084e-06
9.372411862e-06
9.183052063e-06
8.791298689e-06
1.046908793e-05
-9.741342537e-06
-3.753765069e-05
-3.641575316e-05
-2.822431645e-05
)


100
(
-0.001032294991
-0.0008488924334
-0.0005458444761
-0.0003692049698
-0.0002679954164
-0.0002027597939
-0.0001589763166
-0.0001289334516
-0.0001096901343
-9.149711423e-05
-7.911704104e-05
-6.60977916e-05
-5.64632429e-05
-4.956422679e-05
-4.21201069e-05
-3.74046364e-05
-3.425210431e-05
-3.066242349e-05
-2.737691238e-05
-2.556136542e-05
-2.394310607e-05
-2.163446423e-05
-1.967072449e-05
-1.83819161e-05
-1.719123259e-05
-1.563872052e-05
-1.421178048e-05
-1.330387165e-05
-1.261411322e-05
-1.167157113e-05
-1.054930968e-05
-9.827187066e-06
-9.423731451e-06
-8.664603542e-06
-7.736645521e-06
-6.996934974e-06
-6.677863199e-06
-6.360429568e-06
-5.7839392e-06
-4.998561064e-06
-4.424632619e-06
-4.368422737e-06
-4.136980777e-06
-3.525359499e-06
-2.657640534e-06
-2.604851649e-06
-2.998178179e-06
-2.728324336e-06
-1.789047149e-06
-1.690590889e-06
-2.242142104e-06
-2.00219367e-06
-1.340015634e-06
-1.385443402e-06
-2.133072998e-06
-2.017437674e-06
-9.551330379e-07
-8.312290557e-07
-1.783614667e-06
-1.402468922e-06
-1.830039586e-08
4.198213373e-07
-2.88623772e-07
-1.181298867e-06
-1.694048804e-06
-1.579102642e-06
-1.126084666e-06
-4.585227215e-07
4.71758446e-07
1.144615158e-06
1.573777329e-06
2.209946542e-06
2.766800163e-06
2.527260529e-06
2.355631748e-06
3.582173235e-06
3.237558531e-06
1.919179084e-06
3.688832416e-06
3.929702183e-06
2.606797607e-06
4.193588199e-06
4.063218821e-06
3.480552673e-06
5.339380505e-06
6.869467921e-06
7.810602395e-06
8.116232586e-06
8.995978332e-06
1.088020752e-05
1.188396038e-05
1.236399165e-05
1.422135035e-05
1.718100141e-05
1.978784347e-05
2.062397595e-05
-2.737632284e-05
-7.14333875e-05
-6.115933234e-05
-5.456397673e-05
)


100
(
-0.001019107297
-0.0008447978137
-0.0005536119085
-0.0003767356532
-0.0002792919681
-0.0002147727837
-0.0001689172746
-0.0001373124764
-0.0001162770522
-9.872980501e-05
-8.486119688e-05
-7.373002988e-05
-6.198179591e-05
-5.382268126e-05
-4.71753227e-05
-4.063120131e-05
-3.620732416e-05
-3.305493782e-05
-2.977989234e-05
-2.656206238e-05
-2.44468911e-05
-2.288954007e-05
-2.074718798e-05
-1.836522301e-05
-1.683262778e-05
-1.593242251e-05
-1.456517039e-05
-1.298488738e-05
-1.197652822e-05
-1.154044226e-05
-1.078428238e-05
-9.652902099e-06
-8.328730921e-06
-7.992425922e-06
-7.874900019e-06
-6.875033925e-06
-5.285006752e-06
-4.744053396e-06
-4.93494331e-06
-4.35704696e-06
-3.747159813e-06
-3.10786966e-06
-3.514467511e-06
-3.986091797e-06
-3.135904889e-06
-1.457559819e-06
-1.930406747e-06
-3.355289053e-06
-2.636128778e-06
-1.256654454e-06
-1.5346303e-06
-2.652366135e-06
-2.229667833e-06
-1.426357974e-06
-1.786001512e-06
-2.545521894e-06
-1.615366796e-06
-4.238375569e-07
-7.115040539e-07
-1.553176158e-06
-1.549603933e-06
-6.280940243e-07
1.814123552e-07
4.507620131e-07
6.2860476e-07
1.034523085e-06
1.540798415e-06
1.630833215e-06
1.594611448e-06
1.939584808e-06
2.37998677e-06
3.220366579e-06
4.479772355e-06
5.251369385e-06
4.262270691e-06
3.467933525e-06
4.674576392e-06
4.667405908e-06
4.153821095e-06
5.244242616e-06
5.948227859e-06
6.485655631e-06
7.665584773e-06
8.679211676e-06
8.778442212e-06
9.152163383e-06
1.066630108e-05
1.186044456e-05
1.251979599e-05
1.277313986e-05
1.489499059e-05
1.649472145e-05
1.895924602e-05
2.392834259e-05
2.840268244e-05
2.405638201e-05
-4.520221337e-05
-9.491537903e-05
-8.147122154e-05
-8.062453381e-05
)


100
(
-0.001003960901
-0.0008388461204
-0.0005597685805
-0.0003860146199
-0.000292057668
-0.0002266246704
-0.0001792034139
-0.0001471301916
-0.0001233064132
-0.0001066566188
-9.059962263e-05
-7.852798379e-05
-6.798827038e-05
-5.780203581e-05
-5.040288134e-05
-4.410531722e-05
-3.792229969e-05
-3.359939274e-05
-3.080272692e-05
-2.78521787e-05
-2.455703317e-05
-2.217170081e-05
-2.074356372e-05
-1.873466951e-05
-1.598423193e-05
-1.380073052e-05
-1.307971194e-05
-1.266205546e-05
-1.160037471e-05
-1.007699384e-05
-9.599950808e-06
-9.501760459e-06
-8.53015384e-06
-6.717192057e-06
-6.681363257e-06
-7.551266755e-06
-6.667250244e-06
-3.795247099e-06
-3.192314648e-06
-4.802063782e-06
-4.365880169e-06
-3.025671004e-06
-2.562339902e-06
-4.100379709e-06
-4.672655703e-06
-2.564786207e-06
-5.826563841e-07
-2.431948519e-06
-4.047642735e-06
-2.504420733e-06
-1.191714644e-06
-1.841888197e-06
-2.620152854e-06
-2.096420308e-06
-1.482877884e-06
-1.42790314e-06
-8.569465041e-07
1.319367665e-07
8.603907859e-07
1.665823327e-06
1.833408177e-06
1.059828505e-06
6.609508222e-07
1.24064093e-06
1.923869688e-06
1.911899398e-06
1.439276591e-06
1.492702674e-06
1.962587638e-06
2.580191411e-06
3.062186272e-06
3.558367648e-06
4.531470641e-06
6.014099325e-06
6.672176659e-06
5.478140829e-06
5.226560001e-06
6.491762293e-06
7.109853019e-06
7.097069132e-06
7.795366312e-06
9.585416732e-06
9.864066215e-06
9.539122619e-06
1.005920952e-05
1.020361406e-05
1.063812606e-05
1.343200905e-05
1.466037151e-05
1.283347005e-05
1.549236266e-05
1.860132977e-05
2.233327484e-05
2.865871864e-05
3.595348798e-05
1.16076967e-05
-6.334228414e-05
-9.688889671e-05
-9.334953361e-05
-0.0001019853604
)


100
(
-0.0009824542236
-0.0008285477461
-0.0005645507332
-0.0003993471177
-0.0003048999662
-0.0002372172465
-0.0001896744592
-0.0001562164991
-0.0001304119062
-0.000112209491
-9.708729802e-05
-8.274698009e-05
-7.207500248e-05
-6.203263136e-05
-5.284689097e-05
-4.613116701e-05
-4.01125941e-05
-3.399719021e-05
-2.983783829e-05
-2.763475562e-05
-2.510962972e-05
-2.173301556e-05
-1.889596509e-05
-1.767301959e-05
-1.596050928e-05
-1.268616609e-05
-1.068331269e-05
-1.090542677e-05
-1.122409952e-05
-1.016026105e-05
-8.132669892e-06
-8.3332263e-06
-9.246191136e-06
-7.797981607e-06
-5.693118654e-06
-6.653611136e-06
-8.259020666e-06
-6.156254386e-06
-2.984918616e-06
-3.638480369e-06
-5.725091818e-06
-4.744635842e-06
-3.085490059e-06
-3.1971814e-06
-4.986040224e-06
-4.083282755e-06
-1.667329336e-06
-8.209836232e-07
-2.356667052e-06
-2.956693422e-06
-1.449997224e-06
-7.048083931e-07
-3.079197438e-07
-5.657882473e-07
-4.89401849e-07
1.018544142e-07
7.776041495e-07
1.223456443e-06
1.137197671e-06
1.308075257e-06
1.969960448e-06
2.571840976e-06
3.009409366e-06
2.363728492e-06
1.718734431e-06
2.260326827e-06
2.931659135e-06
3.855394583e-06
3.9748694e-06
3.463455637e-06
3.840535023e-06
4.760789345e-06
4.983349567e-06
4.695190876e-06
5.305853967e-06
5.949332043e-06
6.405673701e-06
6.691587418e-06
6.996709237e-06
7.891956167e-06
8.355221129e-06
8.953404856e-06
9.709877167e-06
9.902130455e-06
9.999319582e-06
1.069632017e-05
1.175905902e-05
1.48447527e-05
1.714734241e-05
1.452160261e-05
1.547222638e-05
2.218137752e-05
2.987386384e-05
3.958804335e-05
4.763015311e-05
-6.834706456e-06
-9.236394616e-05
-0.0001042811312
-0.0001014406019
-0.000115208487
)


100
(
-0.0009569391404
-0.0008151189296
-0.0005700489138
-0.0004118048295
-0.0003149910641
-0.0002481048209
-0.0001998483742
-0.0001643718305
-0.0001389107369
-0.000117260314
-0.000101740549
-8.697480506e-05
-7.462022423e-05
-6.525822713e-05
-5.559069538e-05
-4.709692901e-05
-4.099813569e-05
-3.511327933e-05
-2.922755159e-05
-2.531115731e-05
-2.373735642e-05
-2.193342188e-05
-1.862848798e-05
-1.531080065e-05
-1.465094453e-05
-1.386101663e-05
-1.021905439e-05
-8.677364626e-06
-9.761236192e-06
-1.068450375e-05
-8.392675798e-06
-6.964388696e-06
-9.442469306e-06
-1.038675105e-05
-7.502528756e-06
-5.452140877e-06
-7.936404171e-06
-9.190248119e-06
-5.761834518e-06
-2.753910237e-06
-4.463068754e-06
-6.469945594e-06
-4.905657568e-06
-3.174515128e-06
-3.476587389e-06
-3.800828548e-06
-2.229444602e-06
-4.502816898e-07
3.575275158e-07
3.434120949e-07
-3.377500171e-07
-4.237235832e-07
1.341370616e-07
1.150385777e-06
2.158797557e-06
1.18956647e-06
9.888336522e-08
6.453321807e-07
1.338400006e-06
1.977707566e-06
1.86082433e-06
2.002945775e-06
3.016058156e-06
3.635428073e-06
4.183207864e-06
4.340157721e-06
3.573485771e-06
3.213086204e-06
4.41895341e-06
5.603480851e-06
5.112970716e-06
4.485085621e-06
4.585528371e-06
4.738058755e-06
4.922170854e-06
4.710677747e-06
5.134868808e-06
6.233382509e-06
6.706520698e-06
7.324757007e-06
8.267088895e-06
8.953181461e-06
9.735181855e-06
1.108262957e-05
1.300278866e-05
1.462220196e-05
1.59338423e-05
1.89151176e-05
2.121180759e-05
2.208584318e-05
2.828951614e-05
3.698306047e-05
4.621561902e-05
6.04837456e-05
6.514880169e-05
-3.844422731e-05
-0.0001474329768
-0.0001325617151
-0.0001193184856
-0.000130000271
)


100
(
-0.0009337333271
-0.000802285081
-0.0005738295258
-0.0004205477649
-0.0003249630675
-0.000258584035
-0.0002094996098
-0.0001720896511
-0.0001452197886
-0.0001221693075
-0.0001046587602
-9.135983004e-05
-7.668219678e-05
-6.594808699e-05
-5.788274692e-05
-4.861525634e-05
-4.088506544e-05
-3.4816024e-05
-2.939502238e-05
-2.454424125e-05
-2.051870837e-05
-1.990306675e-05
-1.942211998e-05
-1.652978406e-05
-1.349358095e-05
-1.273448977e-05
-1.246043618e-05
-9.333122258e-06
-8.303052127e-06
-9.992224707e-06
-1.044127163e-05
-7.541040455e-06
-7.408000842e-06
-1.124149642e-05
-1.100660165e-05
-7.637386179e-06
-6.543131321e-06
-9.27275673e-06
-8.595954924e-06
-4.743276016e-06
-3.115719085e-06
-4.530841339e-06
-5.336388196e-06
-3.610486277e-06
-2.342611103e-06
-1.307105546e-06
-9.987628148e-07
-4.661591065e-07
5.883477562e-07
1.279917112e-06
1.990070531e-06
1.873305458e-06
5.865578039e-07
1.566721477e-07
1.162269667e-06
2.140546147e-06
2.652351251e-06
1.969104801e-06
1.019596792e-06
1.383763833e-06
1.942473777e-06
2.791891222e-06
3.571604195e-06
3.494535451e-06
3.483947985e-06
4.041941665e-06
4.557829409e-06
4.436112437e-06
4.13491416e-06
4.75750568e-06
5.428864909e-06
5.578832312e-06
4.832403842e-06
3.718659088e-06
4.176356304e-06
5.230593291e-06
5.887677591e-06
7.101324096e-06
8.608196487e-06
9.529756794e-06
1.020510616e-05
1.147559115e-05
1.499574293e-05
1.828383305e-05
2.01928152e-05
2.205820744e-05
2.688426895e-05
2.809066861e-05
2.734985374e-05
3.452150538e-05
4.467297104e-05
5.729909835e-05
7.26432458e-05
8.543181062e-05
7.852866629e-05
-7.834523583e-05
-0.0002131997295
-0.0001758532939
-0.0001580631581
-0.0001673593473
)


100
(
-0.0009148986716
-0.0007901709512
-0.0005730858023
-0.0004255827771
-0.000334925368
-0.0002680723869
-0.0002175479172
-0.0001794623313
-0.0001503344094
-0.0001283794827
-0.0001064651714
-9.208094605e-05
-8.042272975e-05
-6.586084457e-05
-5.663350238e-05
-4.994555474e-05
-4.093704404e-05
-3.302176361e-05
-2.886361175e-05
-2.574013536e-05
-2.127710711e-05
-1.700657742e-05
-1.7254119e-05
-1.844525514e-05
-1.600078085e-05
-1.350041331e-05
-1.196527417e-05
-1.195493872e-05
-1.01540425e-05
-9.555519583e-06
-1.141418226e-05
-9.65834896e-06
-6.863061913e-06
-9.049068453e-06
-1.29602277e-05
-1.102618441e-05
-7.288049928e-06
-7.13531665e-06
-8.293776872e-06
-6.557408415e-06
-3.323446316e-06
-1.714782825e-06
-1.769530938e-06
-2.960668918e-06
-2.721343935e-06
-1.607343023e-06
-5.23719378e-08
1.538215539e-06
1.14827618e-06
6.022075172e-07
1.236246854e-06
1.617415367e-06
1.933484632e-06
1.962862483e-06
1.058439316e-06
1.231763044e-06
2.575287122e-06
3.058396932e-06
3.39146491e-06
3.150590806e-06
1.889018444e-06
1.344855522e-06
2.360598219e-06
3.538919661e-06
3.69689611e-06
3.330999367e-06
3.869993107e-06
4.838623559e-06
5.512505398e-06
5.925053397e-06
5.590575606e-06
5.345551305e-06
5.609511106e-06
6.183261201e-06
7.140091099e-06
8.980807004e-06
1.106909498e-05
1.201894028e-05
1.253760435e-05
1.409338073e-05
1.775725203e-05
2.11940532e-05
2.332939172e-05
2.554069999e-05
2.91666425e-05
3.473086059e-05
3.688459631e-05
3.791469035e-05
4.455905469e-05
5.398368121e-05
6.872985712e-05
8.220663127e-05
0.0001027431495
0.0001224991438
8.239684482e-05
-0.0001448698666
-0.0002898829636
-0.0002231370567
-0.0002134345108
-0.000230938974
)


100
(
-0.000895580507
-0.0007769905942
-0.0005700086105
-0.0004311634654
-0.0003437088648
-0.0002757954763
-0.0002243949807
-0.0001863221722
-0.0001544043262
-0.000131078229
-0.0001107882011
-9.143741263e-05
-7.937861717e-05
-6.845699956e-05
-5.460189703e-05
-4.702491898e-05
-4.226192694e-05
-3.422731777e-05
-2.684754886e-05
-2.4516193e-05
-2.355747057e-05
-1.99016614e-05
-1.640976797e-05
-1.607676895e-05
-1.769741906e-05
-1.676055417e-05
-1.466138839e-05
-1.230698124e-05
-1.244300724e-05
-1.178684532e-05
-1.100209055e-05
-1.19457264e-05
-9.335188421e-06
-7.145478217e-06
-9.976034964e-06
-1.19042237e-05
-9.391556947e-06
-6.645001144e-06
-5.303724388e-06
-4.804980391e-06
-3.974488089e-06
-2.558403454e-06
-1.233329058e-06
4.807806782e-07
3.114957481e-07
-1.42257136e-06
-1.439018226e-06
-1.802710508e-07
1.167837137e-06
2.121827939e-06
1.219392394e-06
3.667712768e-07
1.321210042e-06
2.014775673e-06
2.556320074e-06
3.473736515e-06
3.047721846e-06
2.35925684e-06
2.779587859e-06
3.044265595e-06
3.271709852e-06
2.495971127e-06
1.540172458e-06
2.566314979e-06
4.405237658e-06
5.277787601e-06
5.841637577e-06
5.906931887e-06
5.866830423e-06
7.03382833e-06
8.573514736e-06
8.970459891e-06
1.017699838e-05
1.312920638e-05
1.56250148e-05
1.640373097e-05
1.650757248e-05
1.807501903e-05
2.150583113e-05
2.572872587e-05
2.90469226e-05
3.020687349e-05
3.055623116e-05
3.778411453e-05
4.352626656e-05
4.718549567e-05
5.084897158e-05
5.559110967e-05
6.590620152e-05
7.941593858e-05
9.741751992e-05
0.0001205382421
0.0001518515792
0.0001663543503
5.407446932e-05
-0.0002514530667
-0.0003741564833
-0.0002736610501
-0.0002768746087
-0.0003073074167
)


100
(
-0.0008676913893
-0.0007584486153
-0.0005654140032
-0.0004358543621
-0.0003500953084
-0.0002825371389
-0.0002298278985
-0.0001905039216
-0.0001597719321
-0.0001324030973
-0.0001123135534
-9.264814813e-05
-7.627966861e-05
-6.673648612e-05
-5.691001577e-05
-4.405503261e-05
-3.867114536e-05
-3.650922617e-05
-3.005272246e-05
-2.320341067e-05
-2.235271523e-05
-2.350503709e-05
-2.028769111e-05
-1.725412461e-05
-1.580971998e-05
-1.758145511e-05
-1.819805307e-05
-1.616327487e-05
-1.391724573e-05
-1.192138423e-05
-1.207291662e-05
-1.467032112e-05
-1.09898097e-05
-6.471174041e-06
-6.78465457e-06
-7.834500455e-06
-8.67882454e-06
-7.556283084e-06
-6.183490135e-06
-3.597326044e-06
-2.121490112e-06
-2.334479831e-06
-1.671815457e-06
-5.629971669e-07
5.201507131e-07
1.51585922e-06
2.953250322e-07
-1.622904877e-06
-7.424219272e-07
8.974323944e-07
1.698948499e-06
2.73790905e-06
2.484015789e-06
1.707594133e-06
2.123141521e-06
2.441087568e-06
3.437582175e-06
4.352941863e-06
2.761677162e-06
1.872854495e-06
3.288156391e-06
4.618757651e-06
5.745496787e-06
6.545062466e-06
6.652492259e-06
6.845547899e-06
7.73815479e-06
8.930355938e-06
8.386331601e-06
9.921637377e-06
1.437239949e-05
1.812264246e-05
2.060396811e-05
2.120447676e-05
2.236207074e-05
2.511940111e-05
2.804945012e-05
3.159948377e-05
3.490553606e-05
3.619582469e-05
3.821871899e-05
4.380576048e-05
4.894294616e-05
5.374132091e-05
5.796692712e-05
6.796726586e-05
7.45727128e-05
7.839364371e-05
9.765756844e-05
0.000116888957
0.0001372631199
0.0001703441457
0.0002059215364
0.000216444848
-1.319145199e-05
-0.000405328584
-0.0004642810587
-0.0003319227851
-0.0003419806165
-0.0003749324618
)


100
(
-0.0008314225553
-0.0007343887241
-0.0005611716121
-0.0004383089123
-0.0003531386093
-0.0002876690237
-0.000235426231
-0.000192971362
-0.0001620368535
-0.0001332747726
-0.0001110001228
-9.416712431e-05
-7.519290386e-05
-6.194404315e-05
-5.541880488e-05
-4.748858541e-05
-3.627174682e-05
-3.283204759e-05
-3.32522735e-05
-2.873410963e-05
-2.328977898e-05
-2.211833593e-05
-2.357771557e-05
-2.172787559e-05
-1.887173624e-05
-1.614671995e-05
-1.734689992e-05
-1.918569639e-05
-1.722523828e-05
-1.468000472e-05
-1.16643984e-05
-1.052653606e-05
-1.158362395e-05
-8.992484895e-06
-5.903207371e-06
-5.866945652e-06
-4.943622778e-06
-6.035829769e-06
-7.068262867e-06
-5.224967069e-06
-2.991143778e-06
-5.000373498e-07
-8.07618975e-07
-2.242419823e-06
-1.487132036e-06
-1.062193461e-07
8.377449734e-07
1.827732134e-06
1.552676278e-06
7.620013599e-07
1.026391858e-06
1.385517352e-06
2.290525131e-06
4.387084032e-06
3.500094614e-06
1.283875241e-06
2.285421675e-06
3.937577907e-06
5.481208879e-06
7.331135912e-06
7.673227861e-06
7.728991838e-06
8.988822196e-06
1.05818451e-05
1.240650052e-05
1.065372692e-05
9.582335935e-06
1.259242984e-05
1.600030503e-05
2.007731168e-05
2.340585293e-05
2.575986968e-05
2.827445389e-05
3.014042138e-05
3.233976834e-05
3.878256303e-05
4.659061973e-05
4.7785757e-05
4.581326064e-05
4.899762763e-05
5.753945185e-05
6.51188071e-05
6.765073039e-05
7.149889249e-05
8.469689833e-05
9.4975363e-05
9.652223796e-05
0.0001165448122
0.0001466034277
0.0001673512343
0.0001864195978
0.0002234030173
0.0002720182505
0.0002634960769
-0.0001231829071
-0.0005762506283
-0.0005568528085
-0.0004132254798
-0.0004348683715
-0.0004851597652
)


100
(
-0.0007987728028
-0.0007118112841
-0.0005536816066
-0.0004362316483
-0.0003559584832
-0.0002910740708
-0.0002383220761
-0.0001944102647
-0.0001614926392
-0.0001361858127
-0.000108032449
-9.070881338e-05
-7.762303346e-05
-5.983247153e-05
-5.007350822e-05
-4.703032913e-05
-4.134112185e-05
-3.202169077e-05
-2.98163024e-05
-3.241852459e-05
-2.975463047e-05
-2.48863985e-05
-2.248491134e-05
-2.389787073e-05
-2.341115235e-05
-2.036614578e-05
-1.748634409e-05
-1.592225196e-05
-1.725163475e-05
-1.706095239e-05
-1.41232954e-05
-1.090786559e-05
-6.972267245e-06
-6.858922903e-06
-8.119004665e-06
-6.584145369e-06
-5.247495424e-06
-3.098507841e-06
-2.551928811e-06
-5.264123137e-06
-6.171979928e-06
-4.041506457e-06
-1.838659186e-06
-2.205250376e-07
-6.713098881e-07
-1.365456614e-06
3.734831012e-07
1.9894597e-06
2.528317112e-06
3.631571927e-06
3.124063147e-06
1.08927516e-06
9.192721961e-07
2.461385777e-06
4.53413972e-06
6.406994056e-06
5.514342602e-06
6.226393279e-06
1.007982118e-05
1.135705517e-05
1.334570543e-05
1.534499237e-05
1.359861888e-05
1.252087869e-05
1.507134408e-05
1.820520311e-05
2.045162892e-05
2.286874295e-05
2.610288026e-05
2.95321016e-05
3.236139034e-05
3.421574902e-05
3.692217279e-05
4.211768245e-05
4.961508805e-05
5.619431806e-05
6.003678504e-05
6.278339859e-05
6.457637462e-05
7.231199254e-05
8.297330373e-05
8.585050538e-05
9.042686218e-05
0.0001041816318
0.0001151149021
0.0001175234328
0.0001339996012
0.000171766029
0.0001958002385
0.0002186098055
0.0002532800586
0.0003090925809
0.0003576585989
0.0002840472145
-0.0002600174384
-0.000749604667
-0.000658176282
-0.0005104494926
-0.0004979901704
-0.0005153235709
)


100
(
-0.0007696800455
-0.0006896088711
-0.0005427292676
-0.0004327300267
-0.0003570625327
-0.0002926581714
-0.0002391326478
-0.0001966452976
-0.0001588626207
-0.0001332430654
-0.000110686748
-8.616420932e-05
-7.296584064e-05
-6.278947613e-05
-4.800744717e-05
-4.166477447e-05
-4.203945138e-05
-3.834848818e-05
-3.098550717e-05
-2.922328507e-05
-3.278951281e-05
-3.17087286e-05
-2.692447817e-05
-2.241253276e-05
-2.356887779e-05
-2.470041238e-05
-2.075454658e-05
-1.724526429e-05
-1.365035746e-05
-1.336011311e-05
-1.446766233e-05
-1.252727395e-05
-9.738816982e-06
-6.33984973e-06
-3.460828937e-06
-5.099624156e-06
-6.853166179e-06
-5.620431923e-06
-3.796968867e-06
-1.952108628e-06
-3.37413045e-06
-6.128959523e-06
-4.842522592e-06
-1.861231041e-06
7.391597926e-09
2.206878551e-06
2.516682274e-06
1.582722538e-06
2.182673298e-06
2.740355085e-06
3.867890119e-06
5.554864794e-06
3.067198023e-06
1.152514695e-06
5.343241522e-06
9.833778016e-06
1.301925497e-05
1.630091777e-05
1.573774861e-05
1.461174277e-05
1.581700616e-05
1.912171274e-05
2.275051702e-05
1.985515307e-05
2.047187365e-05
2.734905102e-05
3.263897622e-05
3.696769614e-05
3.842268399e-05
3.903613685e-05
4.249576452e-05
4.814443077e-05
5.384710203e-05
5.95075475e-05
6.513911144e-05
6.966615843e-05
7.521729624e-05
8.394400137e-05
9.521621503e-05
0.00010291307
0.0001054734709
0.0001103640564
0.0001248253448
0.0001412797511
0.0001475341653
0.0001551865167
0.0001803258778
0.0002138668135
0.0002494069471
0.0002861964244
0.0003230099909
0.0004070955317
0.0004715637385
0.0003154267545
-0.0003991909375
-0.0009294010963
-0.0007804841095
-0.0006263793374
-0.0006311937754
-0.0006691931333
)


100
(
-0.0007420426854
-0.000667367531
-0.0005297598773
-0.0004288597117
-0.0003558355867
-0.0002925899878
-0.0002377501894
-0.0001948547323
-0.0001593191313
-0.0001281333983
-0.0001075508998
-8.701420763e-05
-6.747299393e-05
-5.898361002e-05
-5.240359695e-05
-4.071453451e-05
-3.669027939e-05
-3.970871143e-05
-3.805788449e-05
-3.214431847e-05
-2.942161014e-05
-3.296207085e-05
-3.340157822e-05
-2.839072309e-05
-2.356835728e-05
-2.156943078e-05
-2.184768063e-05
-1.940298998e-05
-1.547334954e-05
-1.19526836e-05
-8.402764258e-06
-9.91731919e-06
-1.181449092e-05
-9.254059366e-06
-6.337927615e-06
-2.634154138e-06
-3.209912155e-06
-6.989899384e-06
-7.247642574e-06
-4.983114406e-06
-3.019304478e-06
-1.180246454e-06
-1.675421442e-06
-2.192897423e-06
-1.789286912e-07
1.159441745e-06
2.465516812e-06
6.142738521e-06
5.420357595e-06
1.903560571e-06
2.670381888e-06
4.909670698e-06
7.590928442e-06
1.05495142e-05
1.197508426e-05
1.420645999e-05
1.802265644e-05
1.969170716e-05
2.379267536e-05
2.414934761e-05
1.897429802e-05
2.076947686e-05
2.68771291e-05
3.220665579e-05
3.798615017e-05
4.170073678e-05
4.388826785e-05
4.719834617e-05
5.049929282e-05
5.214650476e-05
5.566560368e-05
6.635019996e-05
7.741857429e-05
8.098748412e-05
8.293696585e-05
9.028077278e-05
0.0001000910455
0.0001108625011
0.0001216889106
0.0001282188385
0.0001356695824
0.0001544530777
0.0001700232834
0.0001737296615
0.0001865537385
0.0002132802631
0.0002441652208
0.0002805708706
0.0003051149863
0.000355406138
0.0004130314093
0.0004998374732
0.0005748817474
0.0003293971274
-0.0005306164767
-0.001098971814
-0.0009212615734
-0.0007585283162
-0.0007748411389
-0.0008231684786
)


100
(
-0.0007021133705
-0.0006378961461
-0.0005163660061
-0.0004231178315
-0.000351513961
-0.0002902819421
-0.0002370853453
-0.0001904922183
-0.0001561570071
-0.0001241040156
-0.0001004947856
-8.55236858e-05
-6.768847639e-05
-5.344213829e-05
-4.981676599e-05
-4.652280035e-05
-3.740003742e-05
-3.4219854e-05
-3.901936391e-05
-3.938344067e-05
-3.40386207e-05
-2.88954602e-05
-3.18613221e-05
-3.409943042e-05
-2.82154344e-05
-2.270778778e-05
-1.691215555e-05
-1.670338493e-05
-1.749892421e-05
-1.356968581e-05
-1.035902506e-05
-6.478373394e-06
-5.959917205e-06
-9.850602017e-06
-1.07454757e-05
-8.04326403e-06
-4.776803312e-06
-2.269080198e-06
-4.443596918e-06
-7.084925037e-06
-4.417028279e-06
-1.264075142e-06
8.54714734e-07
3.387305393e-06
3.498358815e-06
1.89250923e-06
2.324408565e-06
3.887413675e-06
6.723905102e-06
9.64258265e-06
6.977395746e-06
6.118453585e-06
1.203810437e-05
1.718300043e-05
1.995505686e-05
2.462189521e-05
2.561199044e-05
2.338559601e-05
2.548404036e-05
2.87604419e-05
3.205450555e-05
3.061507971e-05
3.405714001e-05
4.417176482e-05
5.136908262e-05
5.664724589e-05
5.858947508e-05
6.053296351e-05
6.554097812e-05
7.356537332e-05
8.422065397e-05
9.048211322e-05
9.38280549e-05
9.897376768e-05
0.0001046118567
0.0001161454623
0.0001329567531
0.0001461394537
0.0001560501565
0.0001652034446
0.000176812067
0.0001926888247
0.000205647938
0.000223685771
0.0002646300856
0.0002935422249
0.0003029523926
0.0003451936395
0.0003940727384
0.000450278155
0.0005931659932
0.0006448599281
0.0006452535499
0.0002797494705
-0.0007440898958
-0.001277815304
-0.001073039257
-0.0009088762982
-0.0009007001212
-0.000926173503
)


100
(
-0.0006563900897
-0.0006043797521
-0.0005013089219
-0.0004145469055
-0.0003469003808
-0.0002856787525
-0.0002327957231
-0.0001847701537
-0.0001490623909
-0.0001225460212
-9.25434431e-05
-7.745016361e-05
-6.957618619e-05
-5.388575527e-05
-4.415972892e-05
-4.482252178e-05
-4.380516581e-05
-3.681237719e-05
-3.334126501e-05
-3.868716314e-05
-4.074347817e-05
-3.513495437e-05
-2.967862788e-05
-2.833025913e-05
-2.926245208e-05
-2.56139448e-05
-2.003801622e-05
-1.509303144e-05
-1.129042389e-05
-1.192835359e-05
-1.250538545e-05
-1.037501133e-05
-7.364608594e-06
-3.841435903e-06
-8.260821456e-06
-1.328808763e-05
-9.853155627e-06
-5.576189495e-06
-2.609453278e-06
1.01765113e-06
4.353859883e-07
-1.356801801e-06
4.938047895e-07
2.112296991e-06
5.724378038e-06
1.134632818e-05
7.747749581e-06
2.269767128e-06
6.041502012e-06
1.109841337e-05
1.562119536e-05
2.060081871e-05
2.163649207e-05
2.175630901e-05
2.48747732e-05
2.942933762e-05
3.595598755e-05
3.364855441e-05
2.727373872e-05