/*--------------------------------*- C++ -*----------------------------------*\
| =========                 |                                                 |
| \\      /  F ield         | OpenFOAM: The Open Source CFD Toolbox           |
|  \\    /   O peration     | Version:  2.3.1                                 |
|   \\  /    A nd           | Web:      www.OpenFOAM.org                      |
|    \\/     M anipulation  |                                                 |
\*---------------------------------------------------------------------------*/
FoamFile
{
    version     2.0;
    format      ascii;
    class       dictionary;
    location    "constant";
    object      GRPSI6;
}
// * * * * * * * * * * * * * * * * * * * * * * * * * * * * * * * * * * * * * //

GRPSI6_table
100
(

100
(
-0.01585608067
-0.02030020565
-0.02319012135
-0.02602013522
-0.02796801323
-0.02972091854
-0.03289114049
-0.03374703983
-0.03628864932
-0.03772046752
-0.03855596849
-0.04120353191
-0.0417820535
-0.04338555402
-0.04619524022
-0.04677203503
-0.04772800603
-0.05179585867
-0.05232902478
-0.05283568146
-0.05613205224
-0.05797013965
-0.05843388571
-0.05962246074
-0.06279293609
-0.06319304639
-0.06362232294
-0.06569947535
-0.06994264098
-0.07047001697
-0.07088061275
-0.07249956794
-0.07489261955
-0.07520585607
-0.07559725325
-0.0774099456
-0.08203934518
-0.08456510756
-0.08497506263
-0.08637953657
-0.08989652364
-0.09258324074
-0.09295353065
-0.09397191429
-0.09627186768
-0.09847440234
-0.09876904087
-0.09933229613
-0.1036902851
-0.1080174367
-0.1103417337
-0.1112065624
-0.1142718429
-0.1174332746
-0.1194203475
-0.1203097568
-0.1220460858
-0.1238569988
-0.1249791266
-0.1263170357
-0.1283245736
-0.1331137793
-0.1364378626
-0.1366464576
-0.138693188
-0.1447557207
-0.1483642071
-0.1474733436
-0.1528062355
-0.158258581
-0.1605835905
-0.1621541963
-0.1696282605
-0.1737610043
-0.1731983209
-0.1782433962
-0.187187332
-0.1872811391
-0.1919779565
-0.2023366954
-0.2020803344
-0.2106629889
-0.2176938467
-0.2180853592
-0.2327244897
-0.2339157586
-0.2419444688
-0.2514804186
-0.2545081838
-0.2659333955
-0.2701641438
-0.2788203606
-0.2823607202
-0.2895360337
-0.2918923641
-0.2977871688
-0.2986344664
-0.2910148219
-0.2491649258
-0.2175559894
)


100
(
-0.01585487142
-0.02027979727
-0.02316189798
-0.02596762895
-0.02746284575
-0.02971324102
-0.03166491833
-0.03374408978
-0.03533385403
-0.03773996692
-0.03845421691
-0.04074281559
-0.0418173897
-0.04286953663
-0.04545775592
-0.04680875464
-0.04752652117
-0.05006845008
-0.05236160407
-0.05284959118
-0.05469887809
-0.05699001237
-0.05846724352
-0.0592685284
-0.06100834335
-0.06277242922
-0.06366142259
-0.06488467575
-0.06718947107
-0.06947896275
-0.07093904229
-0.07192726175
-0.07325417303
-0.07460999661
-0.07568368456
-0.07673594956
-0.07922029854
-0.08168195364
-0.08411410901
-0.08592975814
-0.08783945207
-0.08975417321
-0.09167202971
-0.09376439635
-0.09503146314
-0.09631112186
-0.09760176269
-0.09900553477
-0.1016539714
-0.1039254438
-0.106209338
-0.1087231819
-0.1122103087
-0.1139231671
-0.1154208531
-0.1171759221
-0.1203679925
-0.1212331629
-0.1220959537
-0.1235172412
-0.1268089342
-0.1278079515
-0.1305504028
-0.1336963293
-0.1359367146
-0.1374934684
-0.1411311825
-0.1455668701
-0.1469684866
-0.1503858091
-0.1546337413
-0.1592674543
-0.1615541907
-0.1654303465
-0.1704902103
-0.1731234868
-0.1738555788
-0.1796642656
-0.1852849685
-0.1881341681
-0.1934805156
-0.1963015854
-0.2033844844
-0.204519122
-0.2102145571
-0.2161495819
-0.2195025028
-0.2250102226
-0.2303187955
-0.234295388
-0.2384635931
-0.2426160625
-0.2465474407
-0.2488271247
-0.2528518366
-0.2551849961
-0.2555431901
-0.2420078195
-0.2207584031
-0.2030658744
)


100
(
-0.01585248747
-0.02010716892
-0.02306346676
-0.02507350574
-0.0269152543
-0.02966412971
-0.03041915824
-0.03360539394
-0.03436735109
-0.03687570835
-0.03835410083
-0.03956982352
-0.04176739368
-0.04235858451
-0.04377137736
-0.04623205101
-0.04733016817
-0.04805790548
-0.05050485173
-0.05287347438
-0.05329349262
-0.05486111562
-0.05709333994
-0.05894990937
-0.05930167634
-0.06103170084
-0.06274005551
-0.06413342982
-0.06448258232
-0.06668670586
-0.06893235838
-0.07110104318
-0.07173402824
-0.07308127844
-0.0743845054
-0.07567256959
-0.07648666673
-0.07782572362
-0.08022292252
-0.08257627951
-0.08483014561
-0.08650162795
-0.08819693798
-0.08981171677
-0.09133385591
-0.09341314487
-0.09453727447
-0.09558852906
-0.09658426891
-0.09898219637
-0.1000951611
-0.1021829184
-0.1041890678
-0.1072202189
-0.1086501622
-0.1100577622
-0.1119867696
-0.116031666
-0.1178064363
-0.1186257837
-0.1213777634
-0.1233239001
-0.1236719146
-0.1270644176
-0.1302837982
-0.1309806101
-0.1319404569
-0.1372567516
-0.1396877976
-0.1413733996
-0.1436998663
-0.1472742796
-0.1477917771
-0.1503775205
-0.1564589183
-0.1581132101
-0.1559582433
-0.1632760272
-0.1676835747
-0.1640776493
-0.170674161
-0.1728108557
-0.1735436319
-0.1794029003
-0.178415657
-0.1832250786
-0.1843890769
-0.1846075749
-0.1883958898
-0.1875518183
-0.190220017
-0.1905193564
-0.1926767284
-0.1939971982
-0.1961406369
-0.1959058534
-0.1961181235
-0.1796299576
-0.1807219425
-0.1783812944
)


100
(
-0.01585017256
-0.01947784545
-0.02234744047
-0.02419047581
-0.02684445121
-0.02871138185
-0.03037659511
-0.03224973731
-0.03433883836
-0.03546554167
-0.03821148136
-0.03887548154
-0.04051754685
-0.04237965682
-0.04283957723
-0.044456382
-0.04679889907
-0.04779500484
-0.04842551079
-0.0507829861
-0.05308408294
-0.05375229592
-0.054930821
-0.05708866433
-0.05919555174
-0.05978540983
-0.06099190001
-0.06263990671
-0.06425326854
-0.06494841649
-0.06610230511
-0.068266527
-0.07038021937
-0.07217411062
-0.07262760139
-0.07373624561
-0.07478240396
-0.07652073904
-0.0767594009
-0.07804863641
-0.08019615638
-0.08241214543
-0.084279852
-0.08445216964
-0.08598446595
-0.08818748017
-0.0917975742
-0.09187574051
-0.09251180314
-0.09446905928
-0.09761212805
-0.09816260004
-0.09831745266
-0.1011172152
-0.1045694486
-0.106013086
-0.1056202046
-0.1097714676
-0.1138733281
-0.116569317
-0.1171085259
-0.1204936337
-0.1220886024
-0.1230098531
-0.1246768143
-0.1269681497
-0.1270898611
-0.1280753624
-0.1313811176
-0.1324553623
-0.133074038
-0.134093965
-0.1371073842
-0.1369784273
-0.1362907237
-0.1410009236
-0.1474204069
-0.1460259493
-0.1462106667
-0.1503233622
-0.1520746658
-0.1552015752
-0.1533446735
-0.1575981248
-0.1582738563
-0.1577166796
-0.1612648535
-0.1613065374
-0.1614656291
-0.1613009983
-0.1632857651
-0.165159056
-0.1650550612
-0.1681521252
-0.167988822
-0.1687196891
-0.166970391
-0.1583724802
-0.1599619763
-0.159786572
)


100
(
-0.01584829059
-0.01897561937
-0.02165796491
-0.02410825976
-0.02668142999
-0.02770665264
-0.03031964521
-0.03101229972
-0.03387004694
-0.03493176629
-0.03677433236
-0.03889455346
-0.03938546733
-0.04133709194
-0.04288036216
-0.043318116
-0.04501176221
-0.04723942524
-0.04826051545
-0.04868554872
-0.05095877421
-0.05317801467
-0.05420991958
-0.05490284526
-0.05698365225
-0.05901813747
-0.06025006776
-0.06086502715
-0.06229517989
-0.06364884208
-0.06496952092
-0.06517881629
-0.06681678091
-0.06870406851
-0.07110353431
-0.07123672834
-0.07177354572
-0.07277384771
-0.07597927782
-0.07629477267
-0.0764794736
-0.07758176123
-0.0808322194
-0.08283251686
-0.08308836144
-0.08293225138
-0.08709744478
-0.09124269378
-0.09150823561
-0.09084349499
-0.09406964784
-0.09726502499
-0.09847128264
-0.09836341666
-0.1009740892
-0.1043664303
-0.1062010187
-0.1062149705
-0.1080979835
-0.1113028259
-0.1132990008
-0.1140336474
-0.1157571824
-0.1166486628
-0.117956468
-0.1199150428
-0.1217305402
-0.1218959831
-0.1224548226
-0.1235655285
-0.1260106349
-0.1270181193
-0.1277359555
-0.1281109581
-0.1291478374
-0.1295252132
-0.1342712531
-0.1343499766
-0.1348267351
-0.1393959136
-0.1383777357
-0.1379561764
-0.1420561182
-0.141793342
-0.1422414473
-0.1427260058
-0.1435606188
-0.1443224008
-0.1448115315
-0.1464583335
-0.1469279591
-0.1476578318
-0.1489991265
-0.1492251953
-0.1505572135
-0.1506510384
-0.143009625
-0.1435086598
-0.1445061686
-0.1455997112
)


100
(
-0.01561941134
-0.01889913578
-0.02156159376
-0.0240174802
-0.02575981283
-0.02757764655
-0.0295047587
-0.03097237826
-0.03250587905
-0.03490440498
-0.03548376538
-0.03789965035
-0.03942945628
-0.04010118609
-0.04203270129
-0.04336884225
-0.04378624736
-0.04543687117
-0.04756026147
-0.04871099947
-0.04909259441
-0.05102145236
-0.05315569542
-0.05462340168
-0.05495693164
-0.05671656115
-0.05866071288
-0.05972208797
-0.0598742435
-0.06086718282
-0.06253414429
-0.06446838421
-0.06465306657
-0.06505480773
-0.06748741413
-0.07031050042
-0.07060669971
-0.0701448116
-0.07246951532
-0.07593775814
-0.07650961875
-0.07663239587
-0.07770385381
-0.08114035571
-0.0831420898
-0.08267039082
-0.08290256475
-0.0870077077
-0.09108209281
-0.09100634944
-0.09116783305
-0.09389550697
-0.09703888112
-0.09824632863
-0.09790982562
-0.09951387776
-0.1018080216
-0.1020651524
-0.1020340756
-0.1026985834
-0.1045119656
-0.1060359625
-0.1076752415
-0.1101971103
-0.1118074853
-0.1136050717
-0.115453936
-0.1161887364
-0.1180337755
-0.1186681107
-0.1190010195
-0.1196675994
-0.1211003667
-0.1232347334
-0.1253903739
-0.1248162083
-0.1235473497
-0.1262398521
-0.126521678
-0.1264463939
-0.1270126377
-0.1275917355
-0.1296308521
-0.1309461604
-0.1315864033
-0.132812609
-0.1328812159
-0.1329484452
-0.1330816317
-0.135889137
-0.136161099
-0.1355442187
-0.1371585834
-0.1370672928
-0.1381456726
-0.1387286451
-0.1290211982
-0.1332855804
-0.134736117
-0.1368159728
)


100
(
-0.0152411338
-0.01879488722
-0.02145186506
-0.02356351318
-0.02492562742
-0.02749834823
-0.02848892486
-0.03091532335
-0.0315743894
-0.03389694728
-0.03547615228
-0.03646242724
-0.03885794645
-0.03993954727
-0.04078229215
-0.04260713156
-0.04383630915
-0.04423290863
-0.04573240736
-0.04776211526
-0.04913177277
-0.04949868141
-0.05097181866
-0.05302736607
-0.05492650457
-0.05524112265
-0.05628252135
-0.05816019411
-0.05914102365
-0.05947757299
-0.05977050948
-0.06277581263
-0.06463152414
-0.06494830076
-0.06466578245
-0.06803445454
-0.0707121377
-0.07099224591
-0.06939659431
-0.07269730489
-0.07611682324
-0.07692413894
-0.07637211528
-0.07807450124
-0.0814448347
-0.08337540762
-0.08265331796
-0.08285875935
-0.08688210515
-0.08993470357
-0.09017003089
-0.08959795929
-0.09097371846
-0.09250985433
-0.09397828145
-0.09546114158
-0.09603252225
-0.09616781932
-0.09726451608
-0.0984724598
-0.09946924371
-0.1000791392
-0.102368014
-0.1046433356
-0.1058719265
-0.1068192823
-0.1081689184
-0.1090491456
-0.1094359733
-0.111057567
-0.1126471778
-0.1141829678
-0.1158812087
-0.1169233083
-0.116914169
-0.1191610599
-0.1177818569
-0.1180017731
-0.1186107729
-0.1198056915
-0.1212027061
-0.1218220719
-0.1209244423
-0.1222056773
-0.1230502329
-0.1241491289
-0.1251628528
-0.125956285
-0.1260330583
-0.1264624582
-0.128027746
-0.1282101372
-0.1287128107
-0.1290345924
-0.1296500383
-0.1302747821
-0.1232589125
-0.1272269748
-0.1290716755
-0.1312476387
)


100
(
-0.01509031431
-0.01857365003
-0.02110558777
-0.02282796374
-0.02482902528
-0.02682813031
-0.02821763935
-0.0299769613
-0.03152969918
-0.03251821741
-0.03510304371
-0.03601491958
-0.03739732193
-0.03965244415
-0.04041917634
-0.0413356272
-0.04306297191
-0.04427026507
-0.044649153
-0.04592596484
-0.04788852636
-0.04953822953
-0.04989321459
-0.05083856377
-0.05283291752
-0.05484969878
-0.05557662514
-0.05672111243
-0.0587205219
-0.05951988835
-0.05948112684
-0.05966745543
-0.06331512648
-0.065040269
-0.06485021929
-0.06499369992
-0.06852029952
-0.07109512114
-0.07005614892
-0.0697904103
-0.07287797309
-0.07624112229
-0.07661937668
-0.0767878988
-0.07839562453
-0.08168477843
-0.08227401397
-0.08177605836
-0.08128638949
-0.08386680456
-0.08488231551
-0.08598337957
-0.08633470269
-0.08675298761
-0.08818497019
-0.09033083191
-0.09249475645
-0.09434837573
-0.09509621233
-0.09624579008
-0.09739549397
-0.09758407753
-0.09781769659
-0.09796932148
-0.09923551601
-0.100205015
-0.1013624787
-0.1031303002
-0.1038499365
-0.1053692581
-0.1075901804
-0.1086075081
-0.1094935321
-0.1098804801
-0.1099390723
-0.1110212921
-0.113107763
-0.1137210777
-0.1144326824
-0.1147570076
-0.1145959963
-0.1152293511
-0.115971231
-0.1163009297
-0.1167059648
-0.1169904733
-0.1176089898
-0.1186123024
-0.120094679
-0.1201217538
-0.1198426134
-0.1207382148
-0.1213602206
-0.1222398814
-0.1223788986
-0.1218662642
-0.1172855593
-0.1213168139
-0.1236092789
-0.125390545
)


100
(
-0.01508888236
-0.01811655764
-0.02049163386
-0.02243057628
-0.02471717681
-0.02589343958
-0.02813482822
-0.02894712932
-0.03125783803
-0.03210378917
-0.03369589395
-0.03598549498
-0.03651601603
-0.03816616247
-0.04028898278
-0.04086537511
-0.04176334502
-0.0433908981
-0.04470848556
-0.04508051286
-0.04604239173
-0.04793217601
-0.04990272003
-0.05028062254
-0.05071333741
-0.0526492595
-0.05462104699
-0.05597360673
-0.05730518592
-0.0592667962
-0.05989146964
-0.05857341093
-0.06020572795
-0.06379610942
-0.06543126171
-0.06433202428
-0.06547780627
-0.06893282424
-0.071049601
-0.07000225804
-0.07020649104
-0.07300052081
-0.07599731074
-0.07647738249
-0.07620011555
-0.0771327801
-0.07818031404
-0.07864131677
-0.07916267141
-0.07904135456
-0.08003122691
-0.08178531284
-0.08360718099
-0.08538613888
-0.08617994666
-0.08590705659
-0.0880418605
-0.09014537394
-0.09152271371
-0.09272083617
-0.09323189433
-0.09366736502
-0.09360589356
-0.09429899355
-0.0957288203
-0.09649674486
-0.09721203956
-0.0992872678
-0.1007855947
-0.1009500595
-0.1010943733
-0.1015788134
-0.1023895336
-0.1043363327
-0.1062318032
-0.1067756386
-0.1081507866
-0.1083596404
-0.1079664862
-0.1083536954
-0.1095779994
-0.1103138513
-0.1103279953
-0.1102080958
-0.1104762802
-0.110771807
-0.1114210859
-0.112579405
-0.1137230446
-0.1136339309
-0.1135033872
-0.1142600213
-0.1148821995
-0.1154652248
-0.1144909765
-0.1135778373
-0.1106879803
-0.1142960119
-0.1165183283
-0.1184756323
)


100
(
-0.01508741621
-0.01778186374
-0.02009963692
-0.02230465064
-0.02411514777
-0.02552738074
-0.02749845869
-0.02878243717
-0.03020448793
-0.03204882203
-0.03263389389
-0.03469140424
-0.03649198352
-0.03698136261
-0.03877537478
-0.04079115242
-0.04126834573
-0.04207526239
-0.04362460211
-0.04511936994
-0.04547483676
-0.04607985428
-0.04791441799
-0.04984606114
-0.05068887522
-0.05094692493
-0.05242087504
-0.05434088326
-0.05620124332
-0.05786002604
-0.05977321359
-0.05967389337
-0.05854402482
-0.06069180087
-0.06422139078
-0.06502367912
-0.06476351399
-0.06591159152
-0.06928638374
-0.07019631923
-0.06999721846
-0.06955445919
-0.07133982675
-0.0726235398
-0.07410734399
-0.07442279419
-0.07458023489
-0.07534963518
-0.07659836661
-0.07799522139
-0.07941048141
-0.07947934866
-0.08032104055
-0.08210445153
-0.08382675088
-0.08459030394
-0.08534406501
-0.08503741874
-0.08602796268
-0.0871784843
-0.08857586367
-0.09061573411
-0.09130988774
-0.09149393694
-0.0929777802
-0.09443312253
-0.0946228002
-0.09471857018
-0.09467354924
-0.09509528795
-0.09647000961
-0.09864675049
-0.09874135167
-0.1002758944
-0.1019532328
-0.1021198192
-0.1017480818
-0.1023455922
-0.1035548531
-0.1042965648
-0.104370952
-0.1045149975
-0.1045421588
-0.1051042854
-0.1054729225
-0.1061284334
-0.1060962917
-0.106842438
-0.1071843134
-0.1078864987
-0.1085710687
-0.1092405662
-0.1098319593
-0.1093481648
-0.1101616644
-0.1050046323
-0.1032030962
-0.1069905972
-0.1085854925
-0.1107801138
)


100
(
-0.01494895073
-0.01768257651
-0.01996819692
-0.02211005676
-0.02336297178
-0.025409098
-0.0265428532
-0.02868935041
-0.02936644986
-0.03129678911
-0.0325874925
-0.03326740992
-0.03551643278
-0.03694919827
-0.03738389759
-0.03920122444
-0.04120409335
-0.04166596038
-0.04227532166
-0.0437667863
-0.04550209219
-0.04587597975
-0.04608784319
-0.04786264494
-0.04973403072
-0.05110401016
-0.05134329154
-0.05213788221
-0.05399666895
-0.05579379923
-0.0584001345
-0.06027077593
-0.05874605676
-0.05895824568
-0.06112761351
-0.0644965674
-0.06491470198
-0.06507180816
-0.0656747446
-0.06731394805
-0.06787825611
-0.06791220122
-0.06746395037
-0.06843723894
-0.07017149674
-0.07216832915
-0.07412233073
-0.07450455596
-0.07423047032
-0.07560774756
-0.07697125354
-0.07828142373
-0.07946040585
-0.07954404063
-0.07969285449
-0.08079988536
-0.08125424075
-0.08252516457
-0.08394079506
-0.08400173623
-0.08481417147
-0.08691167927
-0.08896483917
-0.08988717203
-0.0897140451
-0.08951835456
-0.08984553441
-0.09068396915
-0.09227467563
-0.09201451569
-0.09303268531
-0.09489383948
-0.09573355176
-0.09581657257
-0.09597009058
-0.09722789136
-0.0984973916
-0.09900221692
-0.09901801374
-0.09913268402
-0.09930203732
-0.09993533606
-0.1010529563
-0.1017085678
-0.1015642463
-0.1019354343
-0.1019325792
-0.1021896551
-0.1027692926
-0.1034099777
-0.1042505401
-0.1048980171
-0.1054707649
-0.10576554
-0.107797049
-0.09790341055
-0.09753044054
-0.1012860529
-0.1020539432
-0.1035993836
)


100
(
-0.01465327587
-0.0175719109
-0.01983098177
-0.02146969598
-0.02307982501
-0.02498851118
-0.02611718493
-0.02786305049
-0.02929011182
-0.03023056107
-0.0322404513
-0.0330873736
-0.03405777184
-0.036151414
-0.03734294217
-0.03773640782
-0.03952334949
-0.04151667102
-0.04206815471
-0.04241488276
-0.04391006835
-0.04558514844
-0.04627712222
-0.04646431429
-0.04774125869
-0.04955282392
-0.05133357232
-0.0517369557
-0.05196226372
-0.05358905645
-0.05533478257
-0.05847899078
-0.05979407323
-0.0590701812
-0.05931851432
-0.06124615238
-0.06288799123
-0.06390603429
-0.06362776385
-0.06379280876
-0.06451246447
-0.06577098483
-0.06721838337
-0.06777298895
-0.06770177833
-0.06888175169
-0.07083497413
-0.07274056399
-0.074085432
-0.07437535301
-0.07442153349
-0.07515761107
-0.07577244775
-0.07659446346
-0.07817081513
-0.07830865941
-0.07816107534
-0.07947342881
-0.08117929016
-0.08286896409
-0.08408236479
-0.08378081959
-0.08408718017
-0.08489265595
-0.08570031834
-0.08689994289
-0.08697348754
-0.08756901724
-0.08951782519
-0.09124045001
-0.0908320916
-0.09009332029
-0.09075760751
-0.09127061196
-0.09209793391
-0.09272892312
-0.09361645383
-0.0945149952
-0.09480058085
-0.09540955379
-0.09662474146
-0.09694003269
-0.09722898095
-0.09758967218
-0.09854047268
-0.09893711967
-0.09907527595
-0.09953334378
-0.1002366351
-0.1008429684
-0.1017341986
-0.1022812838
-0.1029737738
-0.1040693155
-0.1021912326
-0.09376354569
-0.09697947486
-0.09743612918
-0.09860618371
-0.1000407059
)


100
(
-0.01449477838
-0.0173716634
-0.01943250673
-0.02089314398
-0.02293927964
-0.02421591987
-0.02599136643
-0.0268884839
-0.02899445004
-0.02984261224
-0.03115247954
-0.0330087187
-0.03351831947
-0.03467771213
-0.03670207055
-0.03776290816
-0.03804799415
-0.03975545575
-0.04173491628
-0.04246324251
-0.04251573083
-0.04399013048
-0.04560931423
-0.04665482716
-0.04683909743
-0.04754623987
-0.04930074408
-0.05100725184
-0.0521275407
-0.05235678794
-0.05310408832
-0.05479337103
-0.05796297963
-0.05887365673
-0.058584764
-0.05824800592
-0.05920102242
-0.06035082841
-0.06218154729
-0.06332606017
-0.06330212817
-0.06374906242
-0.06507705676
-0.06648366521
-0.06783839171
-0.06801628838
-0.06809279726
-0.0694303293
-0.07121018533
-0.07193197413
-0.07283249712
-0.07281901941
-0.07237405021
-0.07300377409
-0.0746879956
-0.07665316056
-0.07858467538
-0.07797605865
-0.07827968387
-0.07968577754
-0.08020954755
-0.08098554231
-0.0814295443
-0.08094877581
-0.08161201523
-0.08388628786
-0.08613743966
-0.08684156015
-0.08639408524
-0.08769161634
-0.08762419723
-0.087603214
-0.08796910457
-0.08848264262
-0.08901030428
-0.08929514284
-0.08992630575
-0.09080930523
-0.09221230884
-0.09294783315
-0.0931904097
-0.09350826904
-0.09418566599
-0.09540548615
-0.09555454296
-0.09553918105
-0.09675905567
-0.09684838525
-0.09738206545
-0.0979029209
-0.09814315457
-0.09896378327
-0.09924732158
-0.09892789086
-0.09671490988
-0.09228279497
-0.09720740171
-0.09668264594
-0.09795036401
-0.09905458682
)


100
(
-0.01449369225
-0.01708335475
-0.01898340141
-0.02075142993
-0.02255154739
-0.02373059027
-0.02553449495
-0.02662199428
-0.02799500803
-0.02974285158
-0.03034154685
-0.03188570965
-0.03344476291
-0.03394633949
-0.03520279795
-0.03717442382
-0.03817375185
-0.03836840175
-0.03994679552
-0.04186155455
-0.04280494335
-0.04286532285
-0.0440022926
-0.04556761078
-0.04703096103
-0.04721027476
-0.04745303459
-0.04897564355
-0.05061595636
-0.05214680414
-0.0527183703
-0.05296530002
-0.05405688499
-0.05571653988
-0.05650457237
-0.05741027208
-0.05766018557
-0.05795973552
-0.05951435085
-0.06134204653
-0.06313201353
-0.06362917173
-0.06330259155
-0.06435143201
-0.06572321196
-0.06693195523
-0.06790529567
-0.06799723316
-0.06775773947
-0.06835597574
-0.06911973256
-0.07075820652
-0.07247058344
-0.07241526907
-0.07167378282
-0.07344090427
-0.07537879943
-0.07683252867
-0.07722171807
-0.07637978567
-0.07564161422
-0.07636809375
-0.07871760447
-0.08104922967
-0.08061284559
-0.08075268273
-0.08269389202
-0.08362961954
-0.08396053952
-0.08409102524
-0.084882202
-0.08596193087
-0.08694956571
-0.08704951842
-0.08713327379
-0.08736128544
-0.08781382342
-0.08836255201
-0.08932427543
-0.08993069477
-0.09056537668
-0.09117181227
-0.0920941242
-0.09223202736
-0.09260014335
-0.09363014244
-0.09422261164
-0.09431742523
-0.09448103785
-0.09478633213
-0.09529319582
-0.09523557558
-0.09507059336
-0.0955260786
-0.09509748105
-0.09257155651
-0.0956700286
-0.09699900921
-0.09840923639
-0.09925638131
)


100
(
-0.01449272958
-0.01688992339
-0.01879003678
-0.02060414994
-0.02189654216
-0.02358254919
-0.02474507533
-0.0264839675
-0.02718807059
-0.02895110504
-0.03022515449
-0.03077129565
-0.03250259681
-0.03388664078
-0.03433451159
-0.03561017381
-0.0375293367
-0.03857178015
-0.03869060866
-0.04005693215
-0.04190363156
-0.04314612851
-0.04321460461
-0.04394751844
-0.04546136129
-0.04687731332
-0.04757405868
-0.04782111713
-0.04856405532
-0.05013470009
-0.0515192522
-0.05274954362
-0.05282470083
-0.05288845705
-0.05405236906
-0.0554714987
-0.05720073367
-0.05803697158
-0.05798985547
-0.0586598197
-0.06044095687
-0.06217835932
-0.06345211478
-0.06364513679
-0.06381617451
-0.06458899887
-0.06525472658
-0.06578990155
-0.06701555267
-0.06734058442
-0.06728113722
-0.06819728969
-0.06991617652
-0.071598784
-0.07234163311
-0.07201695236
-0.07176920442
-0.07286700117
-0.07317501649
-0.07435650125
-0.07521380797
-0.07474706517
-0.07552053781
-0.07784705956
-0.07978674188
-0.07996269588
-0.07958093656
-0.07966192225
-0.08061593577
-0.08160342951
-0.08223696339
-0.08291949352
-0.08363470662
-0.084302604
-0.08479511585
-0.08549222189
-0.08609109393
-0.08635590351
-0.08632732491
-0.08691990408
-0.08798732348
-0.0889492934
-0.08919961507
-0.08925242214
-0.09026374186
-0.09140384608
-0.09149900843
-0.09169942017
-0.09180380161
-0.09216462111
-0.09306411729
-0.09370487338
-0.09427801421
-0.09541374625
-0.09198968369
-0.09202505254
-0.09391348482
-0.09551471132
-0.09736003987
-0.09913397683
)


100
(
-0.01435511005
-0.01679230545
-0.01865626973
-0.02023475191
-0.02147809228
-0.0232828803
-0.02426996025
-0.02582729381
-0.02706082724
-0.02792752315
-0.02971014936
-0.03067870687
-0.03138506488
-0.03305594241
-0.03430692003
-0.03468192324
-0.03590654707
-0.03777427126
-0.03890689887
-0.03901134354
-0.04008209483
-0.04186562603
-0.04346641409
-0.04356085988
-0.04382172628
-0.04528828414
-0.04663603573
-0.04790306677
-0.04815292131
-0.04827972046
-0.04928480966
-0.05054038614
-0.05213644813
-0.05302669128
-0.05311474135
-0.05327235864
-0.05475369776
-0.05644077547
-0.05809115488
-0.05831211648
-0.05833356293
-0.05945465343
-0.06113428157
-0.0621911594
-0.06301227901
-0.063145451
-0.06288960536
-0.06348148716
-0.06461274273
-0.06616067363
-0.06767005401
-0.06743399073
-0.06739644613
-0.06902217227
-0.07047874562
-0.0704284651
-0.07077444204
-0.07021614473
-0.07026276868
-0.07183801608
-0.07372785231
-0.07541026493
-0.07464705151
-0.07460763135
-0.07605073758
-0.07645066443
-0.07693512845
-0.07749678257
-0.07810539335
-0.07897793242
-0.07979987837
-0.08023891296
-0.08031737474
-0.08124113133
-0.08223772253
-0.08299715815
-0.08341301551
-0.083434062
-0.08398649229
-0.08494850496
-0.08526561683
-0.08558929699
-0.08552606429
-0.08703979987
-0.08817772161
-0.08799985088
-0.08857137308
-0.08931316236
-0.08975972548
-0.08977427666
-0.08978510553
-0.09045220445
-0.09132464228
-0.09065346227
-0.08720723257
-0.08968890297
-0.09189581666
-0.09293654541
-0.09445119454
-0.09628975577
)


100
(
-0.01412475808
-0.01668690978
-0.01848285062
-0.01976545344
-0.02131914504
-0.02260733387
-0.02411083184
-0.02502276887
-0.02675526394
-0.0275543902
-0.02868104884
-0.03044920595
-0.03112338685
-0.03188421466
-0.03352964441
-0.03470528434
-0.03501921068
-0.03613389453
-0.0379188052
-0.03922278604
-0.03933044889
-0.04002898767
-0.04174946054
-0.04325640822
-0.0438975632
-0.04414860763
-0.04504076952
-0.04631949097
-0.04733221222
-0.04811441549
-0.04829339138
-0.04858717968
-0.04998023667
-0.05159789474
-0.05325045173
-0.05336196642
-0.05302241386
-0.05398020198
-0.05562512874
-0.05717188021
-0.05843623285
-0.05865696462
-0.0585677995
-0.05922244171
-0.05982357607
-0.06112568449
-0.06296816344
-0.06311676657
-0.06260740469
-0.06379258151
-0.06532313545
-0.06674207115
-0.06758922014
-0.06738578303
-0.06710747116
-0.06755703089
-0.06834750417
-0.06998607889
-0.07046993211
-0.06999909057
-0.07119225867
-0.07305601181
-0.07373913176
-0.07364644537
-0.07338460051
-0.07360992562
-0.07437041938
-0.07532574095
-0.07587472599
-0.07634166543
-0.07704760596
-0.07774408918
-0.07842479497
-0.07908357135
-0.07998685917
-0.08062860672
-0.08021499612
-0.08052746434
-0.08129875068
-0.08231801032
-0.08296778567
-0.08327546942
-0.08350058731
-0.0839368915
-0.08478610593
-0.08542404213
-0.08613644266
-0.08667645462
-0.08762834452
-0.08797998464
-0.08780580253
-0.08780288376
-0.08782117137
-0.08872930509
-0.08648803494
-0.08647837934
-0.0889138843
-0.08985026176
-0.09095176314
-0.09243923298
)


100
(
-0.0140312065
-0.01648935075
-0.01818696866
-0.01951393425
-0.02111056616
-0.02207285274
-0.02372848117
-0.02471779205
-0.0259284274
-0.02738810227
-0.0280246624
-0.02934824994
-0.03100446417
-0.03149991955
-0.03227764754
-0.03389409434
-0.03508218571
-0.03534566815
-0.03626156825
-0.03797467988
-0.0395150713
-0.0396465292
-0.03991461011
-0.04155570768
-0.0429820158
-0.04421390177
-0.04444732689
-0.04451731375
-0.04554935843
-0.04665009842
-0.04819371485
-0.04860432833
-0.04866738172
-0.04940364087
-0.05103048289
-0.05263311108
-0.05361959611
-0.05328878581
-0.05343589339
-0.05473846544
-0.05618604802
-0.05702337142
-0.05798731631
-0.05780035701
-0.05776822106
-0.0583883256
-0.06010600284
-0.06193639485
-0.06323292166
-0.06274857652
-0.06294981371
-0.06446174636
-0.06496119616
-0.06562477267
-0.06623606364
-0.06640597891
-0.06614854671
-0.06772467968
-0.06933591485
-0.07039682343
-0.07030585679
-0.0702025151
-0.0712717019
-0.07159770456
-0.0722500604
-0.07261691623
-0.07304324319
-0.07377291654
-0.07440413107
-0.07476853177
-0.0748828103
-0.07525803737
-0.07615457944
-0.07681690568
-0.07737524789
-0.07806454359
-0.07870483538
-0.07946624501
-0.07982794813
-0.07962800348
-0.08005475342
-0.08123178857
-0.08234336204
-0.08254352346
-0.08229372918
-0.08292546051
-0.08392051177
-0.0846400005
-0.08509222209
-0.08608086088
-0.08692042919
-0.08732253498
-0.08801709155
-0.08790918305
-0.08526129219
-0.08368673635
-0.08531781687
-0.08657117545
-0.08759685516
-0.08909232028
)


100
(
-0.0140306067
-0.01628224539
-0.01793641492
-0.01936859691
-0.02061849761
-0.02190424472
-0.02303663411
-0.02454207873
-0.02524135878
-0.02665609598
-0.02787724273
-0.02841677894
-0.02990534758
-0.0314236688
-0.03182501316
-0.03257669328
-0.03415878691
-0.03540456237
-0.03566144153
-0.03630309174
-0.03795390056
-0.03939588926
-0.03995594435
-0.04024594118
-0.04128368731
-0.04261834758
-0.04369114178
-0.04435178227
-0.04462518195
-0.04508736493
-0.04624900961
-0.04775178935
-0.04893633508
-0.04895751028
-0.04892698386
-0.05041909363
-0.05197843229
-0.0530812223
-0.05354162903
-0.0536803496
-0.05349927689
-0.05430940758
-0.05536049579
-0.05702233269
-0.05808559112
-0.05780145122
-0.05725751474
-0.0590864563
-0.06089168394
-0.0622196029
-0.0628675365
-0.06227613075
-0.0618207297
-0.06238921061
-0.06424512802
-0.06631821824
-0.06625573933
-0.06582269842
-0.06712150976
-0.06857154724
-0.06896705364
-0.06921088091
-0.06959480889
-0.07028158347
-0.07083808857
-0.07160588731
-0.07196725089
-0.07219721426
-0.07276947666
-0.07338272101
-0.0738631
-0.07430808526
-0.07495338391
-0.07542917204
-0.07563462768
-0.07578960459
-0.07697289408
-0.07774486614
-0.07807979122
-0.07825038704
-0.07919244295
-0.07988517342
-0.08048334559
-0.08101658407
-0.08172391637
-0.0822205682
-0.08224306877
-0.08298768164
-0.08345281343
-0.08391109678
-0.08440202241
-0.08507806719
-0.08513391687
-0.08487745616
-0.08228899995
-0.08210884544
-0.08325007614
-0.08383320394
-0.08498646272
-0.0861882822
)


100
(
-0.01403027183
-0.01617467964
-0.01781141345
-0.01917975574
-0.02017987531
-0.02171319633
-0.02255545339
-0.02395317163
-0.02505184101
-0.02582501368
-0.02732843967
-0.02832833798
-0.02884531892
-0.03039305564
-0.03181291284
-0.03213696851
-0.03282475867
-0.03433330566
-0.03571587002
-0.03597299216
-0.03628573131
-0.03785620589
-0.03921664919
-0.04025201776
-0.04055044374
-0.04075245044
-0.04187386639
-0.04315043151
-0.04464709786
-0.04493835689
-0.04477190576
-0.04582018555
-0.0472872349
-0.04874088218
-0.04925302886
-0.04926473721
-0.04974812839
-0.05126230497
-0.05213380546
-0.05277124756
-0.0531120057
-0.05329438184
-0.05331912031
-0.05463631403
-0.05629221872
-0.05792162058
-0.05787035418
-0.05757605622
-0.05803834354
-0.05958098357
-0.06005596493
-0.06097957053
-0.06150693078
-0.06119498185
-0.06135252595
-0.06341068852
-0.06545083336
-0.06612140772
-0.06597978633
-0.06583790856
-0.06649445343
-0.0672287794
-0.06788119878
-0.0683817728
-0.06898359468
-0.06985094231
-0.07055811979
-0.07112082632
-0.07172410153
-0.07206885848
-0.0726589603
-0.07314781129
-0.07338896691
-0.07374174805
-0.07425597073
-0.0748996929