/*--------------------------------*- C++ -*----------------------------------*\
| =========                 |                                                 |
| \\      /  F ield         | OpenFOAM: The Open Source CFD Toolbox           |
|  \\    /   O peration     | Version:  2.3.1                                 |
|   \\  /    A nd           | Web:      www.OpenFOAM.org                      |
|    \\/     M anipulation  |                                                 |
\*---------------------------------------------------------------------------*/
FoamFile
{
    version     2.0;
    format      ascii;
    class       dictionary;
    location    "constant";
    object      GRPSI28;
}
// * * * * * * * * * * * * * * * * * * * * * * * * * * * * * * * * * * * * * //

GRPSI28_table
100
(

100
(
0.149756196
0.1302485777
0.1006125702
0.08578350953
0.07829087975
0.07275524967
0.06847958136
0.06557698285
0.06385166772
0.06190152841
0.06026030188
0.05866910282
0.0561702807
0.05540997325
0.05433173902
0.05208675787
0.05189878455
0.05173992804
0.04996262507
0.04979713163
0.05025442137
0.0494035713
0.0484800633
0.04851596151
0.0482415585
0.04706589281
0.04672222247
0.04748703845
0.04747969459
0.04643674641
0.04599867124
0.04592205876
0.04529288445
0.04432647424
0.04404465037
0.04516780479
0.04557694986
0.0445759089
0.04407717059
0.04459270955
0.04463828685
0.04368059729
0.04303180508
0.04299714644
0.04268505432
0.04180045456
0.04104656437
0.04218903652
0.04322511141
0.04242365677
0.04193332304
0.04252843861
0.04288099996
0.04215765299
0.04168545934
0.04157470608
0.04117579451
0.04038790797
0.04016645393
0.04088343108
0.04101621263
0.04017815636
0.04005641007
0.04069764818
0.04059085153
0.03968765531
0.03999439231
0.0405867998
0.03993436577
0.03950976997
0.04001285989
0.03997308689
0.03919669627
0.03959916862
0.03976557822
0.03899910826
0.03930195614
0.03929129678
0.0388316411
0.03898741377
0.03849594806
0.03849661721
0.03836012129
0.03805632117
0.0378528531
0.03756455814
0.03733393869
0.03687401864
0.03667316701
0.03608061284
0.03552024494
0.03508540977
0.03464047226
0.03414273002
0.03349476847
0.03300082408
0.03281676818
0.03270663898
0.0366776668
0.04067361797
)


100
(
0.145312071
0.1265815574
0.09775260546
0.08339456359
0.07644048809
0.07029368604
0.06646652072
0.06387822844
0.06186495388
0.06076786882
0.05851876969
0.05705606031
0.05507926964
0.05320337989
0.05263849852
0.05132037497
0.04938687273
0.04943941866
0.04944271367
0.0478956179
0.04768719227
0.04825265457
0.04765390276
0.04633643632
0.04645626567
0.04665119939
0.04546900799
0.04432687943
0.04509442378
0.04596776052
0.04498389576
0.04391605536
0.04393974038
0.04397415739
0.04294260561
0.04194675883
0.04199936887
0.04310805018
0.04316995609
0.04213197905
0.04153643477
0.04215209379
0.04233746831
0.04133797792
0.0404338103
0.04055186796
0.04061761748
0.03972841441
0.03888254113
0.03909793246
0.04033876016
0.04056338402
0.03976764386
0.03958340068
0.04024721824
0.04026183694
0.03940217352
0.0389213876
0.0389364355
0.03921070758
0.0376178408
0.03612151185
0.03829007094
0.03956998548
0.03653621996
0.03485214575
0.03863558087
0.03836578559
0.03454174708
0.0356210925
0.03806505222
0.03545075184
0.03339329231
0.03781413845
0.03752438225
0.03200460268
0.0347830847
0.03689598455
0.03130386296
0.03393622481
0.03433280131
0.03068986109
0.03464893614
0.03054099964
0.02993765339
0.03295456858
0.02855160868
0.03059216116
0.02944667859
0.02825263286
0.02907676239
0.02898712153
0.0292826357
0.02937690808
0.02936920092
0.02962977293
0.03620294164
0.05744140931
0.07340708304
0.07228255435
)


100
(
0.1409063443
0.1229415511
0.09492473857
0.08148256176
0.07454526767
0.06855317709
0.0644487326
0.06190804715
0.05985579058
0.05878116553
0.05725745321
0.05530593003
0.05404355967
0.05176960703
0.050392521
0.05001799262
0.04863908911
0.04690484514
0.04718148397
0.04745985762
0.04611400019
0.04563520586
0.04620154728
0.04597486168
0.04473765767
0.04441281358
0.04460997594
0.04395898996
0.04288540759
0.04268717519
0.04355037224
0.04360692802
0.04261014959
0.04189696271
0.04191869743
0.04163119082
0.04063094578
0.03968209842
0.03982936609
0.0408673665
0.04081387178
0.03984801965
0.03902158194
0.03963771301
0.04013832881
0.03923015501
0.03835215147
0.03813682783
0.03830520233
0.03786829019
0.03713558497
0.03652746787
0.03768101479
0.03894710859
0.03843270432
0.03662756672
0.03711855369
0.03865994674
0.03788237564
0.03617045061
0.03672550239
0.03643668774
0.03416803223
0.03531133638
0.03679371248
0.03449318738
0.03192099056
0.03474949566
0.03511542681
0.03184451536
0.03113121461
0.03305263742
0.03303380413
0.03066314901
0.0320724379
0.03563373976
0.03276117735
0.02786190715
0.03036173855
0.03079186663
0.03032853077
0.02859264847
0.0301425847
0.03122624845
0.02622239321
0.02827661244
0.02847329801
0.02605772596
0.02738800162
0.0279358152
0.02719957039
0.02700156219
0.02842941012
0.02783833408
0.02713689705
0.03030947056
0.04599394479
0.06749142605
0.07561961186
0.07605867522
)


100
(
0.1368027081
0.1193705781
0.09278626864
0.07954277605
0.07184986411
0.0667897821
0.06252525649
0.05993003559
0.05859463946
0.05678111908
0.05582465452
0.05364276746
0.05229050865
0.05119939621
0.04876503202
0.04776158416
0.04756101826
0.0462647351
0.04462714477
0.045106977
0.04569955103
0.04445280725
0.04356510901
0.04412809991
0.0443744742
0.04321282022
0.04236727901
0.04258435262
0.04254114774
0.04151798446
0.04056955844
0.04111438551
0.04195950512
0.04132368023
0.04035131446
0.0398445975
0.03984621484
0.03937179439
0.0384194002
0.03752475596
0.03761108632
0.03878530141
0.03902737949
0.03820105999
0.0368323822
0.0373484494
0.03844223329
0.03768141997
0.03548887381
0.03558704029
0.03713803814
0.03646947729
0.03473034335
0.03512230625
0.03740967497
0.03692522956
0.03342826973
0.03310172091
0.03634231774
0.03563938051
0.03291972441
0.03382736064
0.03454955342
0.03295810191
0.03262002755
0.03319548698
0.03235943931
0.03061844497
0.03042509913
0.03160902375
0.03216417214
0.03135884109
0.0302900514
0.02914699717
0.02978869267
0.03250527775
0.02962026767
0.02517065313
0.03050224088
0.03094563854
0.0255995949
0.02782039017
0.02805689147
0.0256689745
0.02611547511
0.0269811487
0.02716911234
0.02658534832
0.02650243522
0.02642850559
0.02610922432
0.02653041012
0.02580479382
0.02591299961
0.02746054576
0.02965228632
0.05247883741
0.07283759033
0.07465574624
0.07696385048
)


100
(
0.1336509985
0.1164442832
0.0902121082
0.07698555102
0.07002436163
0.06502103319
0.06091037714
0.0579458039
0.05663998623
0.05490852253
0.05384751333
0.05299986454
0.05053938439
0.04944757664
0.04831579582
0.04605867078
0.04530046627
0.04527823342
0.04419350272
0.04280128547
0.04314469036
0.0437884678
0.04286517886
0.04171013094
0.04204091218
0.04261646531
0.04175547906
0.04069762144
0.04057689781
0.04083813862
0.04023226173
0.03932901377
0.03870256597
0.03964958069
0.04035656243
0.03947638824
0.03784645235
0.03770510149
0.03830146872
0.03743061101
0.03645036277
0.03576432404
0.03698155772
0.03793309905
0.03640301828
0.03341704676
0.03466389113
0.03742259888
0.03571188356
0.03276796529
0.03344204421
0.03582214326
0.0347263996
0.03269511264
0.03353683352
0.03557681069
0.03336017215
0.03040682331
0.03108452617
0.03293525274
0.03280118572
0.0314566113
0.03165181288
0.03272312451
0.03283541584
0.03208014052
0.03081377782
0.03045823919
0.03073542693
0.03015159499
0.0294926119
0.02901929119
0.0301493419
0.03147980947
0.02804994157
0.02450405661
0.02773615167
0.02907164728
0.02606432567
0.02492786758
0.02545031771
0.02732264076
0.02774603517
0.02629706568
0.02610383832
0.02528561515
0.02488344028
0.02585695037
0.02739354066
0.02611567918
0.0233415127
0.02523226611
0.02543634091
0.02490457332
0.02656933311
0.03132790156
0.05634115371
0.07449984074
0.07420552005
0.07640948376
)


100
(
0.1305480505
0.1135609037
0.08765362825
0.07451931097
0.06825147124
0.06315156687
0.05921960941
0.05637963386
0.05467517289
0.05387683366
0.05186186735
0.0510316325
0.04984797017
0.04770450138
0.04678400797
0.04563018412
0.04363970902
0.04301598185
0.04318102129
0.04240871825
0.04120708508
0.04120166189
0.04184027842
0.04135436724
0.04025918199
0.0399464047
0.04052038933
0.04053924049
0.03975733281
0.03884364343
0.03903958423
0.03926712552
0.03843425291
0.03703692683
0.03781865462
0.03917458608
0.03830909547
0.0351660623
0.03489847525
0.03702456018
0.03632409775
0.03443255561
0.03377662386
0.03594491796
0.03673264768
0.03333936606
0.03013179089
0.03327062914
0.03588807261
0.03302562805
0.03071650814
0.0320678425
0.03363195169
0.03261949967
0.03140666128
0.03169830002
0.03157972957
0.03120475619
0.03125446236
0.03043836314
0.03018890288
0.03136917904
0.03193453808
0.03075881639
0.02935364748
0.02942141477
0.03037849907
0.02989416257
0.02875555371
0.02805321139
0.0287115813
0.02963352048
0.02919721261
0.02773511534
0.0283744376
0.02738186199
0.02479550428
0.02461517113
0.02545630387
0.02739463795
0.0270393321
0.02414200768
0.02421972585
0.02548364542
0.02518281129
0.0256619772
0.02557271739
0.02533443559
0.02436650252
0.02431207799
0.02490972599
0.02445924274
0.02423743031
0.02435491256
0.02603470272
0.03719987487
0.05962121601
0.0713410467
0.07256469484
0.07477676538
)


100
(
0.1270915496
0.1105021008
0.08509376377
0.07278733194
0.06646419529
0.06127608733
0.05751564543
0.05494468355
0.05270795951
0.0519306362
0.05085226796
0.04905417364
0.04833784865
0.04684433163
0.04504813966
0.04430512472
0.04323243735
0.0415042193
0.04091937441
0.04126895253
0.04083423747
0.03972536679
0.03926322955
0.03990889472
0.0399477527
0.03891268406
0.03874995224
0.03948409083
0.03943180296
0.03817823783
0.03663106034
0.03721009149
0.03811614245
0.03681523312
0.03510086974
0.03635710267
0.03801214117
0.03584228588
0.03250852218
0.03339050758
0.03575572504
0.03457008898
0.03247359788
0.03249486306
0.03487298317
0.03365657181
0.03032657426
0.02924307083
0.03171324181
0.03268222504
0.03055288668
0.0299510952
0.03037557794
0.03182416814
0.03226928439
0.03167861476
0.03080889748
0.03018076924
0.03045109519
0.03045736278
0.02946380664
0.02829333537
0.02749066511
0.02859088076
0.02942745441
0.02843368981
0.0282301131
0.02787839963
0.02825605262
0.02918435101
0.02849312324
0.02691994396
0.02658220787
0.02718980229
0.02646846672
0.02634708079
0.02631250779
0.02609731902
0.02585778392
0.02443690787
0.02430497606
0.02470442639
0.02439161031
0.02434151449
0.02423738974
0.02399080251
0.02474760409
0.02565653459
0.02445284879
0.02303621188
0.02368643108
0.0242347817
0.02391326683
0.02391748416
0.02490798081
0.04045237594
0.06178421835
0.06878492194
0.07067512766
0.07224977216
)


100
(
0.1234405437
0.1073501725
0.08288500229
0.07104554861
0.06431663619
0.05958826943
0.05580263429
0.05329416932
0.05169354895
0.04997507077
0.04929638738
0.04764983833
0.04637085015
0.04578015569
0.04411642368
0.04257616712
0.04201393195
0.04111988364
0.03965181467
0.03900935284
0.03947051893
0.039361616
0.03831159376
0.03739968133
0.03804542541
0.03859038792
0.03760131787
0.0376807382
0.03843995393
0.0382141576
0.03574134459
0.03440611086
0.03626176477
0.03700266852
0.03473250085
0.03312823083
0.03535130409
0.03648160569
0.03319341627
0.03030433125
0.03209726371
0.03417726357
0.03262626155
0.03087219853
0.03143174131
0.03213088279
0.03064843916
0.02904184195
0.02881212839
0.02973770232
0.03105325242
0.03126415493
0.03072005665
0.02961493668
0.02845537403
0.02964405923
0.03087305183
0.02997276236
0.02894982189
0.02823363551
0.02858222348
0.0284704088
0.02737034164
0.0272549038
0.0271777008
0.02712442293
0.02814863574
0.02862710768
0.02674713234
0.02484200685
0.02558618045
0.0263994896
0.0264568722
0.02670215499
0.02613668599
0.0265141741
0.02595479103
0.02378625519
0.02365238553
0.02480270466
0.02502295169
0.02442027148
0.02383612043
0.02335785483
0.02323935964
0.02354935731
0.02376556137
0.02446423016
0.02386032926
0.02231739024
0.02316204705
0.02377417803
0.02341297508
0.02341768498
0.02479451305
0.04359100066
0.06266902325
0.06552828369
0.06854403096
0.07042483894
)


100
(
0.1201248782
0.1044868273
0.08083945007
0.06906389443
0.06246402871
0.05788747325
0.05436681444
0.05163262372
0.0501667034
0.04835729167
0.04735556579
0.04675989542
0.04470032408
0.04382247723
0.04336495661
0.04166132914
0.04029779948
0.03991803822
0.03926367464
0.03802957917
0.03722197278
0.03772067856
0.03796289531
0.0369691918
0.03593661769
0.03616897644
0.03687853859
0.03634019407
0.03663302705
0.03741763289
0.03648349326
0.03337609185
0.03274332889
0.03528014031
0.03514743882
0.03268702244
0.03191071995
0.03430643647
0.03381323303
0.03056868341
0.02930501305
0.0308286854
0.03192682137
0.03071861521
0.02997610354
0.02977818237
0.03023529432
0.03023069531
0.02962249562
0.02908629902
0.02843631167
0.02849870802
0.0296059699
0.02997390063
0.02869144009
0.02736882851
0.02679135366
0.02757931335
0.02855368083
0.02815808114
0.0281255192
0.02787113275
0.02710542116
0.02717306134
0.02719176089
0.02630672715
0.02530482789
0.0253909418
0.0260170947
0.02544410711
0.02525487325
0.02501659224
0.02530923592
0.02674426214
0.02532765465
0.02317839007
0.02361272219
0.02477239958
0.02482185404
0.02427359398
0.02383263255
0.02332919167
0.02332003178
0.02360678068
0.02354784611
0.02308777755
0.02312577498
0.02317084534
0.02294339733
0.02328827752
0.02306997016
0.02271717455
0.02241160021
0.0228988061
0.02528159803
0.04554571523
0.06233366864
0.06246120232
0.0666013965
0.06868723998
)


100
(
0.1173851931
0.101947421
0.07857098365
0.06682000566
0.06085377289
0.05617061802
0.05274894456
0.05017115952
0.0485368891
0.04753701485
0.04541468158
0.04482971624
0.04419018265
0.04200718894
0.04141721104
0.04110180488
0.03948840896
0.0381747431
0.0379621999
0.03767544667
0.03661885578
0.0355012877
0.03596314722
0.03658906396
0.03567678846
0.03468267834
0.03427697064
0.03499659927
0.03514676447
0.03562787388
0.03643472986
0.03409185255
0.03103906628
0.03177713475
0.03419658599
0.03308168628
0.03075050414
0.03090981095
0.03212398246
0.03114744121
0.02909900094
0.02838644388
0.02914939987
0.03066939373
0.0307763437
0.0301506843
0.02913990249
0.02805948458
0.02841209059
0.02886914682
0.02830929414
0.02768820085
0.02711923061
0.02704217101
0.02793445632
0.02778214539
0.02663473448
0.02649190915
0.02637435965
0.02652445489
0.02763569463
0.02809640957
0.02673871311
0.02513197706
0.0249799495
0.02564120367
0.0253581128
0.02505355255
0.02508434065
0.02453322828
0.0249574265
0.02510432923
0.02369935295
0.02285988542
0.02369738009
0.02459519072
0.02437078919
0.02397055562
0.02365833056
0.0231911914
0.02306279579
0.02367027556
0.02394187595
0.02320957001
0.02267564843
0.02260455156
0.02195796333
0.02216227149
0.02280580339
0.02253704766
0.02253595665
0.02239536574
0.02220777152
0.02380890799
0.02668190056
0.04739399677
0.06195084867
0.05969793578
0.0643644106
0.0665102309
)


100
(
0.1147359831
0.09947460663
0.07631666317
0.06504838357
0.05924129861
0.05450416234
0.05111175802
0.04892659447
0.04690031854
0.04592788571
0.04471298358
0.04290180579
0.04241036571
0.04153908597
0.0395551668
0.03916835819
0.03901368951
0.03756178184
0.0362195671
0.03617934452
0.03626148844
0.03528109733
0.03419668845
0.03419473457
0.0348357539
0.03443697662
0.03348458026
0.03255982579
0.03311388427
0.03384566262
0.03466962593
0.03460528062
0.03172542138
0.02960277435
0.03081556057
0.03214489922
0.03102280755
0.02978356672
0.02952850532
0.0298578487
0.02994687308
0.02948607711
0.02885774077
0.02795109797
0.02817684915
0.02930529147
0.02930845333
0.02821256359
0.02697690941
0.02627418421
0.02695218439
0.02758814888
0.02698086703
0.02646819031
0.02620558768
0.02585151437
0.02634423886
0.02689541569
0.02641261527
0.02561018015
0.02468826938
0.02513710868
0.02622721833
0.02550516888
0.0242525753
0.02466170715
0.02501938024
0.02534019277
0.02564037693
0.02364764673
0.02170341071
0.02274525018
0.02368009205
0.02353238102
0.02348372982
0.0233835411
0.02338694922
0.02296562828
0.02287088139
0.02345749505
0.02361419982
0.02315798486
0.02273074388
0.02267601699
0.02252369818
0.02246440836
0.02241177037
0.02208282366
0.0218993366
0.02190152215
0.0217159027
0.02145628399
0.02230400156
0.02256910099
0.02962513054
0.05250428346
0.0603477037
0.05707880602
0.0628118799
0.06429799725
)


100
(
0.1119179415
0.09692817479
0.0741435034
0.0634252308
0.05755473165
0.0529907366
0.04946869215
0.04734756286
0.04592945041
0.04431597222
0.04344406076
0.04190077595
0.0405083943
0.04013972413
0.03916518488
0.03728160912
0.03702367302
0.03710351479
0.03586137398
0.03444867613
0.03450966234
0.03491553671
0.03397648203
0.03294287643
0.03243542324
0.03307341752
0.03324309859
0.03234322185
0.03149084745
0.03122440833
0.03195775316
0.03374593029
0.03235159652
0.02939557799
0.02865826428
0.02929459781
0.03017526337
0.03014976833
0.02988184257
0.0289439297
0.02850074777
0.02880074962
0.02862436216
0.02796184735
0.02704525349
0.02619985032
0.02680367567
0.02795134498
0.027308899
0.0261283636
0.02563561797
0.02519904855
0.02585661371
0.02680972236
0.02667861158
0.02622075914
0.02490945528
0.02380535483
0.02489778798
0.02565107848
0.0247257516
0.02394574188
0.02376322035
0.02438277112
0.02534876697
0.02550971436
0.02419249821
0.02262441134
0.02375379411
0.0237752186
0.02207810271
0.02240346278
0.02277661985
0.0226233466
0.02228606131
0.02206788971
0.02259646363
0.02344993347
0.02352786346
0.02290716782
0.02226014375
0.02191935661
0.02216864421
0.02269827993
0.02244878196
0.02223621868
0.02170374247
0.02132555813
0.02158548087
0.02105580012
0.0210479172
0.02117514095
0.02134024861
0.02148262391
0.03454403001
0.05766060521
0.05856820631
0.05517443313
0.06205107989
0.06341935004
)


100
(
0.108898713
0.09429690073
0.07241887809
0.06179954034
0.05572248341
0.05146680242
0.04823721871
0.04575366758
0.04453280796
0.04297754623
0.04185617106
0.04108448526
0.0393463253
0.03825391564
0.03797017298
0.03698795087
0.03523342631
0.03501697662
0.03532135537
0.03433743088
0.03309122276
0.03291404346
0.03331752259
0.0327305981
0.03174724428
0.03084466299
0.03130044847
0.03193113439
0.03126178352
0.03047314376
0.0297796916
0.03014598996
0.03113423096
0.03007833326
0.0286395894
0.02857542231
0.02836292564
0.0290437941
0.02964173084
0.02897314808
0.02796869701
0.02678015821
0.02685573665
0.02746770301
0.0270680864
0.02617209567
0.02544964103
0.02496210572
0.0253421204
0.02593808272
0.02616992634
0.02623723462
0.02554401464
0.02406982293
0.02449139174
0.02586125415
0.02517946945
0.02387720087
0.02301708
0.02270710552
0.02377641387
0.0251322933
0.02511538197
0.0238920307
0.02224528836
0.02338853795
0.02435030589
0.02279585512
0.02196894416
0.02233338032
0.02285054042
0.02281973428
0.02250280039
0.02219205462
0.02202541866
0.02186502118
0.02160087714
0.02178150126
0.0219763228
0.02163333444
0.02208372092
0.02255374537
0.02208110439
0.02136452526
0.02117625069
0.0219296051
0.02181554625
0.02092146453
0.02058971202
0.02040395866
0.02027758725
0.02021670873
0.02051596983
0.02335164223
0.03993090038
0.05771604118
0.05667512021
0.05545209717
0.06020730314
0.06142895278
)


100
(
0.1061641715
0.09199044643
0.07062202282
0.05991845788
0.05423195577
0.04993864981
0.04679612811
0.04434447926
0.04297532206
0.04215794271
0.0402779543
0.03953493602
0.03883940087
0.03695597305
0.03607998885
0.03593568552
0.03503112543
0.03341659266
0.03315358722
0.03366786159
0.03298277436
0.03182195331
0.03131178535
0.03171309322
0.03154401053
0.03061177087
0.02978208661
0.02951642523
0.03014131136
0.03024786072
0.02952117007
0.02888703898
0.02827131082
0.02877379362
0.02928391508
0.0286783394
0.02807244088
0.02716924345
0.02690661082
0.02782334882
0.02807774551
0.02702582103
0.02588975936
0.0252005124
0.02551263033
0.02594544477
0.02538963475
0.02483395691
0.02480725417
0.02450605181
0.02474857268
0.02565749546
0.02567185904
0.02449577697
0.02302922511
0.02232407936
0.02358655718
0.02411034634
0.0231880691
0.0237212148
0.02342598682
0.02272574513
0.02379998685
0.0242003002
0.02241125492
0.02098428993
0.02123722593
0.02236776576
0.02290373792
0.0225451066
0.02216650505
0.02205855544
0.02189719123
0.02158214689
0.02147356109
0.02115188824
0.02108230124
0.02116393038
0.02138933555
0.02192906695
0.02169970786
0.02092410033
0.0202714271
0.02132940296
0.02231508705
0.02103170597
0.02039453827
0.02070254835
0.02053094522
0.02029471101
0.01998705484
0.02007097393
0.02137614102
0.02401503561
0.0411891259
0.05716811338
0.05416835534
0.05443147082
0.05967913901
0.06121090443
)


100
(
0.103719388
0.08980719157
0.06875080291
0.05823139436
0.05274332307
0.04848385486
0.04534581469
0.0432931545
0.04141195066
0.0406310074
0.03971331299
0.03798126919
0.03728569546
0.03649588061
0.03474208866
0.03401699697
0.03403944838
0.03324393295
0.03182820257
0.03147928305
0.03208745445
0.0317166942
0.03061523466
0.02970192968
0.0301045803
0.03042258943
0.02953507968
0.02876821262
0.02809062293
0.02837072982
0.02896119571
0.02880747527
0.02838299111
0.02763064588
0.02694585719
0.02741980912
0.0278134622
0.02718962882
0.02625941984
0.02535548539
0.02568157181
0.02660958019
0.02613347637
0.02504708259
0.02448756319
0.02399001197
0.0243843631
0.02510966192
0.02498337782
0.02457608964
0.02376769555
0.02288638374
0.02388695209
0.02486662355
0.02346575653
0.02215623754
0.02178784505
0.02203428223
0.023469823
0.02428720936
0.02378810579
0.02205630306
0.02043424606
0.02199678958
0.0225418353
0.02130749153
0.02147336908
0.02152920762
0.02150753846
0.02141171784
0.02097963479
0.02075237057
0.02141521284
0.02200834653
0.02171365164
0.02118447155
0.02059961057
0.02027104925
0.02040818004
0.02039223319
0.02084260342
0.02102499784
0.0210208893
0.02085850611
0.01977813561
0.02030713681
0.02112826346
0.02066303832
0.02012080512
0.01959180069
0.01982834381
0.02043931119
0.02022546681
0.02332475454
0.04288542248
0.05714349363
0.05224766751
0.05271288938
0.05794993103
0.05973466294
)


100
(
0.1013697839
0.08769313924
0.06690779627
0.0568119525
0.05125355652
0.04709011664
0.0438947098
0.041901484
0.04050818453
0.03912085881
0.03845776369
0.0372574937
0.03572405573
0.03512405827
0.03435645582
0.03274086041
0.0320695191
0.0322553207
0.03166843521
0.03045483869
0.02989357801
0.03051098026
0.03051039542
0.02946633654
0.02861421564
0.02849907348
0.02883828281
0.02852642859
0.0278277284
0.02729266384
0.02690632653
0.02758159035
0.02813239739
0.02754612539
0.02670087344
0.02552997478
0.025506968
0.02638012166
0.0262837627
0.02537224743
0.02455920589
0.02401466312
0.0244229819
0.02483645267
0.02456876824
0.0245068927
0.02418873207
0.02307313083
0.0232565713
0.02424046725
0.02389186741
0.02302245616
0.02227036474
0.02207032038
0.02261105674
0.02289650805
0.02273650838
0.02270453426
0.02169856902
0.02168242333
0.0230354229
0.02241901528
0.02069999246
0.01993409613
0.0202956186
0.02119009525
0.02153799955
0.02133276655
0.02096223066
0.02092407897
0.02085044104
0.02066081221
0.02051408074
0.02042173766
0.0202839432
0.01985591016
0.02021861962
0.02092769941
0.02082533498
0.02026906839
0.01967031855
0.01971180873
0.01996829835
0.02026527617
0.02016366312
0.0197964394
0.02009896418
0.02039775516
0.02006574428
0.01903439533
0.01844680257
0.01885707701
0.01966726815
0.02630336613
0.04457781961
0.05524431225
0.05067869656
0.05098491578
0.05605987351
0.05766303052
)


100
(
0.09884499724
0.08550603189
0.06530835646
0.05540957181
0.04969519467
0.04569198689
0.04280140118
0.04050228751
0.03931172132
0.03798168528
0.03696212927
0.03630635368
0.03490845992
0.03357402546
0.03311610782
0.03241736992
0.03094710036
0.03024358115
0.0305911303
0.0303040871
0.02923317196
0.02833237493
0.02892000081
0.02934661749
0.02837715604
0.02760827998
0.02692029705
0.02725132704
0.02771396924
0.02723884147
0.02670053003
0.0259558368
0.02589668597
0.02665235266
0.02670018983
0.02578085271
0.02464504537
0.02385217169
0.02438807883
0.02511307734
0.02453903486
0.02380886155
0.0233969704
0.02316908516
0.02353327159
0.02411268561
0.02404832694
0.02338652455
0.02230419135
0.02151877835
0.02249437845
0.02315999162
0.02229877055
0.02178432406
0.0220594637
0.02186054113
0.02200016542
0.02254595559
0.02184795165
0.02082212574
0.02021585695
0.02113710386
0.02123687963
0.02059310351
0.02069880222
0.02042310066
0.02042725094
0.02035894271
0.02002638861
0.01971723283
0.01971865424
0.0202348742
0.02041299447
0.02008799874
0.01995762482
0.02000917857
0.02016270672
0.01969757247
0.01889373708
0.01911310866
0.0202018114
0.02076455037
0.01957038642
0.01820684879
0.0188180846
0.01991348534
0.01981495198
0.01947468592
0.01965969082
0.01956642064
0.01915041602
0.01889977445
0.02002420898
0.02744216424
0.04384998178
0.05245490954
0.04900002507
0.0501575115
0.05459672067
0.05605754047
)


100
(
0.09624548048
0.0833350467
0.06382925261
0.05397565808
0.04841167609
0.04429842984
0.0414792748
0.0392570519
0.0379765632
0.03719507391
0.03556294793
0.03481515569
0.03428904703
0.03271780071
0.03153538615
0.03125129415
0.0306409089
0.02935572618
0.02857954371
0.029043195
0.02908737637
0.0280919686
0.02728297487
0.02731823388
0.02772201623
0.02735586716
0.02666739947
0.02623498589
0.02603280388
0.02633148468
0.02643356234
0.02589474506
0.02512168233
0.02427591032
0.02493680176
0.02575801265
0.02488873244
0.02377740678
0.02309208447
0.02256114331
0.02307412148
0.02388309647
0.02385750481
0.0235806761
0.02266552546
0.02136230533
0.02219764999
0.02343388958
0.02258075636
0.02152473649
0.02094237777
0.02075637147
0.02162665285
0.02255206936
0.02243980889
0.02165647504
0.02030746038
0.02058210632
0.02168555733
0.02096009677
0.01997850166
0.01987214219
0.0201095589
0.02028862739
0.02033213835
0.02020427638
0.01982218422
0.01982845995
0.01994630619
0.019751199
0.01944801728
0.0192836232
0.01917459858
0.01885967347
0.01873890783
0.01962777321
0.020319762
0.01984394485
0.01903478899
0.01860003339
0.01871285945
0.01917900709
0.01930687627
0.01897975755
0.01867651249
0.01844610267
0.01884655169
0.0189058533
0.01876221426
0.01885693733
0.01862390345
0.01884170816
0.01874084682
0.02763650256
0.04682874536
0.05281846289
0.04730681414
0.04894703694
0.05347090228
0.05468809084
)


100
(
0.09392870876
0.08135026974
0.06228377295
0.05248597431
0.04713627619
0.04307407188
0.04015646188
0.03830234128
0.0366414111
0.03588545028
0.0350019816
0.03332655191
0.0327567903
0.03230084209
0.03072193303
0.02961283176
0.02949552656
0.0290641986
0.02796211857
0.02705058405
0.02756132263
0.02793283613
0.02701082233
0.0262792118
0.02571896195
0.02614296889
0.02661688508
0.0261492955
0.02558118457
0.02459448505
0.02474630012
0.02548216993
0.02509737343
0.02428925149
0.02347071962
0.02319173948
0.02398937064
0.02403587441
0.02293839919
0.02236292272
0.02225412888
0.02200759325
0.02261998481
0.02338818041
0.02294530299
0.02177490383
0.02050025769
0.02025960573
0.02149200968
0.02180188631
0.02078120862
0.02114860917
0.02113574423
0.02050945658
0.02127825747
0.02194805806
0.02068146466
0.01935858744
0.0191758079
0.0198521838
0.02041016528
0.02017125875
0.01984169017
0.01961474501
0.01967959055
0.01962991787
0.01927125063
0.01899805483
0.01903077338
0.0192385536
0.01922914864
0.01896310506
0.01885412616
0.01886733029
0.0187099869
0.01867959107
0.01876100531
0.01857445972
0.01873197861
0.01888630337
0.01859802631
0.01847594175
0.01825865152
0.01825648165
0.01843614755
0.01828670275
0.01810041199
0.01830297559
0.01821883045
0.01773821354
0.01790874192
0.01780311209
0.01943756091
0.0301979636
0.04807242849
0.05239838485
0.04611558596
0.04787847321
0.05207557584
0.05306661024
)


100
(
0.0917422031
0.07942923848
0.06074290109
0.05129357539
0.04587602828
0.04188029335
0.03884144079
0.03705232722
0.03586254596
0.03455918996
0.03380226497
0.03278705084
0.03128215717
0.03079813513
0.03038236167
0.02891752039
0.02781303981
0.02785307156
0.02768101434
0.02675073597
0.02599457885
0.02608992482
0.02643292295
0.02599049092
0.02534960984
0.02494841269
0.02493396478
0.02530094572
0.02529722122
0.02470765702
0.02376913791
0.0232074196
0.0239159614
0.02428526154
0.02347521841
0.02270656422
0.02222660377
0.02221421005
0.02249295717
0.02260349545
0.0224450635
0.02202187758
0.02114457969
0.02085558076
0.02188640694
0.02219038171
0.0209126449
0.01979972038
0.01944760976
0.01954888393
0.02088584992
0.02180317828
0.02151357299
0.02012767104
0.01851080126
0.01964586373
0.0208029802
0.0197163359
0.0189367085
0.01911455288
0.019339168
0.01924438695
0.01903885633
0.0190453477
0.01900783451
0.01907511406
0.01923085727
0.01902623418
0.01876079944
0.01865757567
0.01852265304
0.01819333929
0.01805351179
0.01817842969
0.01837847528
0.01828950681
0.01836450046
0.01873704771
0.01852926809
0.01748738166
0.01707807307
0.01788810445
0.01817546563
0.01773918677
0.01747252835
0.01792695026
0.01807943825
0.01769610865
0.01783879911
0.01790772834
0.01745693304
0.01810981371
0.01894145785
0.03048141948
0.04959735608
0.0518573867
0.04558245565
0.04721065036
0.05111582402
0.05228445189
)


100
(
0.08963989315
0.07756912812
0.05927869685
0.05011751245
0.0446028356
0.0406984938
0.03791648657
0.03580595366
0.03476956905
0.03360885162
0.03249865729
0.03180967266
0.03069207264
0.02933324817
0.02897802016
0.02860098593
0.02729918941
0.02617308725
0.02632243208
0.02648072275
0.02567810889
0.02500191824
0.02461501047
0.02494541725
0.02521852927
0.02481954624
0.024218904
0.02337606403
0.02379325919
0.02446967714
0.02386447146
0.0229668408
0.0221766768
0.02232345753
0.02294686459
0.02269663995
0.02199180288
0.02165019735
0.02142945661
0.02138472248
0.02173099459
0.02180047864
0.02127805263
0.020415082
0.01965999645
0.02019676837
0.02084582205
0.02009161637
0.01948708232
0.01978426492
0.01938262166
0.01969764332
0.02092033292
0.0206638614
0.01906255079
0.01784975065
0.01797074546
0.01882963448
0.01945930706
0.0193375167
0.01901929444
0.0187845134
0.01868869676
0.01851234911
0.01821042104
0.01805539277
0.01800136662
0.01783207309
0.01808274122
0.01830369482
0.01815019584
0.01823309846
0.0182601894
0.01800032647
0.01755204205
0.01710845754
0.01713376012
0.018216322
0.01886604163
0.0177746826
0.01676265606
0.01682331692
0.01738123687
0.01767399169
0.01727597581
0.01683176331
0.017066257
0.01704143545
0.01698052907