/*--------------------------------*- C++ -*----------------------------------*\
| =========                 |                                                 |
| \\      /  F ield         | OpenFOAM: The Open Source CFD Toolbox           |
|  \\    /   O peration     | Version:  2.3.1                                 |
|   \\  /    A nd           | Web:      www.OpenFOAM.org                      |
|    \\/     M anipulation  |                                                 |
\*---------------------------------------------------------------------------*/
FoamFile
{
    version     2.0;
    format      ascii;
    class       dictionary;
    location    "constant";
    object      GRPSI10;
}
// * * * * * * * * * * * * * * * * * * * * * * * * * * * * * * * * * * * * * //

GRPSI10_table
100
(

100
(
-0.0002519244352
-0.0003617039662
-0.0004118264813
-0.000441742782
-0.00045271063
-0.000446894221
-0.0004616918889
-0.0004412404226
-0.0004417857959
-0.0004189848414
-0.0004114460841
-0.0003794025888
-0.000366215635
-0.0003581870202
-0.0003279802192
-0.0003129518654
-0.0003051391927
-0.000271895893
-0.0002518939385
-0.0002444379427
-0.0002126161976
-0.0001855413998
-0.0001713835111
-0.0001527587385
-0.0001116639033
-8.974616231e-05
-7.981838098e-05
-5.501034625e-05
-1.484636709e-05
6.845879762e-06
1.816998875e-05
5.586228729e-05
9.673187963e-05
0.0001172413684
0.0001268043871
0.0001489086364
0.0002001259762
0.0002306039946
0.0002451856237
0.0002706983159
0.0003246761429
0.0003612530676
0.0003779637748
0.0004048381697
0.000457857866
0.0004968742421
0.0005136770276
0.0005259841192
0.0005900406642
0.0006430846138
0.0006741805951
0.0006951052019
0.0007536180711
0.0008043194681
0.0008374954585
0.000869979087
0.0009209191485
0.0009600751417
0.0009678497347
0.0009335444348
0.0008749048505
0.0009588318176
0.001081332237
0.001073010276
0.001029895408
0.001130755441
0.00124396729
0.001190388763
0.001212975023
0.001334655849
0.001401212822
0.001363510567
0.001463000386
0.001587761247
0.001491937263
0.001523770643
0.001753131819
0.001699208508
0.001734682263
0.001986053634
0.001907378705
0.002060658324
0.002185181056
0.002110831514
0.002439918154
0.002387475457
0.002541392735
0.002678399726
0.00269252774
0.002869914209
0.002898365885
0.003009624319
0.003025936996
0.003114122071
0.003110828341
0.003184896921
0.003184073079
0.00305103945
0.002170030483
0.001624155396
)


100
(
-0.0002518823721
-0.0003601512388
-0.0004124064375
-0.0004448846817
-0.0004505857581
-0.000455258861
-0.0004555008427
-0.0004528979764
-0.0004435046774
-0.0004350404052
-0.000423328033
-0.0003977058425
-0.0003837531811
-0.0003712942382
-0.0003487828187
-0.0003350482469
-0.0003240174968
-0.0002942422414
-0.0002798160579
-0.0002673770694
-0.000239030098
-0.0002152835222
-0.0002000935102
-0.0001810420642
-0.0001460997658
-0.0001233347402
-0.0001089237503
-8.742969451e-05
-5.431072559e-05
-3.033899806e-05
-1.425674593e-05
1.57582142e-05
5.012458944e-05
7.595348827e-05
9.300018975e-05
0.0001129014658
0.0001489255168
0.0001790940511
0.0002031330291
0.0002285820247
0.0002665325871
0.0002981410818
0.0003237867481
0.0003521259971
0.0003894738235
0.0004216169438
0.0004485572625
0.0004710516266
0.0005157856841
0.0005530252843
0.0005841980754
0.0006134359048
0.0006550034042
0.0006831645467
0.0007042906482
0.0007315221631
0.0007702338467
0.0007934372066
0.0008085910588
0.0008194979805
0.0008137873573
0.0007732663749
0.000798727112
0.0008699043144
0.0009177360468
0.0009217211523
0.0009645460606
0.001035212177
0.001063059677
0.001106367703
0.001173635193
0.00125183117
0.001286442907
0.001344846883
0.001411378317
0.001411458903
0.001375357842
0.001472367542
0.001569212276
0.001591320519
0.00167646704
0.001706264638
0.00180008423
0.001792648186
0.001867304123
0.001942670643
0.001972503916
0.002041022162
0.002101552381
0.002138875598
0.002177760047
0.002219149947
0.002257367446
0.002270330476
0.002315652248
0.00233939739
0.00234715637
0.002157263462
0.00177363285
0.001522325023
)


100
(
-0.0002517891964
-0.0003549695838
-0.0004127312701
-0.00043789503
-0.0004525020898
-0.0004707984834
-0.0004576132182
-0.0004739400422
-0.0004569213913
-0.0004549565904
-0.0004483733343
-0.0004255290388
-0.0004173171764
-0.00039987877
-0.0003803876404
-0.0003714138088
-0.0003595388145
-0.0003357349772
-0.0003192217548
-0.0003104417166
-0.0002867428594
-0.0002641860075
-0.0002467994463
-0.0002315332485
-0.0002055710843
-0.0001810040778
-0.0001612283209
-0.0001439043837
-0.0001210252778
-9.716221257e-05
-7.544916798e-05
-5.44079113e-05
-2.98638655e-05
-4.093086991e-06
1.892145332e-05
3.819210139e-05
5.709406401e-05
7.911501409e-05
0.0001032363429
0.000126743905
0.000148967532
0.0001689086657
0.0001887646338
0.0002047283634
0.0002199590429
0.0002319995083
0.000247878959
0.0002603663932
0.0002741622873
0.0002844909395
0.0002979772073
0.0003134492544
0.0003319227176
0.0003506065835
0.0003688944734
0.0003880139931
0.0004111713644
0.0004400563269
0.0004732053535
0.0005273712855
0.0006079865395
0.0006001489937
0.0005426304704
0.0005922990945
0.0006907033543
0.0007101266815
0.000695016606
0.0007916881076
0.0008510057861
0.0008397594551
0.0008444852392
0.0009101691763
0.0009005735809
0.0008782485171
0.0009916361998
0.001018085478
0.0009112650241
0.001024531805
0.001085651471
0.0009605295722
0.00107828046
0.001076753479
0.001051366562
0.001163312189
0.001071864365
0.001153769581
0.001129078003
0.001107075307
0.001153880685
0.001111887933
0.001141795956
0.00112913587
0.001158403686
0.001164017374
0.001202713269
0.001198041596
0.001226253389
0.001035742349
0.001183922093
0.001245921295
)


100
(
-0.000251678321
-0.0003417786414
-0.0004018581241
-0.0004291618507
-0.000460525307
-0.0004703340394
-0.0004736004673
-0.000475346743
-0.0004789733777
-0.0004640183514
-0.0004719551757
-0.0004494063059
-0.0004356304493
-0.0004292078387
-0.0004064827166
-0.0003918408607
-0.0003869635784
-0.0003707459338
-0.0003483414988
-0.0003365849919
-0.0003260936168
-0.0003044055038
-0.0002845817474
-0.000269407244
-0.0002553973857
-0.000233507563
-0.000213422023
-0.0001961751424
-0.0001824562124
-0.000166417662
-0.000149229047
-0.0001313276343
-0.000114300415
-0.0001015346789
-8.543455073e-05
-7.17033933e-05
-6.01511614e-05
-5.814492792e-05
-5.32377773e-05
-4.9235741e-05
-4.137762192e-05
-3.274157898e-05
-2.846829608e-05
-2.101809183e-05
-1.100289576e-05
-8.107779415e-07
1.230063219e-06
8.272187795e-06
1.50384738e-05
2.617533519e-05
3.548846387e-05
4.598251354e-05
5.93652522e-05
8.556945522e-05
0.0001163194933
0.0001418799894
0.0001613241388
0.0001959981933
0.0002365362457
0.0002832622672
0.0003566773704
0.0004629404218
0.0004924708017
0.0004715969164
0.0004769163006
0.000521584973
0.0005214031217
0.000510031857
0.0005355974596
0.0005383557922
0.0005231133239
0.0005095383461
0.0005281453666
0.000495374482
0.0004620015488
0.0005417614222
0.0006531171934
0.0005935097286
0.0005599984111
0.0006132677697
0.0006014410152
0.0006321662711
0.0005900515246
0.0006464503644
0.0006354401132
0.0006140055807
0.0006580932659
0.0006426927082
0.00063439834
0.0006350993955
0.0006573979619
0.000673070264
0.0006754316109
0.0007158362937
0.0007188227328
0.0007411894798
0.0007597602027
0.0006927700912
0.0008474993222
0.0009344550921
)


100
(
-0.0002515705027
-0.0003308563477
-0.0003902876957
-0.0004316394617
-0.0004660385694
-0.0004664151599
-0.0004878604389
-0.0004753251808
-0.0004923313339
-0.0004799916173
-0.000476625804
-0.0004757569487
-0.0004518494044
-0.0004449421267
-0.0004354584793
-0.0004134088958
-0.0004025648751
-0.0003979272774
-0.0003835714407
-0.0003633469719
-0.000354229702
-0.0003462294446
-0.0003317150648
-0.0003148546916
-0.0003046578512
-0.0002970456441
-0.0002874965517
-0.0002741402979
-0.0002644307223
-0.0002585042892
-0.0002587653567
-0.0002514491107
-0.0002449988935
-0.0002371360139
-0.000239954158
-0.0002298862903
-0.0002223144495
-0.0002130721517
-0.0002246581293
-0.0002223813043
-0.0002229968775
-0.000215821848
-0.0002096038418
-0.0001972566477
-0.0001815412009
-0.0001610657056
-0.0001444826023
-0.0001283336172
-0.0001076529771
-8.751290624e-05
-6.406273191e-05
-3.702635418e-05
-1.460684887e-05
4.585562719e-06
3.079903359e-05
6.267441686e-05
8.652119296e-05
9.86890801e-05
0.0001113216722
0.000125903335
0.0001360592023
0.0001585580231
0.0002055438607
0.0002166748405
0.000205175524
0.0001960750372
0.0002065563066
0.0002018021779
0.0001982529058
0.0002111706257
0.0002367602126
0.0002517665143
0.0002633528468
0.0002716450305
0.0002698704195
0.0002637142689
0.0003298646286
0.0003197226759
0.0003086298127
0.0003652479561
0.000339610152
0.0003183457379
0.0003591489969
0.0003406831173
0.0003354384815
0.0003362805744
0.0003520666277
0.0003675437949
0.0003598820378
0.0003762953741
0.0003944507963
0.0004015679711
0.0004226318878
0.0004306608482
0.0004519330162
0.0004775090595
0.0004524989473
0.0005059602306
0.0006221317935
0.0007099339083
)


100
(
-0.0002387382451
-0.0003270598393
-0.0003880819762
-0.0004332649282
-0.0004568165769
-0.0004740959172
-0.0004876070763
-0.0004902480352
-0.0004898973708
-0.0005000797097
-0.0004815881349
-0.000486172822
-0.0004784824236
-0.0004586572962
-0.000453788486
-0.0004441812435
-0.0004248591616
-0.0004170511144
-0.0004156431957
-0.0004074876332
-0.0003918667475
-0.0003865735306
-0.0003852830863
-0.0003829087715
-0.0003713360613
-0.0003697299595
-0.0003740353617
-0.0003742314442
-0.000366110438
-0.0003607529994
-0.0003623263716
-0.0003731946937
-0.0003688703486
-0.0003606150394
-0.0003582642447
-0.0003617523147
-0.0003463842767
-0.0003254512151
-0.0003151198063
-0.0003131029987
-0.0002966212281
-0.0002839940163
-0.0002685774527
-0.0002570545438
-0.000239924709
-0.0002193813476
-0.000199610106
-0.0001817744782
-0.0001646750372
-0.0001429649496
-0.0001252960417
-0.0001036669463
-8.208513724e-05
-7.066555335e-05
-6.508837784e-05
-5.796190405e-05
-4.837637141e-05
-4.52064441e-05
-4.665473333e-05
-4.725806103e-05
-4.911817485e-05
-5.244944088e-05
-4.845340187e-05
-3.409116363e-05
-1.569941572e-05
2.226507743e-06
1.987275885e-05
3.068596932e-05
4.250598647e-05
5.319473396e-05
5.949039446e-05
6.476347847e-05
7.858570569e-05
0.0001141640844
0.0001550237858
0.0001438910118
0.0001267798759
0.0001561754971
0.0001475475006
0.0001374155827
0.0001400932858
0.0001420759396
0.0001583266468
0.000167587593
0.0001727332097
0.0001838757689
0.0001814450434
0.0001891591347
0.0001954208026
0.0002196195831
0.0002284939397
0.0002339197764
0.0002577582348
0.0002692598886
0.0002891576063
0.000320510699
0.0002862470873
0.0003870812691
0.0004989063133
0.0005760561392
)


100
(
-0.0002175498809
-0.0003213294682
-0.0003851807098
-0.0004273974139
-0.0004473230811
-0.0004811726977
-0.0004818835084
-0.0005031174095
-0.0004919455427
-0.0005034572384
-0.0005023106243
-0.0004899693558
-0.0004962420644
-0.0004850377482
-0.0004699565063
-0.0004677092771
-0.0004613183196
-0.0004464416893
-0.0004436437038
-0.0004484350079
-0.000450110674
-0.0004405344274
-0.0004397393584
-0.0004457919598
-0.0004555591041
-0.0004463001331
-0.0004442914575
-0.0004534754493
-0.0004546451946
-0.0004469949496
-0.0004311657788
-0.0004412351182
-0.0004412263045
-0.000429596408
-0.0004066481661
-0.0004104690222
-0.0004072331306
-0.0003891242396
-0.0003549798737
-0.0003493210477
-0.0003408699806
-0.000321286257
-0.0002986712765
-0.0002845001206
-0.0002715129332
-0.000256514717
-0.0002387236174
-0.0002241064684
-0.0002163428024
-0.0002094222755
-0.000205536896
-0.000201369978
-0.000197972751
-0.0001934256488
-0.0001955708771
-0.0002014981483
-0.0001993478363
-0.0001925332242
-0.0001799062168
-0.0001641795506
-0.0001507279769
-0.0001372080017
-0.000125641613
-0.0001144074796
-0.000109258089
-0.0001068938695
-0.0001015608423
-9.54471837e-05
-9.291134302e-05
-8.936654329e-05
-8.396254723e-05
-6.919416297e-05
-4.940868213e-05
-3.346774619e-05
-2.326817139e-05
8.365114508e-06
-4.375895844e-06
-2.951592599e-06
2.927286373e-06
1.925629649e-05
3.47641826e-05
4.299313693e-05
3.863488423e-05
4.857998199e-05
5.512406469e-05
6.452092407e-05
6.736146849e-05
7.443921959e-05
9.764729641e-05
0.0001059929467
0.0001149105181
0.0001317674351
0.0001451793953
0.0001594737576
0.0001811745563
0.0002101929311
0.0002095447075
0.0003112410843
0.0004100373945
0.0004913388726
)


100
(
-0.0002091086871
-0.0003123344634
-0.0003771076505
-0.0004150962694
-0.000449351628
-0.0004762398645
-0.0004868486847
-0.0004994632747
-0.000506028443
-0.0004998512655
-0.0005169368811
-0.0005070484377
-0.0005022244857
-0.000510808833
-0.0004992704208
-0.0004896123498
-0.0004920904566
-0.000490695861
-0.0004829858715
-0.0004847529221
-0.0004960365454
-0.0005078810827
-0.0005008022423
-0.0004978893325
-0.0005049600507
-0.0005137634195
-0.0005026520354
-0.000495868677
-0.0005037632332
-0.0005010430094
-0.0004868964536
-0.0004651642991
-0.0004781333317
-0.0004708364328
-0.0004489858682
-0.0004259271844
-0.0004291321081
-0.0004245581604
-0.0003958419837
-0.0003726679174
-0.0003660372711
-0.0003597291736
-0.0003386116199
-0.0003236672522
-0.000312200978
-0.0003082933897
-0.0003013518102
-0.0002984944412
-0.0002960505704
-0.0003028596463
-0.0003035041727
-0.0003104585668
-0.0003115930778
-0.0003044145699
-0.0002958253776
-0.0002869946527
-0.000277307544
-0.0002687037274
-0.0002543432744
-0.0002385297415
-0.0002226416384
-0.0002130218815
-0.0002102266202
-0.0002079994094
-0.0002066838663
-0.0002063850414
-0.0002035671508
-0.0001945033419
-0.0001826788832
-0.0001689907088
-0.0001563083966
-0.000151208805
-0.0001487141227
-0.0001434568574
-0.0001387601593
-0.0001301256074
-0.0001122519404
-9.625696947e-05
-8.146012039e-05
-7.368586539e-05
-7.369933049e-05
-6.620022538e-05
-5.212521282e-05
-4.16130921e-05
-3.48014141e-05
-3.072010491e-05
-2.285130794e-05
-1.423594925e-05
9.687962746e-06
2.550696631e-05
2.875312785e-05
4.429591862e-05
5.639251426e-05
7.383349423e-05
9.762677874e-05
0.0001153860211
0.0001441695979
0.0002446235894
0.0003210110553
0.0004019045536
)


100
(
-0.0002090254932
-0.0002988986339
-0.0003631269043
-0.0004076182461
-0.000450099199
-0.0004650221043
-0.0004937649166
-0.0004928598059
-0.0005150983916
-0.0005100500445
-0.0005147427001
-0.000530482637
-0.00051733649
-0.0005204030811
-0.0005337519875
-0.0005247016798
-0.0005208396068
-0.0005290828425
-0.0005374410943
-0.000531402551
-0.0005314362439
-0.0005435457568
-0.000560539283
-0.0005504530221
-0.0005379322372
-0.0005423535694
-0.0005449990352
-0.0005352560268
-0.0005241267091
-0.0005288149715
-0.0005240578396
-0.0004926788957
-0.0004870073301
-0.0004973919703
-0.0004889892763
-0.0004551607373
-0.0004425956124
-0.0004454299993
-0.0004401170517
-0.0004139910847
-0.000398908159
-0.000397767045
-0.0004001121113
-0.0003934816929
-0.000386932233
-0.0003861185085
-0.0003853510687
-0.0003861907902
-0.000391503522
-0.0003861926496
-0.0003821246892
-0.0003782686788
-0.0003721643258
-0.0003657913486
-0.0003563858636
-0.0003400714723
-0.0003341274661
-0.0003278749025
-0.0003240616811
-0.0003236120457
-0.00031933338
-0.0003132114668
-0.0003063627888
-0.0003005055383
-0.0002917293507
-0.0002810749221
-0.000269675626
-0.0002587191058
-0.000249522738
-0.0002466406526
-0.0002456898597
-0.0002437231074
-0.0002409617829
-0.0002301775548
-0.0002154980933
-0.0002035553193
-0.0001917898902
-0.0001858625952
-0.0001827938933
-0.0001760319034
-0.0001603487071
-0.0001483277565
-0.0001399175715
-0.0001319752692
-0.0001216143191
-0.0001112544101
-0.0001000160611
-8.697303332e-05
-7.310385008e-05
-6.37151154e-05
-5.257092204e-05
-3.827667537e-05
-2.315562081e-05
-1.337205124e-06
1.767096386e-05
4.151823827e-05
7.710907717e-05
0.0001671666867
0.0002373969264
0.0003037178362
)


100
(
-0.0002089306734
-0.0002881882631
-0.0003524197535
-0.0004041494626
-0.0004405523428
-0.0004626240195
-0.0004894287308
-0.0004998239318
-0.0005095637684
-0.0005252439541
-0.0005173725209
-0.0005330077584
-0.0005456258701
-0.0005355645099
-0.000546464344
-0.0005661077272
-0.0005603243356
-0.0005604076705
-0.0005701065279
-0.0005834355229
-0.000574667427
-0.0005665988939
-0.0005760863729
-0.0005888797273
-0.0005830607553
-0.0005653401764
-0.000562397124
-0.0005613450978
-0.0005548214814
-0.0005440462288
-0.0005460864256
-0.0005333068806
-0.0005041669133
-0.0005047027391
-0.0005161086174
-0.0005002731575
-0.0004786061382
-0.000468735601
-0.0004780108793
-0.0004709848987
-0.0004628354768
-0.0004540283512
-0.0004613369119
-0.0004632361726
-0.0004741138431
-0.0004735793746
-0.0004659083232
-0.0004590922259
-0.0004526918656
-0.000446872544
-0.0004444463977
-0.0004293022151
-0.0004203692232
-0.0004152562295
-0.0004088349147
-0.0004027620955
-0.0004039757578
-0.000397594849
-0.0003992891995
-0.0004004142994
-0.000400551867
-0.0003970389606
-0.0003851753304
-0.0003706204423
-0.0003585842895
-0.0003469409609
-0.0003406987858
-0.0003388935108
-0.0003353002431
-0.0003315333331
-0.0003267802749
-0.0003175665876
-0.0003061753086
-0.0002959723112
-0.0002875634294
-0.0002845439164
-0.0002821575789
-0.0002753174922
-0.0002609917583
-0.0002496982006
-0.0002427285729
-0.0002347205108
-0.0002264097843
-0.0002108036518
-0.0001991529989
-0.0001850743775
-0.0001768306242
-0.0001613376949
-0.0001561263044
-0.0001441761825
-0.0001320362554
-0.0001190305596
-0.0001043507662
-8.38725134e-05
-6.1286496e-05
-3.629974658e-05
8.230891381e-06
8.804636012e-05
0.0001535427794
0.0002148447284
)


100
(
-0.0001995938328
-0.000281737841
-0.0003459995791
-0.0003985555538
-0.0004269337467
-0.0004635471675
-0.0004779191773
-0.0005071064009
-0.0005066064499
-0.0005271227724
-0.000535655049
-0.000532210556
-0.0005564675104
-0.000568098396
-0.0005604571866
-0.0005771725384
-0.0006017557974
-0.000595918691
-0.000589793169
-0.0005992274602
-0.0006157643042
-0.0006039227687
-0.0005861183688
-0.0005934026098
-0.0006026535556
-0.0006045137732
-0.0005860426861
-0.0005737588117
-0.0005719778011
-0.0005627112788
-0.0005646587039
-0.0005679613931
-0.0005358033606
-0.0005238160285
-0.0005274527808
-0.0005437651768
-0.0005303621395
-0.0005215523212
-0.0005163861437
-0.0005222557732
-0.0005238423485
-0.0005237788114
-0.0005168815448
-0.0005174117529
-0.0005201587904
-0.0005244025134
-0.0005287901141
-0.0005173022453
-0.0004984038283
-0.0004932099061
-0.0004850601495
-0.0004790105438
-0.0004770376396
-0.000471380659
-0.0004665321569
-0.0004683720717
-0.0004643325986
-0.0004666453682
-0.000467237582
-0.0004556510646
-0.0004475463119
-0.0004437764514
-0.0004378782869
-0.0004315971635
-0.0004254018729
-0.000418568165
-0.0004129583706
-0.0004089127318
-0.0004053278426
-0.0003914958119
-0.0003808363881
-0.0003701177009
-0.0003649198946
-0.0003624622376
-0.0003600633192
-0.000355677209
-0.0003460185139
-0.0003367159336
-0.0003307549016
-0.0003230348994
-0.0003156880499
-0.0003040054212
-0.0002900968653
-0.0002795182445
-0.0002717062622
-0.0002575367309
-0.000247726572
-0.0002387360101
-0.0002270481655
-0.0002163324262
-0.0002035465636
-0.0001925323453
-0.0001790156759
-0.0001602687281
-0.0001307602272
-0.0001096533061
-4.663926275e-05
2.089302007e-05
8.3902128e-05
0.0001382820176
)


100
(
-0.0001796634917
-0.0002738246361
-0.0003389795891
-0.0003838133113
-0.0004208718323
-0.0004575980686
-0.0004746663993
-0.000499603984
-0.0005160136691
-0.0005217508724
-0.0005475350027
-0.0005506879195
-0.0005555926924
-0.0005830564305
-0.0005937211071
-0.0005854925321
-0.0006035021223
-0.0006283800106
-0.0006212047923
-0.0006070893386
-0.0006150515024
-0.0006280117595
-0.000620763821
-0.0006015060392
-0.0006002180775
-0.0006078976209
-0.0006169778475
-0.0006019783778
-0.0005825582386
-0.0005797204128
-0.0005720039671
-0.0005839432514
-0.000581309192
-0.00056095854
-0.0005548412226
-0.0005653134314
-0.0005716463642
-0.0005776171808
-0.0005680871896
-0.0005627166489
-0.0005604411997
-0.0005627289996
-0.0005691431496
-0.000563247761
-0.0005480006229
-0.0005443728233
-0.0005456980524
-0.0005458142746
-0.0005446834551
-0.0005347870947
-0.0005225200526
-0.0005209728628
-0.0005173553109
-0.0005166595097
-0.0005265080723
-0.0005196012196
-0.0005068551742
-0.0005031573791
-0.0004978595682
-0.0004937292616
-0.0004905819838
-0.0004800545593
-0.0004762055244
-0.0004734907073
-0.0004719191362
-0.0004739362214
-0.0004612836262
-0.0004494843379
-0.0004397052365
-0.0004305531724
-0.0004241630471
-0.0004170802174
-0.0004134650955
-0.0004089882576
-0.0004013431228
-0.0003924627835
-0.0003890448171
-0.0003861659442
-0.0003816179222
-0.0003716737498
-0.0003564938695
-0.0003487169426
-0.0003419433287
-0.0003348156585
-0.000320367818
-0.0003125717526
-0.0003026815994
-0.0002888887756
-0.0002780566305
-0.0002710383877
-0.0002598402721
-0.000248999875
-0.0002298784318
-0.0002113213738
-0.0001912900976
-0.0001526477005
-8.351969949e-05
-2.473909487e-05
3.752692143e-05
9.523461504e-05
)


100
(
-0.0001689832695
-0.0002630881326
-0.0003264210999
-0.0003693521669
-0.000416480861
-0.0004437254097
-0.0004757011277
-0.0004876669569
-0.000520428384
-0.0005271463296
-0.0005424793417
-0.0005699035368
-0.0005681914922
-0.0005786765998
-0.0006077925236
-0.0006154168925
-0.0006026832517
-0.0006185078375
-0.0006413577309
-0.0006356875742
-0.0006135120514
-0.0006203531785
-0.0006309782043
-0.0006305882722
-0.0006117321959
-0.0006014206198
-0.0006092257545
-0.0006172009821
-0.0006163528775
-0.0005994895116
-0.0005875603754
-0.0005835827331
-0.0006029616122
-0.0006044504586
-0.000594520858
-0.0005848494396
-0.0005892369036
-0.0005922959846
-0.0006059544805
-0.0006095642854
-0.000594235525
-0.0005837091342
-0.000582486025
-0.0005812449887
-0.0005827589842
-0.0005695778406
-0.0005559969362
-0.0005561403285
-0.0005603366486
-0.0005574344227
-0.0005620538539
-0.00055688845
-0.0005461586701
-0.0005401828881
-0.000539929868
-0.0005406919438
-0.0005451388943
-0.0005260356511
-0.0005161002468
-0.0005155404139
-0.0005098630633
-0.0005096614561
-0.0005097598367
-0.0005000977809
-0.000491083018
-0.000488068766
-0.0004852387933
-0.00047614372
-0.0004661023701
-0.0004632270178
-0.000456437292
-0.0004503062859
-0.0004404415751
-0.0004314748733
-0.0004238515849
-0.0004204904296
-0.0004174593752
-0.0004128360395
-0.0004027309639
-0.0003922038033
-0.000387109682
-0.0003820050748
-0.0003737913226
-0.0003602425084
-0.0003536640582
-0.0003474648332
-0.0003310925453
-0.0003223852918
-0.0003170841454
-0.0003041591848
-0.0002992723063
-0.0002831339977
-0.0002707819243
-0.0002544691772
-0.0002288835402
-0.0001753312147
-0.0001110441513
-5.605131001e-05
3.685837195e-06
5.360201554e-05
)


100
(
-0.0001689090215
-0.0002509011648
-0.0003122176969
-0.0003621099268
-0.0004065265415
-0.0004339519013
-0.0004692001924
-0.0004873722955
-0.0005092549803
-0.0005371811331
-0.0005402480173
-0.0005634383736
-0.000587319591
-0.0005847121741
-0.0005967413388
-0.000625069996
-0.0006295373098
-0.0006124996001
-0.0006246994126
-0.0006449648111
-0.000643303154
-0.0006210445953
-0.0006211129738
-0.0006304830783
-0.0006392679039
-0.0006212468421
-0.0006043927082
-0.0006105609832
-0.0006189321703
-0.0006277740282
-0.0006206999376
-0.0006065535301
-0.0006044046674
-0.00061268164
-0.0006139113393
-0.0006208086528
-0.0006139933894
-0.0006040906847
-0.0006094295921
-0.000617876837
-0.0006265612599
-0.0006163044667
-0.0005931558345
-0.0005897802349
-0.0005892667101
-0.0005880709889
-0.0005882276003
-0.0005819808455
-0.000571672143
-0.0005708026385
-0.0005683893349
-0.0005729996281
-0.0005801285819
-0.0005651845795
-0.0005429130479
-0.0005455840231
-0.0005469196854
-0.0005461761971
-0.0005455590943
-0.0005327369678
-0.0005212373036
-0.0005161629029
-0.0005196948718
-0.0005243162934
-0.0005068710671
-0.0004943160809
-0.000494369116
-0.0004923992854
-0.0004900351429
-0.0004853108031
-0.000477431341
-0.0004701949686
-0.0004613120029
-0.0004535610375
-0.0004480803002
-0.0004429920655
-0.0004326903774
-0.0004234423274
-0.0004168567245
-0.0004155125724
-0.0004129192088
-0.0004019435796
-0.0003889827131
-0.0003841325188
-0.0003802194143
-0.0003670307881
-0.0003545449141
-0.0003473074402
-0.0003333857678
-0.0003297889779
-0.0003198555429
-0.0003100958222
-0.000303113597
-0.0002901828258
-0.0002552647081
-0.000201976896
-0.0001416932402
-8.689326294e-05
-3.013778317e-05
2.342992911e-05
)


100
(
-0.0001688385117
-0.0002412378302
-0.0003022269781
-0.0003540641591
-0.0003906828762
-0.0004294524068
-0.0004548610692
-0.0004885159315
-0.00049954966
-0.0005310159037
-0.0005510720794
-0.0005536314647
-0.0005824415131
-0.0006025232598
-0.0005966587756
-0.000607763885
-0.0006342190587
-0.000638561289
-0.0006189347284
-0.0006264917015
-0.0006450760877
-0.0006504553961
-0.0006291810943
-0.0006217735537
-0.0006309781954
-0.0006394047925
-0.0006338984647
-0.0006199429842
-0.0006154738595
-0.0006260761843
-0.0006351092712
-0.0006457085138
-0.0006336547623
-0.0006189088751
-0.0006213729802
-0.0006283861994
-0.0006426869747
-0.0006411084052
-0.0006223795696
-0.0006135513902
-0.0006210995736
-0.0006274097065
-0.0006297836095
-0.0006166782016
-0.0006037279451
-0.000602352285
-0.0006001271483
-0.0005964289161
-0.0006073453827
-0.0005990585715
-0.0005837957784
-0.0005783400676
-0.0005815530343
-0.000584126706
-0.0005811696215
-0.0005654902313
-0.0005528562051
-0.0005557169979
-0.0005474552113
-0.0005539080286
-0.000550243466
-0.0005317136361
-0.0005235195004
-0.000525575246
-0.0005258813643
-0.0005217834069
-0.0005143065713
-0.0005100053371
-0.0005051657677
-0.0004999839233
-0.0004919495941
-0.0004828680082
-0.0004809350745
-0.0004783707622
-0.000473646189
-0.0004638599321
-0.0004545824945
-0.0004456764954
-0.0004424048404
-0.0004388516129
-0.0004297175485
-0.0004200284646
-0.000417462729
-0.0004153314901
-0.0004014152163
-0.0003891089742
-0.0003845310829
-0.0003776215745
-0.0003674616994
-0.0003563705606
-0.0003500795275
-0.0003354546443
-0.0003245075077
-0.0003110266363
-0.0002883695024
-0.0002377890495
-0.0001818747613
-0.0001275529348
-7.179938109e-05
-1.3335089e-06
)


100
(
-0.0001584459008
-0.0002332782773
-0.0002930508632
-0.0003414347143
-0.00037834462
-0.000421203102
-0.0004450639097
-0.000477944199
-0.0005020049058
-0.0005171175154
-0.0005514167329
-0.0005648186052
-0.0005700769512
-0.0005979519835
-0.0006138548353
-0.0006042919589
-0.0006133110878
-0.0006383309269
-0.000644871738
-0.0006253279696
-0.0006270502244
-0.0006447425698
-0.0006592362142
-0.0006399099856
-0.000624129381
-0.0006343901546
-0.0006427793186
-0.0006521150254
-0.0006411416866
-0.000629791747
-0.0006347081177
-0.000643234444
-0.0006587872081
-0.0006604389322
-0.0006452147116
-0.0006296789433
-0.0006367097683
-0.0006467101686
-0.0006580884964
-0.0006432198128
-0.0006254792129
-0.0006261743266
-0.0006349068918
-0.0006354939973
-0.0006385746368
-0.000631446772
-0.0006178504436
-0.0006121191363
-0.000611860873
-0.0006179830131
-0.0006265905442
-0.0006057078636
-0.0005886588099
-0.0005948935446
-0.0005980420319
-0.0005879167531
-0.0005889131997
-0.0005753812769
-0.000561028115
-0.0005624995755
-0.0005663859676
-0.0005713525511
-0.0005484210071
-0.0005360980228
-0.000541702404
-0.0005388022408
-0.0005355476427
-0.0005294006242
-0.0005233138544
-0.0005180163704
-0.0005132783641
-0.0005132637641
-0.0005089779685
-0.0005030240753
-0.0004947768899
-0.000486262744
-0.0004803208856
-0.0004763769503
-0.0004732371966
-0.0004665436
-0.0004567453745
-0.0004520635739
-0.0004482097527
-0.0004402234922
-0.0004316429931
-0.0004341681111
-0.0004274209397
-0.0004165536547
-0.0004123205729
-0.000400771321
-0.0003935129799
-0.0003947966952
-0.0003733309142
-0.0003648422869
-0.0003221852603
-0.0002777130842
-0.0002288954954
-0.0001757598001
-0.0001231772488
-6.517018818e-05
)


100
(
-0.0001410561211
-0.0002240587999
-0.0002828583865
-0.0003265361212
-0.0003700285207
-0.0004049362865
-0.0004403516454
-0.0004624326899
-0.0004998033288
-0.000515133994
-0.0005364590353
-0.0005715077631
-0.0005765567698
-0.0005817733487
-0.0006087378991
-0.0006220076705
-0.0006101110536
-0.000616632408
-0.0006398991608
-0.0006513692611
-0.000632964726
-0.0006275463205
-0.0006450554015
-0.0006587255776
-0.0006536409935
-0.0006402285188
-0.0006411106106
-0.0006505461531
-0.000657984848
-0.0006630108492
-0.0006535595856
-0.0006428027453
-0.0006515892391
-0.0006653707308
-0.0006816188949
-0.0006660125211
-0.0006415810644
-0.0006406306156
-0.0006507166227
-0.0006594297772
-0.0006654299107
-0.0006538108189
-0.0006401241377
-0.0006400166027
-0.0006375493632
-0.000644836692
-0.0006620654618
-0.0006490192195
-0.0006229768797
-0.0006250367816
-0.0006303529269
-0.0006356302708
-0.000634339566
-0.0006204285576
-0.0006064246898
-0.0006027596653
-0.0006011130102
-0.0006120171116
-0.0006049450684
-0.0005791673144
-0.0005788176152
-0.0005841805915
-0.0005813560183
-0.0005763196445
-0.0005711432992
-0.0005617860249
-0.0005566309612
-0.0005529991436
-0.000545254017
-0.0005396252403
-0.0005406566174
-0.0005413327356
-0.0005348218329
-0.0005284740334
-0.0005227103617
-0.0005215801243
-0.0005157647488
-0.0005091537814
-0.0004989005869
-0.0004931467587
-0.0004913121765
-0.0004935310351
-0.0004835655675
-0.0004707481993
-0.0004713327998
-0.0004693402258
-0.0004621440381
-0.0004554539493
-0.0004440198902
-0.0004460234489
-0.000431665461
-0.0004342718289
-0.000424555413
-0.0004096794692
-0.0003658119198
-0.0003171893942
-0.0002740982692
-0.0002232040885
-0.0001758880799
-0.0001214948234
)


100
(
-0.0001339961948
-0.0002126644724
-0.0002701153456
-0.0003150024803
-0.0003601979983
-0.0003902095258
-0.0004304783674
-0.0004554169903
-0.0004841342764
-0.0005167718058
-0.0005274021734
-0.0005528547417
-0.0005849773189
-0.0005838590915
-0.0005884403892
-0.0006145108119
-0.0006281775384
-0.0006152101508
-0.0006176641156
-0.0006397963474
-0.0006581385705
-0.0006416638127
-0.0006281188433
-0.0006457768676
-0.0006592982484
-0.000670286842
-0.0006593910732
-0.0006464664919
-0.0006544689247
-0.0006622353117
-0.0006826924798
-0.0006758804464
-0.0006591501059
-0.0006539213283
-0.0006676371074
-0.0006814158218
-0.0006848456412
-0.0006615501336
-0.0006477562585
-0.0006554916078
-0.0006647908681
-0.0006656357211
-0.0006751138388
-0.0006614904878
-0.0006470975603
-0.0006414227333
-0.0006528720052
-0.0006663519309