/*--------------------------------*- C++ -*----------------------------------*\
| =========                 |                                                 |
| \\      /  F ield         | OpenFOAM: The Open Source CFD Toolbox           |
|  \\    /   O peration     | Version:  2.3.1                                 |
|   \\  /    A nd           | Web:      www.OpenFOAM.org                      |
|    \\/     M anipulation  |                                                 |
\*---------------------------------------------------------------------------*/
FoamFile
{
    version     2.0;
    format      ascii;
    class       dictionary;
    location    "constant";
    object      GRPSI40;
}
// * * * * * * * * * * * * * * * * * * * * * * * * * * * * * * * * * * * * * //

GRPSI40_table
100
(

100
(
0.0231999716
0.02171037364
0.01902286729
0.01715286984
0.01607992321
0.01505068218
0.01403579555
0.013259758
0.01263737417
0.01207003413
0.01142962757
0.01083226768
0.0102431024
0.009611604956
0.009058986504
0.008624747418
0.008046269841
0.007538365804
0.007273498272
0.006831289748
0.00634942274
0.006107232632
0.005847691239
0.005332876731
0.004928299733
0.004801973453
0.004512081277
0.003996686352
0.00366672805
0.003580208117
0.00320166474
0.002654977819
0.002414932037
0.002359986813
0.002149569586
0.001608724438
0.001239021592
0.001206689157
0.001004388406
0.0004556644728
7.977450335e-05
6.314380246e-05
-0.0001293939666
-0.0006777407496
-0.001033359965
-0.001017282026
-0.001022524447
-0.001565323649
-0.002070637873
-0.002035593773
-0.002120067891
-0.00266754766
-0.003102432313
-0.003066855644
-0.003276490418
-0.003825843365
-0.004111281743
-0.004038073769
-0.004184429229
-0.004708404221
-0.005001573754
-0.004903292688
-0.005098106543
-0.005607028217
-0.005807916233
-0.005679513918
-0.006050840907
-0.006540015523
-0.00651185333
-0.006576826202
-0.007028530612
-0.007252160623
-0.007165289153
-0.007567985395
-0.007871024114
-0.007779251219
-0.008121934595
-0.008337187638
-0.008358574225
-0.008623336073
-0.008632391425
-0.008817104402
-0.008950517793
-0.008991632454
-0.009067683409
-0.009092962256
-0.009128254223
-0.00906403524
-0.009062275197
-0.008919905081
-0.008759415881
-0.008587060327
-0.008361141503
-0.008056030257
-0.007659569276
-0.007194885285
-0.006650345852
-0.005972629255
-0.005121447683
-0.004645898632
)


100
(
0.02176325785
0.02043226416
0.01804903408
0.01649423486
0.0156214532
0.01451340377
0.0136925948
0.01302568657
0.01238461873
0.01198957758
0.01127564623
0.01073261114
0.0101863606
0.009514755568
0.009083615838
0.008666464629
0.008004789894
0.007619134578
0.00740446577
0.006885982474
0.0064825878
0.006282566712
0.005992300394
0.0055225564
0.005195351527
0.00499657685
0.004680802892
0.004272287103
0.003998369884
0.003827352226
0.003512502477
0.003133917581
0.002820018701
0.00258644318
0.002360990219
0.002096512143
0.001797436649
0.00156249483
0.001341109643
0.001073920211
0.0007789053371
0.0005070018759
0.0002732310686
4.394311532e-05
-0.0002055266188
-0.0005013701293
-0.0007440360139
-0.0009064424675
-0.001073329644
-0.001299074197
-0.00159016694
-0.00183317477
-0.002007891263
-0.002221964271
-0.002536416326
-0.002807680656
-0.002970702195
-0.003183515722
-0.00349696248
-0.003765732414
-0.003600191117
-0.003668122904
-0.00441527344
-0.004690047428
-0.004190324821
-0.004286007241
-0.00533818927
-0.005200919977
-0.004576962022
-0.005259459857
-0.005929668537
-0.005230051135
-0.005191142111
-0.006518767559
-0.006215766997
-0.005346076516
-0.006365326611
-0.006606610869
-0.005718975477
-0.006528698989
-0.006508833292
-0.006020811813
-0.006798022683
-0.006147473475
-0.006153655358
-0.006778925
-0.005951422639
-0.006255990825
-0.006129871998
-0.005815983988
-0.005717326397
-0.005470859989
-0.005502381794
-0.005321362598
-0.00517077973
-0.005095726103
-0.007002686336
-0.01907539725
-0.02700874685
-0.02447240743
)


100
(
0.02041646435
0.01920321449
0.0170632311
0.01591100227
0.01513304736
0.01413589957
0.01330902512
0.01270247577
0.01209733409
0.0117028411
0.01120417246
0.01056514362
0.01015884123
0.009486696754
0.008938213942
0.008661654028
0.008181559127
0.007556077072
0.007331009907
0.007140134222
0.006625937704
0.006266996908
0.006105588855
0.005828071538
0.005384178975
0.005080215646
0.004881045206
0.004593820535
0.004243401911
0.003960468286
0.003775603433
0.003523704968
0.003197481604
0.002899332499
0.002653147544
0.002413615984
0.00217116829
0.001941755107
0.001717246402
0.001490564662
0.001242395426
0.001015468472
0.0007989153388
0.0005491076077
0.000288896599
7.006565775e-05
-0.0001014506303
-0.0003122730226
-0.0005899292464
-0.0008215523789
-0.0009360590586
-0.001021965032
-0.001310414512
-0.001666578344
-0.001806660431
-0.001750144534
-0.002072448743
-0.002585842182
-0.002697421476
-0.002558201084
-0.002838965229
-0.00288444178
-0.002710875059
-0.003423302209
-0.003962730012
-0.003484540924
-0.003160079666
-0.00410875169
-0.004336167277
-0.003639756514
-0.00367564471
-0.004369496771
-0.004475922899
-0.00399932288
-0.004342624998
-0.00512712684
-0.004803627151
-0.003999231313
-0.00445664916
-0.004814038594
-0.004863197476
-0.00421784938
-0.004751347447
-0.005239632028
-0.00384781216
-0.004389216029
-0.004509275323
-0.003610333931
-0.003908574434
-0.004088127612
-0.003807919236
-0.003370024999
-0.003602429429
-0.003158915471
-0.002421420495
-0.003089507461
-0.01178149739
-0.02627543153
-0.03077774858
-0.02906388131
)


100
(
0.01918970646
0.01802753028
0.01624938974
0.01528961229
0.01442152977
0.01371835195
0.01291533883
0.01235225143
0.01197394744
0.01141487545
0.0110617127
0.01039270995
0.009950391706
0.009596275177
0.008879534629
0.008460457145
0.008231814406
0.007767787344
0.007208654204
0.007040137013
0.006901264993
0.006439981714
0.006055384256
0.005892314801
0.005685235896
0.005286147424
0.004950348237
0.004751945044
0.00453591408
0.004227080467
0.003919015304
0.003718860952
0.003534713537
0.003243259192
0.002968880328
0.002722377188
0.002482573042
0.00223178709
0.002025318388
0.00184433356
0.001631893995
0.001392972555
0.001159279228
0.00100179703
0.000841004469
0.0005620572507
0.0002670137397
0.0001452539287
0.0001307642644
-0.0001664930778
-0.0005988498554
-0.0007053667779
-0.0005476479075
-0.0007398940012
-0.001261877047
-0.001383872115
-0.001050362306
-0.001235363563
-0.001929107255
-0.001946415883
-0.001576744768
-0.001908763507
-0.002213580054
-0.002096270352
-0.002364239361
-0.002814070953
-0.00282706489
-0.002615182928
-0.002683464235
-0.003088609656
-0.003405596589
-0.003369820101
-0.003164460177
-0.002968376177
-0.003365015243
-0.004149305659
-0.003389930946
-0.002317752028
-0.003804614653
-0.004130471678
-0.00271989954
-0.003102164052
-0.003406849995
-0.002789635193
-0.00261188963
-0.002920627245
-0.003166326816
-0.003058101372
-0.00290825842
-0.002567306655
-0.002300505664
-0.002500983277
-0.001682976129
-0.0009864329577
-0.00119892798
-0.00142706524
-0.01530415669
-0.02905350264
-0.02938733819
-0.02954444617
)


100
(
0.01821003446
0.01705567881
0.01534384487
0.01450024855
0.01391101422
0.01326248378
0.01256891912
0.01196531906
0.01164156124
0.01113894985
0.01076835432
0.01045331386
0.009739978659
0.009382367504
0.009026157198
0.008368696146
0.008019388556
0.007834574338
0.007432977378
0.006945080771
0.00676365012
0.006651603202
0.006277844197
0.00586637444
0.005670745478
0.00552281838
0.005190336976
0.004852459729
0.004624487212
0.004447399913
0.004192710962
0.003928596716
0.003652303316
0.003479566671
0.003293995337
0.003052037488
0.002787189191
0.002530229745
0.002277028365
0.002044659204
0.001954070003
0.001795039125
0.00153767762
0.00131074017
0.001249949461
0.001180858615
0.0008676346838
0.0005171782126
0.000478775776
0.0005803288762
0.0002597021127
-0.0002248734521
-0.0002352504594
-1.617010772e-05
-0.0002687820625
-0.0007746070114
-0.0007047454569
-0.0004133559823
-0.0006264755562
-0.001052647291
-0.00112632182
-0.00103694095
-0.001255094062
-0.001658768226
-0.001901979791
-0.00193001777
-0.00179705116
-0.001990692233
-0.002373602405
-0.002337239715
-0.002117391812
-0.00213546425
-0.00281647158
-0.003404171202
-0.002548290546
-0.001580348085
-0.0023541014
-0.002906674547
-0.002188150683
-0.001670609921
-0.001902464158
-0.002746562095
-0.002960194898
-0.002323645473
-0.002183189461
-0.001749155925
-0.001476503843
-0.002136169505
-0.00275543646
-0.002069268173
-0.0006472446299
-0.001200165186
-0.0009698118495
7.155856947e-05
2.870572873e-05
-0.001350610609
-0.01665382269
-0.02863496687
-0.02721469222
-0.02761617364
)


100
(
0.01727766699
0.01612843959
0.01447167174
0.01371986537
0.01336923429
0.01275871802
0.01217268047
0.0116547648
0.01128149635
0.01104956086
0.01045919762
0.01015917006
0.009782447541
0.009163813174
0.008860556425
0.00850961345
0.007927212137
0.007617606168
0.007481190093
0.007155381579
0.006724677048
0.006501266869
0.006405290618
0.006118920272
0.005720130384
0.005427223566
0.005281504247
0.005094820108
0.004831587506
0.004527667923
0.004331992428
0.004166288094
0.003941004428
0.003629127947
0.003438585372
0.003314074453
0.003140995541
0.002837863496
0.002559884523
0.002370582477
0.002161612676
0.002113802556
0.001970219974
0.001710072959
0.001526378355
0.001549297353
0.001503692528
0.00117480636
0.0008497322528
0.0008828050552
0.0009672943431
0.0006635546742
0.0003092899034
0.0003142577904
0.000396915625
0.0001927567181
-9.825139222e-05
-0.0002918533475
-0.0004103402739
-0.000426823821
-0.0005063840144
-0.0007806538681
-0.001004847096
-0.0009500012025
-0.0008183447494
-0.001001782135
-0.001363097464
-0.001392646526
-0.001258704971
-0.001262503748
-0.001598430172
-0.002002185118
-0.002065573472
-0.001732366239
-0.002007385634
-0.002054022316
-0.001371051388
-0.001209869542
-0.001643762818
-0.002410001081
-0.002327409323
-0.001215336289
-0.00122603717
-0.001671663836
-0.001558781201
-0.001474344899
-0.001345476688
-0.001891333118
-0.001720358975
-0.0007916027416
-0.0007739122144
-0.0006638266487
8.715786614e-05
0.0005234719895
0.0007949202812
-0.003535867025
-0.017084166
-0.02492630138
-0.02430833233
-0.02489574025
)


100
(
0.01612354283
0.01510216569
0.01361255231
0.01310027576
0.01280198271
0.01224244319
0.01174275068
0.01134543268
0.01088455209
0.01069599363
0.01038362795
0.009853412805
0.009598356724
0.009155030525
0.008634785181
0.008385012693
0.008059263027
0.007547781279
0.007260062439
0.007169777521
0.006920826026
0.006531268184
0.00625077901
0.006166142446
0.005965213264
0.00555352152
0.005267533543
0.005148523315
0.00499620568
0.004742366619
0.004388545134
0.004227654106
0.004147777905
0.003911500887
0.0036022912
0.003456231698
0.003390097424
0.003180659575
0.002902335468
0.002692956092
0.002511678996
0.002342236624
0.002310040716
0.002159818603
0.001929016922
0.001780572412
0.001812620404
0.001753493511
0.001462322166
0.001252091667
0.001239272603
0.001212606886
0.0009831183281
0.0006778407301
0.0004638818045
0.0003649825806
0.0003395440959
0.0002488086358
-1.029632087e-05
-0.0002270023185
-0.0001981618487
-5.54193513e-05
-5.453396312e-05
-0.0003490918327
-0.000570435943
-0.000558074571
-0.0006463555101
-0.0007291364804
-0.000945347851
-0.00125564825
-0.001204062952
-0.000858123235
-0.0008921554014
-0.001186415939
-0.001111633694
-0.001259145257
-0.001495241628
-0.001734238373
-0.001646864662
-0.0008705465181
-0.0008480175024
-0.001274763237
-0.001391523351
-0.001309248095
-0.001050418072
-0.0009850202021
-0.001219541601
-0.001702368634
-0.001434816912
-0.0003317290459
-0.0001192037146
-0.0001437251037
0.0003271875496
0.0007608446406
0.001483978623
-0.004836245516
-0.01667216685
-0.02078160583
-0.02101549976
-0.02221240973
)


100
(
0.01485987173
0.0140262271
0.01283833955
0.01246732349
0.01214068957
0.01175356195
0.01128186492
0.01095123441
0.01070212364
0.01031608397
0.01013853713
0.009678119204
0.009287613348
0.009076404268
0.008599005918
0.008152584747
0.007952993482
0.007669113291
0.007229760641
0.006947676627
0.006884972527
0.006709486564
0.006353716684
0.006015503253
0.005939423758
0.005816715128
0.005375163806
0.005106110762
0.005016910189
0.004929834811
0.004579993742
0.004264766857
0.004260520507
0.004173593645
0.00387445193
0.003580703114
0.003538404377
0.003473049086
0.003225285956
0.002979608572
0.002838139784
0.002689997574
0.002555900008
0.002503150039
0.002363966347
0.002135033849
0.001981155068
0.001939537389
0.001824410249
0.001597970411
0.001388636392
0.001227571238
0.001138966475
0.001107659054
0.001023055036
0.0008167041851
0.0006048525344
0.0005595273979
0.0006073057622
0.0005310134942
0.0002686709256
9.223706128e-05
6.968294536e-05
-4.866708851e-05
-0.0001645522788
-0.0002135911314
-0.0004384587942
-0.0006244001438
-0.00036416443
-8.83285436e-05
-0.0003176651991
-0.0005477237943
-0.0006861817394
-0.0009178488914
-0.0009304719818
-0.001138573993
-0.001019528175
-0.0004287260067
-0.0004842595564
-0.0009707513623
-0.001220239909
-0.001159608446
-0.001004474801
-0.0009456013356
-0.0008897659615
-0.001003752394
-0.001118627243
-0.00118370149
-0.0008454618294
-0.0002096135216
-0.0001969717391
-0.0002242514097
0.0002271893907
0.0009524676379
0.00157587716
-0.005517015115
-0.01493430261
-0.01682649773
-0.01770942547
-0.01879790775
)


100
(
0.0137463388
0.01305494048
0.01209993696
0.01178436563
0.01154654209
0.01123806668
0.01087862219
0.01052463203
0.01035595357
0.009995064764
0.009766997667
0.009607015353
0.009039717668
0.008759388492
0.008590615217
0.008113312036
0.007712311451
0.007550499733
0.007337777914
0.006970691278
0.006660087185
0.00660853291
0.006512585726
0.006184499302
0.005852680395
0.00572171954
0.005621972761
0.005223780694
0.004966320544
0.0049321538
0.004837288973
0.004451198535
0.004221080218
0.004303801346
0.004151655713
0.003861586951
0.003646912483
0.003643370865
0.003485346706
0.003249346275
0.003111516045
0.002971639284
0.002835388589
0.00269424139
0.002601615294
0.002398736947
0.00216787016
0.001971300314
0.001830553328
0.001762028819
0.001706982163
0.001597391961
0.001425241696
0.001277525188
0.001247905445
0.001271146553
0.001184288311
0.0009926020843
0.000841690828
0.0007391075674
0.0005871458974
0.0004365216626
0.0003092616844
0.0001004772301
-4.593273587e-05
0.0001061858182
0.0003316330735
0.000241477367
1.925164463e-06
-9.381617856e-05
-0.0002797310107
-0.000367674429
-0.0004499920049
-0.0007416784862
-0.0004544218583
6.52868225e-06
-0.000198754213
-0.0006487940409
-0.0008739589147
-0.0008886500408
-0.0008188493407
-0.0007694326965
-0.0008420503134
-0.00100085263
-0.001162847114
-0.001003785211
-0.0009630934404
-0.0007159485128
-0.0003243522845
-0.0003613678608
-0.0003314715993
7.079116637e-06
0.0005351667436
0.001036444184
0.001318827898
-0.00577565268
-0.01312599313
-0.01353138363
-0.01484632599
-0.01602510254
)


100
(
0.01283066963
0.01219391129
0.01132135315
0.01104687821
0.01099347495
0.01070144226
0.0104162514
0.01012885382
0.009955547388
0.009844943448
0.009367409877
0.009236414205
0.009064792514
0.008469390388
0.008268325074
0.00813923736
0.00768318884
0.00730719708
0.007195883428
0.00706144249
0.006743791021
0.006386192625
0.006335744221
0.006325017695
0.006024640473
0.005732380114
0.005510821078
0.005412331536
0.005112519589
0.004878986292
0.004913655067
0.004681909225
0.004323273272
0.004269459178
0.004350686554
0.004126964054
0.003850019522
0.003739777364
0.00365164054
0.003457961249
0.003263971423
0.003112000737
0.002943338918
0.002836310191
0.002675341262
0.002529109096
0.002390930928
0.002212688941
0.002070341794
0.001924416067
0.001821247098
0.001840720138
0.001823150298
0.001680145562
0.001521083964
0.001398583461
0.00129363707
0.001180480379
0.001040545868
0.0009217018626
0.0007665760532
0.0006225238168
0.0006590433772
0.0007526769261
0.0006330834536
0.0004189244572
0.0003843758066
0.0003247794195
0.000136862465
3.729473765e-06
-0.0002106362595
-0.0002711421464
6.593870202e-05
0.0002369236203
-1.279238673e-05
-0.0003321691035
-0.0005136374734
-0.0005641401994
-0.0005507684249
-0.0005522771335
-0.0006240296582
-0.0008121618912
-0.0009973747452
-0.0009284472012
-0.0008377272337
-0.0008122011443
-0.0005717016827
-0.0004671308616
-0.000465123183
-0.0004053523581
-0.0001618271271
0.0001360827256
0.0006001474727
0.001272624111
0.0009658829468
-0.006065204805
-0.01139258753
-0.01076175694
-0.01240962267
-0.01353420758
)


100
(
0.0119934162
0.01138916744
0.01056870856
0.01041593338
0.01042526524
0.01017302321
0.009933739948
0.009775515383
0.009525257668
0.009458564425
0.009259975636
0.008840920844
0.008729996773
0.008501433034
0.007959503459
0.007811223837
0.007723147997
0.007317508671
0.006942304683
0.006867290749
0.006821630157
0.006531839219
0.006201658318
0.006069797785
0.006067928384
0.005879844481
0.005617699641
0.005329077544
0.005217486641
0.00502054403
0.004855758586
0.004827729614
0.004558608978
0.004307773575
0.004311434899
0.004287162309
0.004058952044
0.003860538779
0.003682976349
0.003510490062
0.003356505659
0.003208913927
0.003071956071
0.002873115415
0.002742310697
0.002678377094
0.002552929337
0.002446815413
0.002367210804
0.002231171314
0.002097832706
0.001996809247
0.001910434631
0.001859118005
0.001750549817
0.001557120617
0.001381791837
0.001218570997
0.001101166315
0.001154411758
0.001206774287
0.001101307477
0.0009455379826
0.0008925714409
0.000843510021
0.0006431822475
0.0004149365743
0.000207667047
8.40804722e-05
0.0002778797889
0.0004515268202
0.0002537070132
0.0001021522336
2.037169799e-05
-0.000157436058
-0.0002329600857
-0.0002495126246
-0.000286321428
-0.0003925155142
-0.0006044345958
-0.000750611616
-0.0007000708013
-0.0005895035214
-0.0006586941929
-0.0006408610777
-0.0007171957635
-0.0006158902351
-0.0003492022869
-0.0003616071034
-0.0001775853204
6.363459726e-06
0.0002401442448
0.0007681157414
0.001334407657
8.121566575e-05
-0.006321445902
-0.009368035669
-0.008451641062
-0.01033998859
-0.01128361628
)


100
(
0.01106688292
0.01055002896
0.009843834567
0.009814393988
0.009837591731
0.009672659438
0.009430388233
0.009326101946
0.009249740566
0.009044836881
0.008970208894
0.008662671262
0.00833902799
0.008255404596
0.007999867699
0.00748734614
0.007374637609
0.007351112132
0.007006701097
0.006620026732
0.006566955043
0.006597146107
0.006327217254
0.006032817122
0.005813015258
0.005815246304
0.005745467081
0.005496874582
0.005246373897
0.005008114757
0.004848158846
0.004908485308
0.004714308701
0.004416618092
0.00430469623
0.004209846738
0.004123679331
0.003963469589
0.003818697088
0.003575833478
0.003378745908
0.003271444344
0.003128233448
0.003008360742
0.002913582714
0.002765471397
0.002681328896
0.002651618587
0.002525963671
0.002415381108
0.002332503274
0.002154562628
0.002006381802
0.001878976774
0.00171748133
0.001658695289
0.001628359049
0.001529189324
0.001427274805
0.001330517866
0.001304427085
0.001298416256
0.001151244939
0.0009139036274
0.000692309154
0.0005498097709
0.0005876178166
0.0006360785094
0.0004869554208
0.0003977649332
0.0004285574557
0.0002854357749
0.0001089987681
6.593077995e-05
1.325239179e-05
-9.752951942e-05
-0.0002207019213
-0.0003400421071
-0.0004264982936
-0.0004173777133
-0.0003879643663
-0.0004319969763
-0.0004747820653
-0.0006119586946
-0.0005941499367
-0.0006008576301
-0.0004662283817
-0.0002737171592
-0.0002586973428
-6.476710367e-05
0.0001190993155
0.0003799244767
0.0007886792532
0.00135395646
-0.0008486030771
-0.006153929776
-0.007093034203
-0.006506029946
-0.008769519216
-0.009762879819
)


100
(
0.01003526206
0.009664492567
0.009214705922
0.009218329856
0.009225569561
0.009157522944
0.009017403308
0.008856365242
0.008857836954
0.008684104691
0.008569641878
0.00849730987
0.008116312901
0.00786002791
0.007798559325
0.007544808833
0.007071196349
0.006973368997
0.007010956463
0.00673485987
0.006391243508
0.006286976272
0.006320312472
0.006137987409
0.00587122186
0.0055877737
0.005561609237
0.005585373143
0.005377516969
0.005153157993
0.004875299191
0.00471832711
0.004745394938
0.004545926592
0.004307360511
0.004234190748
0.004037999055
0.003963188397
0.003902380039
0.003696771528
0.003512983248
0.003292885934
0.003199424377
0.003157732738
0.003037688181
0.002938146897
0.002850831765
0.002698437446
0.002582083577
0.00248437142
0.00234929678
0.002244286285
0.002136555147
0.001941116898
0.001857499165
0.0018392229
0.001738579849
0.00172207017
0.00167425246
0.001490651474
0.001320514838
0.001167876842
0.001012062532
0.0009411746771
0.0008450237679
0.0007796930585
0.0007547888857
0.0007781229118
0.0007555554902
0.0005796087052
0.0004005590358
0.0002336193737
0.0001018253483
6.059293988e-05
5.725039105e-05
-3.945730374e-05
-0.0001931689764
-0.0001941508363
-0.0001260828213
-0.0001728329735
-0.0003402908548
-0.0004759037786
-0.0004244925414
-0.0003561882741
-0.0004132813536
-0.0005371375723
-0.0004057639217
-0.0002141022236
-0.0001705709629
-1.820559662e-05
0.000136025446
0.0003778137946
0.0007895571426
0.001096537799
-0.001346150666
-0.004991619906
-0.005053880158
-0.005012576989
-0.006758486847
-0.007484621377
)


100
(
0.009155970098
0.008893037884
0.008571310303
0.008579037467
0.008688764676
0.008629039551
0.008547957714
0.008417432913
0.008412741861
0.008443098767
0.008149131868
0.008107495866
0.008034212533
0.007602644875
0.007399346538
0.007374473541
0.007144310926
0.006713191351
0.00660799142
0.006698276145
0.006498290334
0.006183559444
0.006009527003
0.006044079056
0.005959206663
0.005707496756
0.005458810445
0.005297508765
0.005317014537
0.005248837591
0.005018249052
0.00477996031
0.004504766155
0.004462839023
0.004469315765
0.004286702165
0.004120553192
0.003884893988
0.003723490203
0.003747531708
0.003693885631
0.003505330993
0.003338572397
0.003182304297
0.003108625712
0.003057843376
0.002902673168
0.002753468541
0.002644442217
0.002464902506
0.002341919649
0.002302032428
0.002212448137
0.002123190704
0.002037255486
0.00189608131
0.001860092012
0.001771871914
0.001554811754
0.001481583754
0.00131848309
0.001112204418
0.001065195715
0.00104893313
0.001030354275
0.001004159653
0.000907695374
0.0007976902115
0.0006776021854
0.0005451833975
0.0004354464836
0.000362164267
0.0002877073986
0.0002002523986
0.0001171805027
3.82209042e-05
-7.104720217e-05
-0.0001568801961
-0.000111507832
-0.0001494495205
-0.0002831308392
-0.0002475830083
-0.0002116270669
-0.0003791985897
-0.0004799216848
-0.0003164090647
-0.0001927387397
-0.0002215618384
-0.0002366748872
-0.0001360951736
5.876844076e-05
0.0003300593892
0.0007459742926
0.0008759352422
-0.00126149462
-0.00348835489
-0.003269289946
-0.003639697966
-0.005603967815
-0.00677722046
)


100
(
0.008415204923
0.008191631708
0.007930323963
0.007987794158
0.008148130791
0.00811886179
0.008066183346
0.00805487185
0.007947222736
0.008013528414
0.007977349856
0.007692481328
0.007647380475
0.007539193497
0.007132403975
0.006964741717
0.006983271633
0.00678456251
0.006410000136
0.006286581995
0.006399960756
0.006280247783
0.005988402363
0.005728780403
0.005762727192
0.00578311056
0.005537822372
0.005313604424
0.005071827415
0.005010937923
0.005016745267
0.004872320897
0.004684762453
0.004439816035
0.004207640421
0.004208816453
0.004202211422
0.004034134534
0.003848084656
0.003636135915
0.003590206654
0.003645276429
0.003511787833
0.003316662588
0.003182167008
0.00298256744
0.002872787231
0.002815919449
0.002659695408
0.002538880776
0.002421729731
0.002243575577
0.002260412584
0.002294013469
0.00210037643
0.00195812926
0.001821173639
0.001609385202
0.001548576531
0.001468543371
0.001353929677
0.001254204913
0.00110031075
0.001179516292
0.001175878877
0.001020914833
0.0009221560532
0.0007629537869
0.0006745258652
0.000626597709
0.0005339486387
0.0004242563083
0.0003373567105
0.0002502065459
0.0001655702066
0.0001254811432
5.539369568e-05
-4.540066513e-05
-0.0001084241728
-0.0001200968405
-0.0001621003551
-0.0001741106582
-0.0002322838605
-0.0003434489701
-0.0002615401482
-0.0001650311408
-0.0001952772946
-0.000251616881
-0.0003157202379
-0.0002568961105
-4.20737473e-05
0.0002311418274
0.0005761451711
0.0006195153062
-0.0008431215839
-0.001937158202
-0.001643763456
-0.002221088655
-0.003718933811
-0.004568208561
)


100
(
0.007765035643
0.007554205987
0.007315270021
0.007452286476
0.007609766747
0.007627311244
0.00757228366
0.007604057776
0.007630543219
0.00756933414
0.007618670804
0.007485820128
0.007235354385
0.007201646829
0.007089222829
0.006713051251
0.006556884694
0.006616616787
0.006473023448
0.006155476243
0.005983840164
0.006099828097
0.006073001639
0.005795383571
0.005553892781
0.005468189978
0.005483187627
0.005351955397
0.005126919877
0.004918414179
0.004708464688
0.00472916748
0.004743084825
0.004543352867
0.004338062913
0.004060923122
0.003988767876
0.004080060092
0.004002258027
0.003815933089
0.003650560031
0.003477726108
0.003431071866
0.003382073754
0.003214648616
0.003093167721
0.002951398121
0.002658126442
0.002571613838
0.002624463769
0.002507603052
0.002400334223
0.002284159846
0.00214002118
0.002062657979
0.00195716759
0.001789181138
0.00170334652
0.001473549747
0.00136414436
0.001479592208
0.001406514915
0.001287950231
0.001196497192
0.001075555031
0.001010770476
0.0009235766711
0.0007987871168
0.0006991034424
0.0006737932459
0.0006361801892
0.0004796092158
0.0003174524251
0.0002773054989
0.0002657449557
0.0001791129356
8.855016942e-05
1.338684284e-05
-4.724049605e-05
-4.657846747e-05
-9.818425779e-05
-0.000234133789
-0.0002753951323
-0.0002222554672
-0.0001329069159
-0.0001785539529
-0.0003012816644
-0.0003245144198
-0.000314703876
-0.0002888830868
-0.0001050125981
-2.807608261e-06
0.0002770518962
0.0005054599148
-0.0002612919823
-0.0005082500765
-0.0001886601207
-0.0008128057327
-0.002037291576
-0.002711580556
)


100
(
0.007035134321
0.006890796781
0.006759003189
0.00692717819
0.00706738465
0.007135213197
0.007157154699
0.007139666351
0.007236997644
0.007203271892
0.007185086858
0.007210184923
0.007008493604
0.006794450734
0.006786185245
0.006683629587
0.006342357857
0.006175747898
0.006274224372
0.006207856928
0.00593245682
0.005682259174
0.005788936355
0.005860954212
0.005596971032
0.005375046964
0.005143377562
0.005136723608
0.005160893519
0.004972663261
0.00478064972
0.004524857249
0.00441506958
0.004501786445
0.004460908574
0.004258644247
0.004031903913
0.003836536773
0.003864902093
0.003926939034
0.00375177805
0.003556965174
0.003391408378
0.003206289962
0.003115383774
0.003082396352
0.002965284057
0.00281269777
0.002614245774
0.002404025077
0.002470391024
0.002499725499
0.002288248364
0.002127085514
0.002037855197
0.001821776406
0.001706064863
0.001721423881
0.001607184072
0.001509432687
0.00138592516
0.001447322135
0.001402340698
0.001210086314
0.001105558187
0.0009576087464
0.000889245973
0.0008329956062
0.0007461928669
0.0006525261329
0.0005394985628
0.0004846340274
0.0004357422866
0.0003656669371
0.0003442990228
0.0002530701197
8.480422654e-05
-4.627410439e-06
-3.074458289e-05
-5.534388833e-05
-9.070969602e-05
-0.0001759377047
-0.0002036117366
-0.000212906588
-0.0002696247625
-0.00028626654
-0.0002976780205
-0.0003653540267
-0.0004263015171
-0.0003791152769
-0.0003160166336
-0.000209825285
8.251176448e-05
0.0004924714127
0.0004597504773
0.000766503123
0.001107349413
0.0004350177667
-0.0007530749034
-0.001481853175
)


100
(
0.006292491407
0.006237064192
0.006232811741
0.006408589052
0.006587138316
0.006642565192
0.006700102883
0.006703863296
0.006800578135
0.006912886159
0.00676114414
0.006783771449
0.006821401794
0.006560016765
0.006372390558
0.006398219457
0.006312105105
0.006016979432
0.005829459945
0.005954553151
0.005972512989
0.00571635216
0.005490515307
0.005459217171
0.005515251422
0.005381569125
0.005156884221
0.004972822333
0.004832714133
0.004829437835
0.004798742664
0.004630137594
0.004416699839
0.004165106325
0.004251790304
0.004391927862
0.004192118597
0.003973060831
0.003815775376
0.003618100264
0.003589891188
0.003610818404
0.003468679742
0.003318748274
0.003069389007
0.002710466742
0.002775991131
0.002939826385
0.002726227935
0.002526752801
0.002370153395
0.002194393919
0.002191054486
0.002210544443
0.002074077074
0.001886978672
0.001594068156
0.001592690484
0.001767515456
0.001635741308
0.001481459579
0.00138591223
0.00127241742
0.001179776618
0.001096723157
0.001007107555
0.0008917372769
0.0008602451017
0.0008197271058
0.0006689566339
0.0005309952354
0.0004744372969
0.0004404641094
0.0003710811104
0.000251569809
0.0001990810589
0.0001740069246
0.0001287311285
7.147869655e-05
-0.0001099126268
-0.0002530807934
-0.0002225647833
-0.000110487816
-0.0001624524936
-0.0003224081219
-0.0003975594323
-0.0004251665138
-0.0004707206967
-0.0005703127696
-0.0005643860625
-0.0005308307717
-0.0004593121046
-0.0002006590526
0.0003728261576
0.001295633956
0.002209802866
0.002304999983
0.001573900805
0.0005681785478
-1.654946955e-05
)


100
(
0.005681744406
0.005664361517
0.005710740911
0.005892277937
0.006113108017
0.006187996469
0.0062444616
0.006333970033
0.006351991101
0.006492336955
0.006535662464
0.006342741972
0.006389096408
0.006428248296
0.006151025251
0.0059700205
0.006028048343
0.005982207694
0.005732651817
0.005511397967
0.005642069464
0.005734589186
0.005496032218
0.005287936406
0.005094068477
0.005133168287
0.005182666597
0.005002527743
0.004811904025
0.004506464508
0.004493415027
0.00464137029
0.004526291152
0.004329524447
0.004118055436
0.004006336307
0.004134385791
0.004110586607
0.00383936504
0.003659989051
0.00352296867
0.00329080703
0.00326335719
0.003316420274
0.003157695117
0.002906191395
0.002616881673
0.002484749617
0.002651260087
0.00263398472
0.00232330296
0.00229436265
0.002152620241
0.001886313195
0.001954945399
0.002059221915
0.00182242991
0.001593415032
0.001521388018
0.001570989036
0.001569571771
0.00140662602
0.001265383147
0.001149182368
0.00109637186
0.001030879649
0.0009192614991
0.0007921636502
0.0006801481677
0.0006354141961
0.000592710963
0.0005229888502
0.0004956286722
0.0004247740908
0.0002641373253
0.0001447507953
0.0001044948105
4.381634465e-05
-1.846476666e-05
-9.176160553e-05
-0.0001576595337
-0.0001475714168
-0.0002437149483
-0.0003635328403
-0.000383900504
-0.0004729499736
-0.000605733321
-0.0006965066693