/*--------------------------------*- C++ -*----------------------------------*\
| =========                 |                                                 |
| \\      /  F ield         | OpenFOAM: The Open Source CFD Toolbox           |
|  \\    /   O peration     | Version:  2.3.1                                 |
|   \\  /    A nd           | Web:      www.OpenFOAM.org                      |
|    \\/     M anipulation  |                                                 |
\*---------------------------------------------------------------------------*/
FoamFile
{
    version     2.0;
    format      ascii;
    class       dictionary;
    location    "constant";
    object      GRPSI43;
}
// * * * * * * * * * * * * * * * * * * * * * * * * * * * * * * * * * * * * * //

GRPSI43_table
100
(

100
(
0.02003751724
0.02007924348
0.02003141628
0.01995259845
0.02058190722
0.02098072691
0.02095825225
0.02116789719
0.02171715503
0.02178461522
0.0224636173
0.0230293195
0.02226058316
0.02272312193
0.02284765275
0.02195900702
0.02235600348
0.02270941201
0.02193448558
0.02218475984
0.02280948246
0.02252755407
0.02227744184
0.02290686343
0.02321867214
0.02266011239
0.02252871433
0.02297923493
0.02302267449
0.02251780665
0.02272314806
0.02334404106
0.02327134011
0.02277894299
0.02252186913
0.02276960761
0.02276806333
0.0222652231
0.02201785655
0.02228659923
0.02231645217
0.02183792105
0.02163462123
0.02196945553
0.02204093486
0.02158754617
0.02116577873
0.02125508176
0.02133221771
0.02093351379
0.02067492715
0.02090394388
0.02102558689
0.02066884642
0.02059282405
0.02090479789
0.02091518126
0.02051481799
0.02026658774
0.02029212961
0.02015302283
0.01972889314
0.0194801216
0.01942316957
0.01918056566
0.01873864853
0.01856445788
0.01845551483
0.01807157483
0.0177249832
0.01756503746
0.01729778186
0.0168772815
0.01666413052
0.01641065072
0.01598423268
0.01571744239
0.0154016207
0.01499356662
0.01465653064
0.01423208047
0.0138296803
0.01340903192
0.01293557061
0.01246297181
0.01195389515
0.01143261217
0.010875109
0.01030259157
0.009700024725
0.009071070354
0.008399337495
0.007687591171
0.006932495851
0.006144697725
0.005276397277
0.004331598282
0.00333435473
0.001604486203
0.0003990943245
)


100
(
0.01845592666
0.01847074385
0.01848065914
0.01867867091
0.01938838919
0.01954482467
0.01981860256
0.02009273585
0.02047420264
0.02096100193
0.02107588282
0.02171547402
0.02153016186
0.02128477029
0.0217572249
0.02151773724
0.0208092473
0.02134765096
0.02169631594
0.02098426897
0.02118897563
0.02185102216
0.02171039588
0.02120899509
0.02180221848
0.022362806
0.02185583673
0.02122325143
0.02178331778
0.02237239734
0.02181323871
0.0214424259
0.02196420748
0.02245711385
0.02205141523
0.02142648838
0.02128740936
0.02183061901
0.02172417805
0.02100258161
0.02063294977
0.02106814777
0.02122176505
0.02068254889
0.02028987121
0.0206367708
0.02094773724
0.02049874702
0.01991986026
0.01981437381
0.02026617107
0.020152028
0.01956599225
0.01941464328
0.01977768363
0.01979683568
0.01936733463
0.01927511391
0.01948227637
0.01959912302
0.0186299617
0.01817257448
0.01928170213
0.01914476428
0.01753043455
0.01723580936
0.01870797906
0.01777138823
0.01619837278
0.01699969852
0.01740006749
0.01588315752
0.01533605262
0.01642215823
0.01541466535
0.01433581902
0.01518620974
0.01466780358
0.01361752879
0.01398997709
0.01339547461
0.01272242354
0.0125593137
0.01202132358
0.01164593111
0.011210558
0.01063105807
0.01001596823
0.009558772961
0.008957488005
0.008157555855
0.00731796416
0.00670402909
0.00594691938
0.005344573275
0.004863117538
0.005047248397
0.01675220958
0.0262578374
0.02474243829
)


100
(
0.01702092157
0.01697024963
0.01696654983
0.01754580277
0.01822757485
0.01845848674
0.01863775595
0.0189745777
0.0192294285
0.01976455735
0.02008067985
0.02030975118
0.02071077054
0.02030230837
0.02027629056
0.02071950192
0.02040266977
0.01975033476
0.02033754126
0.02084004616
0.02021322029
0.02017597419
0.02084503746
0.02096028745
0.02043072099
0.02064433546
0.0212482144
0.02114109958
0.02056677049
0.02049436011
0.0211191875
0.02119808545
0.02068567836
0.02057956756
0.02109964586
0.02132256253
0.02085830982
0.02022986556
0.02018886551
0.02069190332
0.02050434561
0.01985621348
0.01934751059
0.01978617883
0.0201395992
0.01960847843
0.01920354889
0.01930092379
0.01968309501
0.0195566446
0.01910725989
0.01849748046
0.01883805428
0.0192908111
0.01892130393
0.0178689369
0.01818380747
0.0190330585
0.01852154707
0.01752557521
0.01788513311
0.01773432382
0.01657538259
0.01758200984
0.0182361043
0.0169112759
0.01569417618
0.01706384398
0.01702483896
0.01547194881
0.01522671808
0.01581469071
0.01558118386
0.01429651338
0.01392435953
0.01417916079
0.0137675604
0.01295286366
0.01311874416
0.01284912112
0.01238846331
0.01149642945
0.01117038479
0.01121659433
0.01009057937
0.009838805552
0.009446468453
0.00847885831
0.007912046704
0.007341263661
0.006709851175
0.005799666186
0.004950102734
0.004320219597
0.003562945114
0.003078146832
0.009828355913
0.02913486259
0.03840036837
0.03524130802
)


100
(
0.01574055803
0.015570307
0.01573564148
0.0164090928
0.01683312952
0.01736036619
0.01748051204
0.01785737617
0.01839116102
0.01858129407
0.01908949094
0.01899984136
0.01939620334
0.01978198551
0.01916938057
0.01926046229
0.01973815351
0.01940996299
0.01874549179
0.01939783785
0.02006150886
0.01948702814
0.01916178917
0.01980920409
0.02022211106
0.01970870191
0.01950090065
0.02007850562
0.02041990587
0.01996171845
0.01941888883
0.01980621662
0.02038764962
0.0200384297
0.01961688048
0.01966514673
0.02015404052
0.02020747169
0.01970923319
0.01906442449
0.01892173265
0.01948173549
0.01949558696
0.01898092881
0.01812671455
0.01852887191
0.01923883493
0.01879050687
0.01752659923
0.01790664878
0.01914395738
0.01865744068
0.01725629948
0.01716020873
0.01852131719
0.01839602237
0.01651369419
0.01635516867
0.01816048869
0.01748830232
0.01578086633
0.01638077215
0.01672766864
0.01578227138
0.01588008905
0.01644987601
0.01615402302
0.01528155501
0.01489114089
0.01505696024
0.01507176695
0.01447889568
0.01382522403
0.01331704069
0.01337949
0.01366328315
0.01263115856
0.01136374494
0.01225961821
0.0121054271
0.01059429371
0.01047207542
0.0103622394
0.009600121467
0.008820088099
0.0083565236
0.007987441349
0.007498326461
0.006786944242
0.005822439776
0.005167785798
0.004727795304
0.003647322711
0.002498491133
0.001827785658
0.001685037087
0.01646248154
0.0385507282
0.04377417675
0.04149321703
)


100
(
0.01471861242
0.01444210092
0.01446538388
0.01513443042
0.01579107408
0.01625324814
0.01649597868
0.016711729
0.01728435551
0.01745056808
0.0178867801
0.01837512815
0.01805509183
0.01849680423
0.01875165156
0.01812333496
0.01827841489
0.01879962371
0.01853466642
0.01796567535
0.01848283482
0.01916205485
0.01879473894
0.01827410248
0.01874491339
0.01936637747
0.01903218343
0.0186068398
0.01888414975
0.01945086814
0.01932935239
0.01885430305
0.01842615309
0.01906181948
0.01957028371
0.0191286725
0.01832486701
0.0187363157
0.01960273017
0.01912255511
0.01835481749
0.01756728458
0.01821817517
0.01891772352
0.01811989647
0.01625101557
0.01712306498
0.01889711383
0.01772755295
0.01597173215
0.01666437259
0.01836316243
0.01746716619
0.01587188742
0.01626092214
0.01778273507
0.01677578179
0.01525982554
0.01564613853
0.01645268734
0.01608527369
0.01506928982
0.01496711399
0.01539752714
0.01536700562
0.01493608265
0.01423983389
0.0142873558
0.01468688572
0.01416858451
0.01346249698
0.01288582134
0.01314199578
0.01360968209
0.0125448717
0.01120675573
0.01168525922
0.01196471527
0.01088854204
0.009962950273
0.00973408784
0.009935104742
0.009422425418
0.00834004716
0.007984269165
0.007240076715
0.006305652838
0.006141463568
0.005718890885
0.005079408939
0.003936179263
0.003319521164
0.002507069297
0.001052656963
0.0002749680919
0.001874970706
0.02307723784
0.04526669293
0.04661219896
0.0450092598
)


100
(
0.01376831577
0.01339318889
0.01328951354
0.0139175911
0.01474660955
0.01513202527
0.01547896178
0.01574470022
0.01618720358
0.01675735798
0.0166826771
0.01715950037
0.01740853403
0.01717171338
0.01760625563
0.01773823094
0.01717206867
0.01732873592
0.01789439527
0.01777121312
0.01728663074
0.01754063588
0.01820116378
0.0181110273
0.01761350022
0.01765501994
0.01826515634
0.01844104872
0.01811842171
0.01782278734
0.01836424668
0.0188191124
0.01834903566
0.01731425295
0.01786969888
0.01891745402
0.0185610244
0.01674193308
0.01707292539
0.01889845442
0.01838371932
0.01686138114
0.01611546517
0.01760344199
0.01842181863
0.01652657485
0.01451467599
0.01658431093
0.01818543655
0.01624070854
0.01488187794
0.01589080382
0.01686091173
0.01598608623
0.0150740342
0.01541964846
0.0156172131
0.01550879892
0.01552330401
0.01483221972
0.01442429261
0.01492749478
0.01510437553
0.01432808252
0.01349623838
0.01352263901
0.0140604662
0.01370634815
0.01304058035
0.01253940547
0.01260433392
0.01281026003
0.01238541574
0.01122106797
0.01137990821
0.01167361759
0.01063267014
0.009968047471
0.009725099664
0.01013727077
0.009707235012
0.00793389383
0.007703293482
0.00777713003
0.006778821427
0.006285492261
0.005756233887
0.00523644095
0.004783588022
0.004006272831
0.002967416923
0.002245731267
0.001076284644
-9.7204384e-05
-0.0008986746155
0.005267188766
0.02881163258
0.04764944002
0.04819258248
0.04678770983
)


100
(
0.01264047846
0.01229337413
0.01217880984
0.01294516442
0.01371792163
0.01408421859
0.01445321339
0.01485668775
0.0150609274
0.01567038894
0.01600272284
0.01596805926
0.01641770114
0.01642627703
0.01629091501
0.01672287872
0.01680361847
0.01630770922
0.01640614339
0.01702229914
0.01707243584
0.01662130663
0.01654086004
0.01718261073
0.01743071873
0.01694498791
0.01704052704
0.01772201908
0.01785490482
0.0172386814
0.01651923771
0.01731950361
0.01817976625
0.01729380857
0.01602023174
0.01697598998
0.01837785657
0.01720222863
0.01526187423
0.01628200632
0.01811890868
0.01712758002
0.01540796024
0.01526067324
0.0171706642
0.01676997532
0.01492675773
0.01426699082
0.01580582239
0.01633161886
0.0148259653
0.01446216099
0.01453255985
0.01527776504
0.01540166742
0.01494493738
0.01439937067
0.01411640774
0.01459470979
0.01485825717
0.01430117615
0.01355455031
0.01289465516
0.01342318482
0.01379671426
0.01298787979
0.01267119529
0.0120660329
0.01205661121
0.01256991356
0.01201660961
0.01088154029
0.01063354712
0.01106244329
0.01044309192
0.01008643864
0.009897989725
0.009895115598
0.009601652174
0.008056449314
0.007803655023
0.00793136304
0.007259756283
0.006732531446
0.00615601359
0.005431748734
0.00492434988
0.004633589349
0.003943051083
0.002819062057
0.002086729031
0.001189062688
-7.977916015e-05
-0.001120418173
-0.002206405061
0.008528444256
0.03382710699
0.04764268598
0.04809930276
0.04878770016
)


100
(
0.01142867353
0.0111800059
0.01120877745
0.01199582055
0.01262982303
0.01312646857
0.01342154165
0.01388350487
0.01434906053
0.01457611841
0.01510133662
0.01508982941
0.01522889371
0.01566074954
0.01549834804
0.01541069684
0.01585329274
0.01594118029
0.0155182315
0.01550791092
0.01613899279
0.01636671159
0.01591897974
0.01549345434
0.01611895292
0.01671452532
0.01626775123
0.0165347662
0.01722477517
0.01727523791
0.01584839096
0.01526358703
0.01686963921
0.01753259286
0.01591972382
0.01475269473
0.01647995361
0.01760986698
0.01571356869
0.01406663753
0.01556583388
0.01701315615
0.01567676011
0.01426142214
0.01474973999
0.01565033474
0.01508424789
0.01423468915
0.01398173785
0.01427029181
0.01489654956
0.01493077416
0.0145885159
0.01390009674
0.01307543829
0.01385891092
0.01461028646
0.0138643926
0.01318308896
0.01277944282
0.01332918619
0.01357572939
0.01289368092
0.01265768941
0.01221208232
0.01171557749
0.01214130219
0.01246061236
0.01127971316
0.01005788374
0.01049320566
0.01074468919
0.01031207069
0.01002961201
0.009392215736
0.009674496005
0.009355051359
0.007861758624
0.007740541661
0.007980047071
0.007550125529
0.007063638721
0.006613648466
0.006025411949
0.005188408878
0.004766572119
0.004512592309
0.003841348647
0.002824098856
0.001802787016
0.001093824804
0.0003162058924
-0.0007708067058
-0.002131313123
-0.002919081813
0.01178666999
0.03695871577
0.04720812445
0.04722156371
0.04735059356
)


100
(
0.01037172902
0.01019635783
0.01032073528
0.01104317241
0.01168576683
0.01217978406
0.01254936727
0.01289205602
0.01344442535
0.01362783706
0.01403099044
0.01449111844
0.01419836753
0.01446697122
0.01489293556
0.01462757181
0.01451271379
0.01494919891
0.01515206411
0.0148063345
0.01458787155
0.0152174635
0.01567626822
0.01524429212
0.01471310919
0.01505810385
0.01578285016
0.01565828391
0.01606385145
0.01678285223
0.01636089304
0.01448274602
0.01436193257
0.01637582387
0.01633335089
0.01456363538
0.01404199253
0.01602774319
0.01610586683
0.01424077335
0.01359765625
0.01471708969
0.0153371233
0.01423247188
0.01365637428
0.01363286323
0.01427560146
0.01460622566
0.01433969446
0.01391279722
0.01319065562
0.01301030306
0.01378701972
0.01417047192
0.01341215198
0.0126176603
0.01221828956
0.01264544784
0.01312849313
0.01260429496
0.01237580258
0.01209034953
0.01172533744
0.01210443773
0.01224527384
0.01139133789
0.01033901865
0.01026982537
0.01082061275
0.01046920722
0.01012135634
0.00945121628
0.009149552417
0.009958335373
0.008908884107
0.007372184454
0.007613101864
0.007970845594
0.007552703379
0.007074350079
0.006705934728
0.006281892281
0.005582436035
0.005086592726
0.004952687908
0.004453237701
0.003745057955
0.00259133328
0.001697951779
0.001252372993
0.0005019591242
-0.0007173130502
-0.002125662581
-0.002939563459
-0.002617146419
0.01469837374
0.03893191458
0.0465805167
0.04685606383
0.04701167856
)


100
(
0.009515708575
0.009342211741
0.009431344221
0.01007743951
0.01083120337
0.01124914491
0.01165265017
0.01199003572
0.01249432256
0.01301867966
0.01293888423
0.01342812581
0.01377556904
0.01334011898
0.01368812358
0.01411084632
0.01376865758
0.01360205916
0.0141045096
0.01443893418
0.01413493377
0.01369398297
0.0142886832
0.01499180116
0.01462068663
0.01411130474
0.01400466724
0.0147368879
0.01508178584
0.01561914066
0.01636421561
0.01498652068
0.01314826495
0.01389166019
0.01573028682
0.01495011068
0.01330909798
0.01356563877
0.01480277247
0.01455166559
0.01341094087
0.01297706163
0.01332305417
0.01415334067
0.01407299905
0.0136446173
0.01308813336
0.01257980719
0.013188421
0.01376093441
0.01335099528
0.01271831199
0.0121301121
0.01204705402
0.01283165296
0.01290044078
0.01215431753
0.01196359596
0.01156791267
0.01128185817
0.01182158686
0.01210135593
0.01118801799
0.01018085176
0.01028207567
0.01088310583
0.01048491295
0.0099418654
0.009737583147
0.009261575414
0.009654123804
0.009647539435
0.008209837803
0.007283942479
0.007695688169
0.007885167647
0.007333185702
0.00695314582
0.006656909307
0.006246919339
0.005648503014
0.005395175545
0.005332448465
0.004742154613
0.003992314519
0.003271354197
0.002408774707
0.00197846305
0.00137013974
0.0005227513731
-0.000575032751
-0.001513445887
-0.002727223484
-0.004080035605
-0.002186536162
0.01819050279
0.04081389519
0.0456775059
0.04681544933
0.04742095932
)


100
(
0.008742187052
0.008559809843
0.008605191283
0.009269406029
0.009994427483
0.01038952965
0.01077589024
0.01121784369
0.0115227676
0.01209040048
0.01239808098
0.01233965286
0.01277843706
0.01293891199
0.01250585775
0.0128882188
0.01332109939
0.01299042834
0.01272833447
0.01327356224
0.01380577676
0.01351689783
0.01307154187
0.01335817863
0.01407340121
0.01403774178
0.01354349219
0.01307214685
0.01368455549
0.01435348363
0.01513379088
0.01540167829
0.01364782403
0.01236445391
0.01337397063
0.01437248883
0.01356922694
0.01273779897
0.01274285823
0.01329718771
0.01366440369
0.01349614502
0.01308423444
0.01232361297
0.01236089558
0.01314098504
0.01319857337
0.01254003621
0.01184677785
0.01155278433
0.01225863758
0.01277476882
0.01218993138
0.01168718917
0.01141863584
0.0110816786
0.0115060318
0.01203173459
0.01164991502
0.01086102523
0.009874951504
0.01006783533
0.01090407007
0.01042313017
0.00948523504
0.009555543015
0.009453186369
0.009633955971
0.01001618564
0.008608726128
0.007167696742
0.007902542403
0.008181130782
0.007428421584
0.007058467125
0.006755284745
0.006532078268
0.006095638218
0.00570577984
0.005592819505
0.005377034628
0.004863326934
0.004328883151
0.003624120435
0.002744138509
0.00265151091
0.002297875972
0.001051070404
0.0003518337662
-0.0004969504826
-0.001424682339
-0.002424656583
-0.00383681929
-0.004874441118
0.0006059943237
0.02291922939
0.04177368163
0.04478409545
0.04592374948
0.04645028613
)


100
(
0.007919557559
0.007775438607
0.007834304064
0.008523572178
0.009175191116
0.009608633786
0.00990869714
0.01036905583
0.01082813574
0.01113688809
0.0116146225
0.01167845085
0.01169947659
0.01210061347
0.01213201785
0.01167399751
0.01207150635
0.01258042844
0.0123022356
0.01193286705
0.01248752793
0.01318189475
0.0129195741
0.0125047412
0.01243729227
0.01313259883
0.01346412056
0.01299117602
0.01254933724
0.01257052426
0.01330654352
0.01473387318
0.01402018932
0.01227713005
0.01188933474
0.01235801648
0.01294962924
0.01287572735
0.01271540729
0.01220520173
0.01218228119
0.01274262275
0.01287681841
0.01250329088
0.01180278696
0.01111599436
0.01154072302
0.01243271301
0.01206557873
0.01132080717
0.01105033955
0.01072718457
0.01110159392
0.01169132756
0.01155233288
0.01122946727
0.01027209767
0.009498104639
0.01047373917
0.01105454134
0.01012727694
0.009312403566
0.00898728196
0.009208979387
0.009780547676
0.009846433055
0.008669644283
0.007273884848
0.008356863539
0.008654291158
0.007242360324
0.007039326979
0.006873638532
0.006595434867
0.00626042981
0.006002989218
0.006061549785
0.005887007524
0.005328793791
0.004761931471
0.004220664235
0.003692424188
0.003133729622
0.003053948799
0.002715046536
0.001971316046
0.0008886679555
0.0003225887769
-0.000260249535
-0.00144673957
-0.002295521373
-0.003502830284
-0.004629279314
-0.005636441326
0.004510045098
0.02821478568
0.04170073369
0.0432503686
0.04538429853
0.04642149859
)


100
(
0.007028162491
0.006974926681
0.007185141862
0.007816169794
0.008376224267
0.008845769516
0.00920656013
0.009530905873
0.01003836884
0.0102973035
0.01068065291
0.01108945155
0.01095502918
0.01101705739
0.01139601288
0.01137091913
0.01092374131
0.01129267191
0.01187779977
0.01168621057
0.01135500163
0.01172058496
0.01239759689
0.0123525921
0.01196190034
0.01161700814
0.01216155447
0.01277027544
0.01247044662
0.01206042148
0.01173836473
0.01218700305
0.01315353971
0.01269043152
0.01180153948
0.0117599099
0.01155038492
0.012013096
0.01249918115
0.01214318067
0.01159131477
0.01095101808
0.01131161405
0.0120483073
0.01192423334
0.01129576463
0.0107395794
0.01037291429
0.01064936358
0.01104125958
0.01109458923
0.01104556462
0.01054152217
0.009464348154
0.00988068617
0.01102828105
0.01054288514
0.009579428745
0.008947177543
0.008653837669
0.009253457017
0.009946585199
0.009689721998
0.008665194933
0.007276865593
0.008206928386
0.008931209926
0.007480681482
0.006650759648
0.006650411835
0.006836634494
0.006833134825
0.006608438969
0.006325910266
0.0061184722
0.005640080821
0.004945694034
0.004505131192
0.004116444194
0.003691109436
0.003651897824
0.003516631186
0.002879563999
0.00204510226
0.001167322018
0.001067912652
0.0008612891195
-0.0004863653454
-0.001701477825
-0.002479927195
-0.003001537273
-0.003971560881
-0.005562329192
-0.005710275186
0.009315157811
0.03184890789
0.04035780177
0.04184742306
0.04413126656
0.045306221
)


100
(
0.006280299995
0.006293235358
0.006544130873
0.007099250339
0.007693661538
0.008097839197
0.008479276448
0.008770500432
0.00922342292
0.00969507708
0.00973041827
0.01017020247
0.0105092137
0.01022156973
0.01032205774
0.01072186802
0.01069193673
0.01026744192
0.01055476919
0.01120311661
0.01114024985
0.01082084454
0.01093492297
0.01158887633
0.0118052756
0.01143801657
0.01111206639
0.01117087855
0.01175797163
0.01194774935
0.01156098133
0.01125322464
0.01100523747
0.01153613895
0.01204683947
0.01175888105
0.01140214071
0.01075631085
0.01059543682
0.01134741282
0.01167080484
0.01105653816
0.0103974492
0.01010454628
0.01057103343
0.01106606714
0.01072427989
0.01028402918
0.01013256616
0.009685889846
0.00971957104
0.01042974963
0.01056923864
0.009807451384
0.008811651108
0.008340711243
0.009379219158
0.009773871519
0.008902950446
0.009082605786
0.008548946323
0.007807282373
0.00865436109
0.009009317112
0.007541102284
0.006351209717
0.006464313236
0.00696662819
0.006963788969
0.006553245968
0.00621654833
0.006091731501
0.005887924418
0.005452180549
0.004913993569
0.004337517362
0.00437232398
0.004409939727
0.004035768415
0.003557082611
0.002824817661
0.002044452559
0.001406790917
0.001549311498
0.001603486234
0.0003612965216
-0.001031133867
-0.001861636241
-0.001945766829
-0.002416790726
-0.003538563947
-0.005075515431
-0.006133382281
-0.004715681843
0.01220195231
0.03313979637
0.03897675797
0.04024603641
0.04310554015
0.04520238656
)


100
(
0.005661127209
0.005683506812
0.005928540968
0.006459007326
0.007034884764
0.007410513813
0.007770678
0.008153173943
0.008409222218
0.008892139008
0.009218855789
0.00921926274
0.009606240648
0.009835455307
0.009525010723
0.00964167721
0.01008370322
0.01006836399
0.009694158906
0.009873961928
0.01053935455
0.01063033926
0.01031036544
0.01013688908
0.01074994858
0.01124347383
0.01093230046
0.01063680848
0.01037231048
0.01068627651
0.01115387179
0.01111970735
0.01090319056
0.01052126085
0.01024875753
0.01079458076
0.01124626471
0.010904587
0.01025965906
0.009639091744
0.009969416885
0.01076949048
0.0105653795
0.009900738749
0.009600567032
0.009316252426
0.009617547801
0.01017024611
0.01013056932
0.009796375194
0.009006914363
0.008152936969
0.00901363543
0.01002209926
0.009150578182
0.008266821542
0.007949948951
0.007837525751
0.008667275053
0.009222881678
0.008825297956
0.00739915417
0.005979813709
0.007286811051
0.007713048842
0.00649230101
0.006287911393
0.006026415293
0.005870376786
0.005722440891
0.005344714794
0.005110557252
0.005267250521
0.005196708218
0.004716759285
0.00429175831
0.003864350052
0.003441736087
0.002801562815
0.002008294658
0.002204277373
0.002282614836
0.001624025429
0.0007127931788
-0.0005337489275
-0.0007607994196
-0.0009726063069
-0.001687810857
-0.002634722274
-0.003377837569
-0.004556283861
-0.005581158868
-0.006859268161
-0.004798750769
0.01469992079
0.03376289472
0.03734990414
0.03866852078
0.04135653768
0.04327349696
)


100
(
0.005126410082
0.005140182983
0.00535433325
0.005894932856
0.006406745313
0.006781476683
0.007074467527
0.007466904079
0.007829269131
0.0080940062
0.008504386683
0.008659204031
0.00867095379
0.009029209177
0.00920159618
0.008887814381
0.008979357634
0.009463355912
0.00951143901
0.009192068095
0.0092106946
0.009862349234
0.01014638151
0.009819882594
0.009619472267
0.009883540231
0.01038228146
0.01042139109
0.01013426233
0.00988454971
0.009687321907
0.01017968259
0.01064349529
0.0104023821
0.009990360858
0.009363703627
0.009557803722
0.01035202477
0.01040292765
0.009784351491
0.009219552144
0.008906040569
0.009304220314
0.009681369002
0.009512566293
0.009425533977
0.009160644744
0.008311107121
0.008568011344
0.009499536882
0.009263797482
0.00843020359
0.007695742338
0.007604103793
0.008245551242
0.008625914481
0.008474993167
0.008316387186
0.007100650625
0.006828447955
0.008101957141
0.007739665679
0.006315786787
0.005598942484
0.00558823847
0.005963883298
0.006113158634
0.005917986474
0.005594021563
0.005492024401
0.005332430052
0.004770506862
0.004175466824
0.003823044464
0.003506318774
0.003104098296
0.003262567691
0.003368896209
0.002883859953
0.002153029897
0.001342970011
0.0007691285729
0.0003364903797
0.0003956077986
-0.0002584026797
-0.00152619393
-0.002192050323
-0.002763074497
-0.002831224046
-0.003724465176
-0.005167864556
-0.005977365808
-0.007020145771
-0.003276048316
0.01537940532
0.03275459772
0.03575322489
0.03673739851
0.03979376405
0.04182627741
)


100
(
0.004552132763
0.004596156217
0.004847937648
0.005359564463
0.005803747825
0.006180994582
0.006503496497
0.006790709926
0.007197775241
0.007433996835
0.007718315559
0.008065688312
0.008087232102
0.008114516867
0.008471958958
0.008615246089
0.008309231533
0.008335770055
0.008861135965
0.009022202775
0.008739008933
0.008546410623
0.009153072585
0.009642127246
0.009349459448
0.009151789348
0.009002275027
0.00943497819
0.009893361969
0.009745696147
0.009488724118
0.009038366306
0.009070247127
0.009719674545
0.009947140537
0.009497832049
0.008885209197
0.008523023494
0.009060342265
0.009665795132
0.009303433567
0.008788010455
0.008483673107
0.00827767535
0.008519966201
0.009011880043
0.009042150217
0.00854289064
0.007694773937
0.007153011576
0.008067673029
0.008641700877
0.007869270992
0.007348517012
0.007467542612
0.007261580365
0.007534945377
0.008154294582
0.007415041238
0.006188949589
0.005482624243
0.00643368421
0.006613646531
0.005834786617
0.005711243881
0.005367746281
0.005266500375
0.005125386364
0.004805522319
0.004446602929
0.003992906067
0.00402409632
0.004111436933
0.003759959372
0.003468539083
0.003122435873
0.00270964466
0.001895368779
0.001068465516
0.00127346037
0.001596275722
0.001347923993
9.633716419e-05
-0.00134549311
-0.002114858253
-0.002122898095
-0.0019487586
-0.00281850231
-0.003658865041
-0.004221212793
-0.00528488361
-0.006619420483
-0.007834302158
-0.001167972353
0.01678193903
0.03064094835
0.03424643406
0.03538589055
0.0384858124
0.04089605794
)


100
(
0.00398276223
0.004075447851
0.004381686978
0.004849654731
0.005286889428
0.00560372962
0.005923344929
0.006176284691
0.006545035134
0.006919147517
0.006971139569
0.007294125243
0.00763277126
0.007528794176
0.007558253997
0.007932695122
0.008061275365
0.007786664407
0.007730726538
0.008280918838
0.008581131885
0.00830546596
0.008122433583
0.008410742376
0.008877473473
0.00889098207
0.008663741502
0.008543029302
0.0085882126
0.008990948067
0.009256023447
0.009022984162
0.008552112341
0.008056152007
0.008645460687
0.009401290449
0.00903324023
0.00844133431
0.008101772778
0.007853772262
0.008250197401
0.008755828712
0.008668454299
0.008447842072
0.007815630292
0.006920197521
0.007633946378
0.008636259917
0.008003596709
0.007159641844
0.006713796658
0.006608165956
0.007226084383
0.007822400881
0.007671647452
0.007003858961
0.00583250233
0.006201428426
0.007304640697
0.006488432333
0.005339136773
0.00505784734
0.005094346438
0.005130959345
0.005217811428
0.005228748485
0.004914947965
0.004819292389
0.004680086491
0.004178020712
0.003672143659
0.003306073244
0.002995383691
0.002665754512
0.002217660267
0.002343872528
0.002605075147
0.002130905004
0.001364151806
0.0007611292629
-5.201132753e-06
-0.0003771420532
-0.0001971494389
-0.001036230676
-0.002044427991
-0.002475207142
-0.002954109463
-0.003540855878
-0.004274693353
-0.004734264251
-0.005529865386
-0.007040631123
-0.007669895089
-0.0007950493845
0.01759729691
0.03064086695
0.03239347439
0.03379145346
0.03696755329
0.03908913466
)


100
(
0.003524187888
0.003628682991
0.003932384475
0.004358706401
0.00479427433
0.005089600817
0.005372131136
0.005674199796
0.005899271261
0.006282112912
0.006543814428
0.006520608715
0.006860594595
0.007172483633
0.007004072716
0.007004633303
0.00739661538
0.007556293744
0.007319631072
0.007165735722
0.007699144783
0.00812435219
0.007886985411
0.007717772837
0.007636141354
0.00805725364
0.008459306946
0.008327448536
0.008132746462
0.007695536084
0.008006293658
0.008683313907
0.008596253606
0.008106519516
0.007598150004
0.007560270684
0.00829925866
0.008539777701
0.00798728943
0.007676783743
0.007554792887
0.007255267984
0.007636178518
0.008240801518
0.008029282933
0.007247061366
0.006363215909
0.006265357986
0.007247673835
0.007460482468
0.006603520699
0.006719170508
0.00654631867
0.006054054117
0.006745164142
0.007324914187
0.006178977543
0.004979921759
0.004854727592
0.005435691758
0.005654312968
0.005209174875
0.004923256619
0.004701723099
0.004671386004
0.004561645983
0.004235826719
0.003807799942
0.003378299189
0.003335096354
0.003427094552
0.003222408058
0.002954666162
0.002630174654
0.002142050327
0.001575067279
0.001015228837
0.0006333126626
0.0008322734427
0.0009490326598
0.0003318669553
-0.0006982242886
-0.001678059647
-0.001902080328
-0.001765568018
-0.002500558677
-0.003769837437
-0.004602161184
-0.004555163589
-0.005175607126
-0.006103243872
-0.006651743027
-0.007785060486
0.0005696717584
0.01920504419
0.02947748457
0.03041471404
0.03213467033
0.03549498557
0.03753736158
)


100
(
0.003141865706
0.00323556372
0.003516226715
0.0039366296
0.004326371257
0.004618039852
0.004840992293
0.005141025932
0.005433514597
0.005644855679
0.005957392671
0.00612142408
0.006099268812
0.006422391058
0.006698290741
0.006513743532
0.00645761181
0.006862028653
0.007113587712
0.00693569147
0.006781698248
0.007071971484
0.007486549222
0.007473685186
0.007296588425
0.007199510112
0.0073298212
0.00771390185
0.007885154705
0.007660772759
0.007215146022
0.007071541929
0.007736513318
0.008129508006
0.00767749514
0.007205464194
0.006984853997
0.007152049349
0.007512909097
0.007690096442
0.00761529206
0.007296212142
0.006553538015
0.006294994166
0.007151040973
0.007531757729
0.006717664372
0.005962975164
0.005736401907
0.005750954196
0.006541122503
0.007048827707
0.006811237811
0.005756941072
0.00449099572
0.005456879756
0.006381727424
0.00536375907
0.004565002271
0.004479671959
0.004485667693
0.004371485678
0.004217163485
0.00429537898
0.0042893972
0.004232910664
0.004045791697
0.003570943121
0.003209342015
0.002911147325
0.00260533112
0.002278290869
0.001907369237
0.00158404553
0.001682291147
0.001661453309
0.00116861558
0.0008064948164
0.0003531917189
-0.0007674724036
-0.001107800514
-0.001035825944
-0.00167838991
-0.002126050418
-0.002598411214
-0.003151497911
-0.003562835751
-0.004288208783
-0.00489565294
-0.00563488657
-0.006141696313
-0.007253078116
-0.007290988397
0.002481791866
0.0195392869
0.02810353741
0.02856719308
0.03037436272
0.03364826484
0.03554076514
)


100
(
0.002823570805
0.002894421845
0.003139473616
0.003539483325
0.003881212205
0.004172287047
0.004413300673
0.004626537683
0.004934604398
0.005140556674
0.005343950674
0.005619140373