/*--------------------------------*- C++ -*----------------------------------*\
| =========                 |                                                 |
| \\      /  F ield         | OpenFOAM: The Open Source CFD Toolbox           |
|  \\    /   O peration     | Version:  2.3.1                                 |
|   \\  /    A nd           | Web:      www.OpenFOAM.org                      |
|    \\/     M anipulation  |                                                 |
\*---------------------------------------------------------------------------*/
FoamFile
{
    version     2.0;
    format      ascii;
    class       dictionary;
    location    "constant";
    object      GRPSI41;
}
// * * * * * * * * * * * * * * * * * * * * * * * * * * * * * * * * * * * * * //

GRPSI41_table
100
(

100
(
6.224037195e-06
2.516717848e-06
-2.280092853e-06
-3.636795225e-06
-4.005469043e-06
-3.940847679e-06
-3.670814987e-06
-3.411087002e-06
-3.115697866e-06
-2.88358242e-06
-2.557120985e-06
-2.258907246e-06
-2.105242046e-06
-1.863093398e-06
-1.668349981e-06
-1.581169478e-06
-1.414934708e-06
-1.26859552e-06
-1.223297216e-06
-1.117950752e-06
-9.96089244e-07
-9.46489675e-07
-9.013477275e-07
-8.043014603e-07
-7.291883551e-07
-7.102459857e-07
-6.69749448e-07
-5.989201096e-07
-5.53049976e-07
-5.400709408e-07
-4.987415978e-07
-4.411031874e-07
-4.136651019e-07
-4.044795258e-07
-3.872651539e-07
-3.522432413e-07
-3.264208731e-07
-3.188649661e-07
-3.035696205e-07
-2.724519234e-07
-2.49439543e-07
-2.431640837e-07
-2.311379825e-07
-2.070335878e-07
-1.897893066e-07
-1.856221114e-07
-1.812799065e-07
-1.644689473e-07
-1.486609178e-07
-1.457621762e-07
-1.406673571e-07
-1.266947649e-07
-1.151566392e-07
-1.127648945e-07
-1.068997064e-07
-9.687160526e-08
-8.956646898e-08
-8.421408936e-08
-7.706359575e-08
-7.113470441e-08
-6.576246125e-08
-5.983394207e-08
-5.603307291e-08
-5.369379185e-08
-4.968029561e-08
-4.46986905e-08
-4.185292289e-08
-3.955459906e-08
-3.537979137e-08
-3.208173176e-08
-3.134596008e-08
-2.911867152e-08
-2.517423448e-08
-2.392645208e-08
-2.209663682e-08
-1.843570042e-08
-1.778190847e-08
-1.625166391e-08
-1.361953963e-08
-1.281809231e-08
-1.045110058e-08
-9.446305388e-09
-8.391431342e-09
-6.90677976e-09
-6.029988483e-09
-4.979456586e-09
-4.385604475e-09
-3.598587762e-09
-3.444370238e-09
-2.996220166e-09
-2.504759974e-09
-2.007350198e-09
-1.614933105e-09
-1.265475138e-09
-9.139592097e-10
-6.113781134e-10
-4.085412425e-10
-2.865432056e-10
-1.238549628e-10
-4.138313775e-11
)


100
(
8.526531493e-06
4.683859397e-06
-2.89768108e-07
-2.235924884e-06
-3.270550033e-06
-2.881441365e-06
-3.078124943e-06
-3.186179001e-06
-2.824079483e-06
-2.964978739e-06
-2.392114102e-06
-2.141315031e-06
-2.046524208e-06
-1.712909763e-06
-1.68570033e-06
-1.656870416e-06
-1.353989157e-06
-1.383259266e-06
-1.468369916e-06
-1.213227468e-06
-1.177971979e-06
-1.236078334e-06
-1.126044205e-06
-9.628101299e-07
-9.937699559e-07
-1.005481027e-06
-8.62459549e-07
-7.725075802e-07
-8.275100479e-07
-8.452256493e-07
-7.214554647e-07
-6.548666872e-07
-6.661676611e-07
-6.542530274e-07
-5.847745411e-07
-5.372103427e-07
-5.258742998e-07
-5.440645643e-07
-5.131752083e-07
-4.594252759e-07
-4.332564684e-07
-4.381414935e-07
-4.235460723e-07
-3.835203619e-07
-3.541054497e-07
-3.443990092e-07
-3.32731657e-07
-3.025305266e-07
-2.727085868e-07
-2.562618775e-07
-2.530493148e-07
-2.394004823e-07
-2.189288187e-07
-2.066830166e-07
-2.025508813e-07
-1.904845792e-07
-1.61330845e-07
-1.155474757e-07
-4.152267837e-08
2.844554174e-08
-4.244730687e-08
-1.896191934e-07
-1.704318685e-07
-4.514026232e-08
-4.912722794e-08
-1.364496452e-07
-1.016295066e-07
-2.355658272e-08
-6.373179498e-08
-1.104819069e-07
-5.476762782e-08
-2.376002329e-08
-6.5630593e-08
-1.570544326e-08
4.32778548e-08
-6.752129e-08
-8.275586082e-08
4.320219176e-09
-6.709291397e-08
-5.402041789e-08
-9.225480478e-09
-5.260024616e-08
3.456053502e-09
-2.81237177e-08
-4.17285681e-08
1.553008684e-08
-2.630285178e-08
8.358114748e-10
1.242349863e-09
-1.163938025e-08
1.452368811e-08
2.916572635e-08
3.246477311e-08
3.344709407e-08
2.548039656e-08
3.064179422e-09
-3.746641204e-08
-2.595392614e-07
-2.770083434e-07
-1.266055403e-07
)


100
(
1.087350248e-05
6.659546429e-06
1.168906423e-06
-1.50153148e-06
-2.68304491e-06
-2.603563679e-06
-2.750207931e-06
-2.875165792e-06
-2.748467566e-06
-2.756424915e-06
-2.637368853e-06
-2.271512618e-06
-2.193792438e-06
-1.937278809e-06
-1.784385334e-06
-1.801397834e-06
-1.67617532e-06
-1.513646554e-06
-1.542519078e-06
-1.51836597e-06
-1.369324242e-06
-1.320138403e-06
-1.306585339e-06
-1.228344752e-06
-1.12477005e-06
-1.082510335e-06
-1.046666606e-06
-9.774882733e-07
-9.14724803e-07
-8.799760583e-07
-8.595496849e-07
-8.131957525e-07
-7.506489788e-07
-7.004994744e-07
-6.714178093e-07
-6.425376675e-07
-5.997783076e-07
-5.522399176e-07
-5.211300872e-07
-5.131543349e-07
-4.87454288e-07
-4.430496141e-07
-3.967074722e-07
-3.929720225e-07
-4.028947451e-07
-3.766952519e-07
-3.381044767e-07
-3.159232367e-07
-3.133234623e-07
-2.888742809e-07
-2.373489064e-07
-1.737029242e-07
-1.689770553e-07
-1.902902723e-07
-1.723291936e-07
-1.214373081e-07
-1.241644507e-07
-1.457351258e-07
-8.419681264e-08
5.055333887e-08
1.274074676e-07
2.546555814e-08
-1.404440641e-07
-2.096744244e-07
-1.401764624e-07
-8.262159899e-08
-9.979065136e-08
-1.312109856e-07
-1.138666832e-07
-9.117093759e-08
-9.940538004e-08
-1.006979946e-07
-8.430354805e-08
-2.355020072e-08
9.343022718e-08
1.737076769e-07
5.617229629e-08
-6.486789686e-08
-2.98799874e-08
-1.650843905e-08
2.7698613e-08
3.7485556e-08
8.349753215e-08
9.699149768e-08
2.090972718e-08
7.876446626e-08
9.5970009e-08
1.028056158e-07
1.850826707e-07
2.33184285e-07
2.299518894e-07
2.762717903e-07
3.939513445e-07
3.671650477e-07
3.230082687e-07
3.683309744e-07
-8.31602328e-07
-2.10202072e-06
-1.584541182e-06
-9.952543205e-07
)


100
(
1.281602865e-05
8.356558372e-06
1.954798656e-06
-8.635050152e-07
-1.843823802e-06
-2.411553304e-06
-2.652623023e-06
-2.764457437e-06
-2.898257161e-06
-2.753366516e-06
-2.725634536e-06
-2.460907622e-06
-2.302663124e-06
-2.189105972e-06
-1.957925318e-06
-1.865741287e-06
-1.81440943e-06
-1.69577329e-06
-1.576427869e-06
-1.543492931e-06
-1.502039557e-06
-1.392437034e-06
-1.301442257e-06
-1.259075906e-06
-1.212461126e-06
-1.118021916e-06
-1.02842446e-06
-9.883719661e-07
-9.636440808e-07
-9.039458342e-07
-8.190604193e-07
-7.790910352e-07
-7.695073026e-07
-7.10229065e-07
-6.316036037e-07
-5.77553758e-07
-5.718701761e-07
-5.53192645e-07
-4.975043652e-07
-4.217344406e-07
-3.729753587e-07
-3.81935608e-07
-3.57496868e-07
-2.954819526e-07
-2.088680338e-07
-2.252070432e-07
-2.809478108e-07
-2.528740635e-07
-1.511770956e-07
-1.55856835e-07
-2.294375836e-07
-1.993878113e-07
-1.293554562e-07
-1.440698132e-07
-2.387236058e-07
-2.264952413e-07
-1.04142048e-07
-9.427136724e-08
-2.157487657e-07
-1.78797683e-07
-3.41359664e-08
1.240236862e-09
-7.22554813e-08
-1.493194233e-07
-1.979533954e-07
-1.910865518e-07
-1.448290594e-07
-7.829110399e-08
5.689829384e-09
5.578432598e-08
8.427810161e-08
1.417859536e-07
1.952524272e-07
1.688686697e-07
1.36154275e-07
2.303554096e-07
2.118834216e-07
1.114644615e-07
2.189963292e-07
2.324689462e-07
1.583662506e-07
2.588767247e-07
2.366186404e-07
2.109604941e-07
3.578101247e-07
4.661917633e-07
5.365992255e-07
5.648515298e-07
6.432009254e-07
8.017439329e-07
8.596786057e-07
8.894318906e-07
1.041960211e-06
1.274186709e-06
1.473707092e-06
1.3524105e-06
-3.51486981e-06
-6.785561041e-06
-4.402306191e-06
-3.417046205e-06
)


100
(
1.378638692e-05
9.428321396e-06
3.032940526e-06
1.222696199e-09
-1.509236482e-06
-2.234549179e-06
-2.542084663e-06
-2.697805598e-06
-2.818866242e-06
-2.788223381e-06
-2.735516257e-06
-2.641062661e-06
-2.395618134e-06
-2.245993055e-06
-2.099586522e-06
-1.904777751e-06
-1.793065121e-06
-1.721714312e-06
-1.615288294e-06
-1.481388927e-06
-1.41878799e-06
-1.388583847e-06
-1.289353408e-06
-1.149726236e-06
-1.087596572e-06
-1.074020912e-06
-9.867682188e-07
-8.633890133e-07
-8.107958356e-07
-8.269652637e-07
-7.877436345e-07
-6.962749736e-07
-5.755361265e-07
-5.838292287e-07
-5.982380277e-07
-4.990335851e-07
-3.35724191e-07
-3.196517866e-07
-3.762272865e-07
-3.022549108e-07
-2.532280726e-07
-1.979320958e-07
-2.763980934e-07
-3.480446047e-07
-2.571328543e-07
-5.32823201e-08
-1.39126328e-07
-3.404627435e-07
-2.424985774e-07
-7.02709245e-08
-1.211111487e-07
-2.825887441e-07
-2.237526895e-07
-1.185964691e-07
-1.733386669e-07
-2.940023018e-07
-1.729719653e-07
-1.234748901e-08
-5.654309197e-08
-1.759819111e-07
-1.800485349e-07
-6.720281287e-08
1.37386514e-08
2.29971261e-08
3.422872811e-08
7.927882117e-08
1.37448686e-07
1.394490297e-07
1.260199624e-07
1.68125472e-07
2.201912466e-07
3.164271217e-07
4.361718414e-07
5.041135868e-07
4.319055896e-07
3.798308648e-07
4.557966726e-07
4.251982212e-07
4.20970379e-07
5.71370552e-07
6.44195048e-07
6.818046752e-07
8.26275252e-07
9.616385969e-07
9.503951545e-07
1.020837791e-06
1.248580992e-06
1.434509982e-06
1.588935255e-06
1.57116076e-06
1.789736842e-06
2.044950882e-06
2.415255342e-06
3.085672093e-06
3.605639221e-06
2.027474615e-06
-9.022576175e-06
-1.42417408e-05
-9.223922871e-06
-8.179499341e-06
)


100
(
1.474600747e-05
1.037556169e-05
3.870696862e-06
6.365887596e-07
-1.159335031e-06
-2.022828319e-06
-2.411457938e-06
-2.632200007e-06
-2.726033516e-06
-2.785385111e-06
-2.687495858e-06
-2.605963193e-06
-2.466792971e-06
-2.24233716e-06
-2.084308947e-06
-1.927502693e-06
-1.715064998e-06
-1.582811233e-06
-1.527170109e-06
-1.427550548e-06
-1.263376106e-06
-1.168175697e-06
-1.157085531e-06
-1.063232741e-06
-8.666352899e-07
-7.24588301e-07
-7.320631386e-07
-7.305200508e-07
-6.439035537e-07
-5.165092172e-07
-5.386974454e-07
-5.808620892e-07
-5.06459625e-07
-3.177967829e-07
-3.809861181e-07
-5.364496264e-07
-4.601089483e-07
-1.180241526e-07
-9.576976017e-08
-3.49318447e-07
-2.809732388e-07
-1.310546381e-07
-8.642732887e-08
-3.187603337e-07
-4.153587901e-07
-1.396898242e-07
1.441403866e-07
-1.497996114e-07
-4.025658866e-07
-1.678670725e-07
1.745713198e-08
-1.001409412e-07
-2.360309778e-07
-1.56414553e-07
-6.277497733e-08
-7.851760944e-08
-2.124286438e-08
1.063598255e-07
1.921768629e-07
3.01750281e-07
3.147308169e-07
1.826117114e-07
1.146163769e-07
1.998566939e-07
3.051539768e-07
2.983129056e-07
2.093129463e-07
2.193529209e-07
3.019248169e-07
4.051497607e-07
4.595227299e-07
5.047193606e-07
6.414526021e-07
8.691840177e-07
9.363181009e-07
8.030947161e-07
8.597834155e-07
1.082036865e-06
1.206722853e-06
1.182866686e-06
1.301607572e-06
1.702802368e-06
1.7635912e-06
1.746291497e-06
1.976380156e-06
2.003474991e-06
2.112465976e-06
2.875343588e-06
3.200943048e-06
2.696199422e-06
3.34193191e-06
4.083883844e-06
4.857862661e-06
6.153059713e-06
7.052678487e-06
-1.079903054e-06
-1.887489919e-05
-2.230498297e-05
-1.65334869e-05
-1.65026921e-05
)


100
(
1.569577628e-05
1.124796825e-05
4.575065543e-06
1.098951034e-06
-7.78733389e-07
-1.72984967e-06
-2.228092298e-06
-2.479980013e-06
-2.567355138e-06
-2.636107271e-06
-2.616085005e-06
-2.487253807e-06
-2.388077515e-06
-2.207014112e-06
-1.973028839e-06
-1.819065101e-06
-1.643532745e-06
-1.382554383e-06
-1.226909607e-06
-1.209778919e-06
-1.124436152e-06
-9.186254494e-07
-7.557479805e-07
-7.789629223e-07
-7.11888905e-07
-4.131935302e-07
-2.722416889e-07
-3.915914555e-07
-4.862875981e-07
-4.158714059e-07
-2.194218841e-07
-3.265462164e-07
-4.989704092e-07
-3.534820848e-07
-1.202606013e-07
-3.138797057e-07
-5.858399223e-07
-3.315970692e-07
8.206003522e-08
-6.168074337e-08
-3.98435162e-07
-2.526155577e-07
-3.24556286e-08
-5.805230379e-08
-3.736907293e-07
-2.514769944e-07
1.090500847e-07
2.460152983e-07
-3.345860615e-08
-1.576642597e-07
9.894435806e-08
1.975512161e-07
2.490916815e-07
1.637391517e-07
1.498936305e-07
2.358821951e-07
3.363339201e-07
3.992767839e-07
3.603696942e-07
3.745470166e-07
4.932177633e-07
6.107852253e-07
7.190800097e-07
5.936710917e-07
4.599197086e-07
5.805360732e-07
7.123602048e-07
9.101065752e-07
9.190169642e-07
7.873758217e-07
8.755566453e-07
1.103630448e-06
1.169304895e-06
1.099688356e-06
1.271121988e-06
1.500058646e-06
1.699071961e-06
1.791518691e-06
1.897175032e-06
2.240629709e-06
2.411546301e-06
2.664711134e-06
3.078943458e-06
3.249422146e-06
3.363581298e-06
3.709396106e-06
4.049302607e-06
4.775715202e-06
5.510724718e-06
5.207875876e-06
5.462478015e-06
7.062046108e-06
9.05269164e-06
1.132145736e-05
1.265895922e-05
-7.589672606e-06
-3.448957224e-05
-3.328614139e-05
-2.817351333e-05
-3.081036879e-05
)


100
(
1.661231585e-05
1.201909029e-05
5.113440433e-06
1.575484791e-06
-3.239370197e-07
-1.405382682e-06
-1.964947707e-06
-2.254266845e-06
-2.387872545e-06
-2.408833816e-06
-2.429736531e-06
-2.309045524e-06
-2.171753852e-06
-2.069201661e-06
-1.830242204e-06
-1.570705828e-06
-1.419406029e-06
-1.204205699e-06
-8.941543341e-07
-7.098456498e-07
-7.495693743e-07
-7.090924131e-07
-4.72068338e-07
-2.335397827e-07
-3.522457031e-07
-4.125257561e-07
-2.723772097e-08
6.936607718e-08
-1.540465739e-07
-3.615918374e-07
-1.134433219e-07
3.165325008e-08
-3.705813602e-07
-5.464011263e-07
-1.941343685e-07
5.621123084e-08
-3.704099605e-07
-6.101290136e-07
-1.344098054e-07
2.956714984e-07
-1.809413968e-08
-3.746670152e-07
-1.275496139e-07
1.323812063e-07
4.431937608e-08
-6.17692797e-08
1.79093274e-07
4.697271444e-07
6.017075975e-07
5.825671202e-07
4.228708507e-07
3.971649776e-07
4.905016403e-07
6.584443166e-07
8.518981156e-07
6.430650662e-07
4.146153876e-07
5.368773319e-07
6.770807663e-07
8.316100018e-07
7.944714235e-07
8.11685839e-07
1.058735451e-06
1.232456709e-06
1.409360224e-06
1.475659048e-06
1.285732099e-06
1.196520628e-06
1.562357846e-06
1.971590153e-06
1.885632026e-06
1.750890016e-06
1.86860253e-06
2.041353199e-06
2.247213174e-06
2.209747932e-06
2.424249096e-06
3.02457274e-06
3.26450636e-06
3.463359006e-06
3.893304173e-06
4.28057532e-06
4.667179857e-06
5.207692202e-06
5.948628359e-06
6.473610743e-06
6.757653507e-06
7.367646682e-06
8.354443044e-06
9.219210705e-06
1.061981019e-05
1.275669406e-05
1.546114103e-05
1.934532645e-05
1.988116107e-05
-1.949682735e-05
-5.729370088e-05
-4.77770299e-05
-4.658964948e-05
-5.503233716e-05
)


100
(
1.721038141e-05
1.258828293e-05
5.649377406e-06
2.104212869e-06
1.406732147e-07
-1.019220876e-06
-1.645348945e-06
-1.955419642e-06
-2.117362628e-06
-2.108971547e-06
-2.114090211e-06
-2.102839818e-06
-1.851093115e-06
-1.707437737e-06
-1.610694362e-06
-1.298492161e-06
-1.031737327e-06
-8.482638295e-07
-5.89409613e-07
-2.973623307e-07
-7.580117457e-08
-2.316664475e-07
-3.296868471e-07
-1.031424933e-07
1.061961067e-07
-5.809696532e-09
-1.438367522e-07
2.053272275e-07
2.694109259e-07
-5.438112585e-08
-2.232240921e-07
1.581400042e-07
1.669856703e-07
-4.462851998e-07
-4.492156992e-07
-5.561872255e-09
1.217013077e-07
-3.999501499e-07
-3.479784344e-07
2.338860272e-07
4.709846675e-07
1.809949486e-07
-6.038711883e-09
2.887127987e-07
4.713319168e-07
6.373692867e-07
6.393906874e-07
6.972435472e-07
8.911531875e-07
1.010049233e-06
1.147666075e-06
1.127362451e-06
8.594168238e-07
7.685811595e-07
1.001452579e-06
1.240123978e-06
1.406497062e-06
1.271586764e-06
1.044132131e-06
1.160357087e-06
1.337095443e-06
1.61013457e-06
1.850819689e-06
1.837894818e-06
1.870141421e-06
2.128440336e-06
2.425715766e-06
2.486626531e-06
2.414978419e-06
2.702298798e-06
3.077045366e-06
3.392162088e-06
3.318385992e-06
2.911062027e-06
3.330060529e-06
4.093828586e-06
4.290042322e-06
4.521295784e-06
5.060911089e-06
5.515697067e-06
5.901437178e-06
6.43139848e-06
7.511439547e-06
8.447701411e-06
8.973696044e-06
9.716114074e-06
1.116562734e-05
1.189430202e-05
1.217121519e-05
1.408989619e-05
1.693582358e-05
2.089137461e-05
2.57052859e-05
2.940548725e-05
2.581879072e-05
-3.628290816e-05
-8.508343788e-05
-6.561668457e-05
-7.385180641e-05
-9.3168475e-05
)


100
(
1.747748075e-05
1.300775336e-05
6.212885993e-06
2.640277908e-06
6.301857664e-07
-5.678641054e-07
-1.258730707e-06
-1.58256945e-06
-1.758659127e-06
-1.82125939e-06
-1.658613051e-06
-1.651927105e-06
-1.60278133e-06
-1.193370703e-06
-1.055517718e-06
-9.836574101e-07
-5.94048118e-07
-2.055315268e-07
-1.464607219e-07
-9.389002706e-08
1.80394164e-07
4.582488539e-07
2.086568316e-07
-7.163677745e-08
1.335947363e-07
2.734643752e-07
2.885878308e-07
1.221401896e-07
3.144552014e-07
3.578117666e-07
-7.437809589e-08
7.450785634e-08
5.133250599e-07
1.948506063e-07
-4.6246138e-07
-2.022447656e-07
3.305240468e-07
2.771546207e-07
-1.868687971e-08
2.124345021e-07
7.349453498e-07
9.893423973e-07
9.681506357e-07
7.003465232e-07
7.304413199e-07
9.212101785e-07
1.18638793e-06
1.488549049e-06
1.371308935e-06
1.252722939e-06
1.420754728e-06
1.536346636e-06
1.666665296e-06
1.739371526e-06
1.521682894e-06
1.571486958e-06
1.973190452e-06
2.194204435e-06
2.426344949e-06
2.464621219e-06
2.135071706e-06
2.006810471e-06
2.435651798e-06
2.979555723e-06
3.129138792e-06
3.006708228e-06
3.2662527e-06
3.735616235e-06
4.158536577e-06
4.556065727e-06
4.486506235e-06
4.517081821e-06
5.088289968e-06
5.592013966e-06
5.686126187e-06
6.052762609e-06
6.776942754e-06
7.208786165e-06
7.548179741e-06
8.176486879e-06
9.357236359e-06
1.030725477e-05
1.087621896e-05
1.173098176e-05
1.305855529e-05
1.500719669e-05
1.646349561e-05
1.707240663e-05
1.891391355e-05
2.182319105e-05
2.644574295e-05
3.093920774e-05
3.733083031e-05
4.357177356e-05
2.73641474e-05
-6.410045854e-05
-0.0001173833167
-8.506660048e-05
-0.000110201673
-0.0001467260063
)


100
(
1.763015969e-05
1.330727718e-05
6.692138703e-06
3.168457751e-06
1.153877717e-06
-7.907794921e-08
-8.030876288e-07
-1.179706267e-06
-1.290233326e-06
-1.364369997e-06
-1.283630278e-06
-1.023138317e-06
-9.947589454e-07
-8.679323951e-07
-3.218965156e-07
-2.237699338e-07
-2.529109804e-07
1.463995345e-07
5.376264202e-07
4.273187601e-07
2.943458382e-07
5.240338227e-07
7.217392418e-07
5.713767124e-07
2.516781576e-07
2.845214648e-07
3.941395041e-07
5.592364881e-07
4.304156932e-07
3.716315971e-07
2.917130277e-07
1.471190182e-07
5.150486279e-07
8.111236798e-07
3.679639671e-07
-1.105439333e-08
3.599092408e-07
7.510697322e-07
9.126957918e-07
9.159981726e-07
1.011847874e-06
1.27079337e-06
1.489409056e-06
1.816136251e-06
1.757096318e-06
1.378132472e-06
1.388946011e-06
1.673828498e-06
1.990701913e-06
2.280131501e-06
2.08489492e-06
1.884366573e-06
2.1903287e-06
2.449239016e-06
2.70929711e-06
3.134349545e-06
3.083615133e-06
2.923525219e-06
3.186213856e-06
3.477660049e-06
3.836607445e-06
3.712124363e-06
3.354843756e-06
3.771885958e-06
4.539049551e-06
4.921863414e-06
5.244585042e-06
5.25796807e-06
5.27679455e-06
6.261193192e-06
7.374458585e-06
7.26524384e-06
7.39726006e-06
8.450542556e-06
9.275806843e-06
9.620114166e-06
9.815272722e-06
1.04670876e-05
1.155506619e-05
1.271747457e-05
1.373139791e-05
1.443334859e-05
1.497632188e-05
1.716417144e-05
1.928742472e-05
2.046395223e-05
2.215203636e-05
2.461919948e-05
2.772997543e-05
3.228476744e-05
3.808492932e-05
4.537194041e-05
5.522846159e-05
6.035161041e-05
1.467636511e-05
-0.0001083807402
-0.0001503214048
-0.000104750802
-0.0001548937437
-0.0002150438182
)


100
(
1.763262277e-05
1.348449907e-05
7.106496478e-06
3.693169009e-06
1.706136047e-06
4.373522444e-07
-2.685456151e-07
-6.849888718e-07
-8.172706468e-07
-7.769357284e-07
-7.371662359e-07
-4.592854402e-07
-1.57984168e-07
-1.550979437e-07
2.137852949e-08
6.294976118e-07
5.992817748e-07
3.905568599e-07
6.988097714e-07
1.094321215e-06
8.807258287e-07
5.531871928e-07
7.625547476e-07
9.030213185e-07
9.291917913e-07
5.964375223e-07
4.234640603e-07
5.615729067e-07
7.015022188e-07
8.285747918e-07
8.215024647e-07
2.416359081e-07
4.833845253e-07
1.240836331e-06
1.337245331e-06
1.123211362e-06
9.229479689e-07
1.102338608e-06
1.299288991e-06
1.729550093e-06
1.918943101e-06
1.790549828e-06
1.920843815e-06
2.155040398e-06
2.397623438e-06
2.696866012e-06
2.486863568e-06
2.050178082e-06
2.303753962e-06
2.773471357e-06
3.066264045e-06
3.47871817e-06
3.511370901e-06
3.367071139e-06
3.611185969e-06
3.86729496e-06
4.447120706e-06
5.042837171e-06
4.560260761e-06
4.260617402e-06
4.919223795e-06
5.54404766e-06
6.021812967e-06
6.283348578e-06
6.200589722e-06
6.285543371e-06
7.064160506e-06
8.093956844e-06
7.696011758e-06
8.051504957e-06
9.868640308e-06
1.10770552e-05
1.186947473e-05
1.225271041e-05
1.291875664e-05
1.386425124e-05
1.456444922e-05
1.55978177e-05
1.683927226e-05
1.764457499e-05
1.86593506e-05
2.054840944e-05
2.244083121e-05
2.37699685e-05
2.513420898e-05
2.830287412e-05
3.162279393e-05
3.379740419e-05
3.959116395e-05
4.632905026e-05
5.312969843e-05
6.349079467e-05
7.453884833e-05
7.798774646e-05
-1.441373113e-05
-0.0001684688219
-0.0001818134454
-0.0001254102648
-0.00020880274
-0.0002985104284
)


100
(
1.750740795e-05
1.354060127e-05
7.481967082e-06
4.209652387e-06
2.249416672e-06
9.864071482e-07
2.70392809e-07
-9.634163148e-08
-2.569366605e-07
-1.041850925e-07
-3.406880272e-10
1.06556384e-07
5.877799704e-07
8.446515315e-07
7.259699362e-07
8.568912019e-07
1.41969595e-06
1.282805376e-06
8.853672475e-07
1.067420603e-06
1.374125949e-06
1.250746719e-06
8.953737919e-07
9.564193499e-07
1.09272359e-06
1.302164261e-06
1.039507986e-06
6.837753245e-07
8.283896266e-07
1.00598636e-06
1.343257375e-06
1.3912731e-06
1.046017356e-06
1.420508838e-06
1.954242435e-06
1.98661266e-06
2.215478941e-06
1.956294855e-06
1.704446868e-06
2.046805058e-06
2.418633472e-06
2.920968552e-06
2.840794796e-06
2.531224692e-06
2.744566927e-06
3.122268878e-06
3.440907502e-06
3.831923694e-06
3.846404197e-06
3.692566617e-06
3.91425683e-06
4.215067647e-06
4.658121516e-06
5.577933206e-06
5.422953565e-06
4.732428671e-06
5.246880305e-06
6.042294465e-06
6.752600245e-06
7.413665413e-06
7.302806465e-06
7.151994091e-06
7.687632822e-06
8.579231227e-06
9.780678974e-06
9.110917967e-06
8.627002836e-06
1.012264316e-05
1.149706865e-05
1.276746307e-05
1.368342531e-05
1.435373534e-05
1.531127965e-05
1.620323183e-05
1.708000333e-05
1.931284968e-05
2.197620365e-05
2.261772156e-05
2.251923011e-05
2.367228256e-05
2.592775876e-05
2.821458509e-05
2.967726745e-05
3.12959041e-05
3.536943741e-05
3.845624308e-05
3.97288093e-05
4.67619723e-05
5.638409813e-05
6.374229466e-05
7.005469175e-05
8.107034636e-05
9.616761567e-05
9.070398206e-05
-5.775671953e-05
-0.0002272048521
-0.0002103720912
-0.0001528869455
-0.0002751593266
-0.0004048748313
)


100
(
1.724678887e-05
1.351881166e-05
7.808944687e-06
4.682502289e-06
2.794623997e-06
1.568121999e-06
8.33935455e-07
5.612329051e-07
4.251704032e-07
4.628102538e-07
9.124211322e-07
9.950291561e-07
1.067034134e-06
1.655613242e-06
1.768914647e-06
1.474740113e-06
1.513437211e-06
1.983182182e-06
1.81711259e-06
1.274544758e-06
1.324199139e-06
1.595595293e-06
1.644310147e-06
1.284338375e-06
1.175764002e-06
1.375573004e-06
1.582625746e-06
1.687417022e-06
1.375755256e-06
1.279318154e-06
1.603340046e-06
1.970922238e-06
2.535918935e-06
2.446976613e-06
2.190158549e-06
2.529437779e-06
2.771013821e-06
3.187971561e-06
3.30205996e-06
2.745939144e-06
2.578632781e-06
3.053483329e-06
3.540561778e-06
3.989900963e-06
3.922368359e-06
3.755382949e-06
4.266611243e-06
4.823060636e-06
5.180773619e-06
5.795014071e-06
5.830169032e-06
5.310354564e-06
5.416952828e-06
6.159428591e-06
7.101031049e-06
7.930553428e-06
7.427470176e-06
7.441530811e-06
8.775731677e-06
9.197416521e-06
1.008928312e-05
1.097194869e-05
1.030086748e-05
1.008213964e-05
1.161009097e-05
1.318727679e-05
1.378273122e-05
1.427345819e-05
1.532566564e-05
1.657542396e-05
1.769939483e-05
1.842355113e-05
1.937157871e-05
2.12020586e-05
2.398764313e-05
2.651055975e-05
2.767905477e-05
2.848675856e-05
2.923712146e-05
3.180922809e-05
3.521938589e-05
3.676062156e-05
3.862000393e-05
4.20554075e-05
4.514021632e-05
4.729759782e-05
5.33321226e-05
6.434609267e-05
7.102663409e-05
7.863661383e-05
8.977328298e-05
0.0001064181958
0.0001213289733
9.295757867e-05
-0.0001050256918
-0.0002790296134
-0.0002373016186
-0.0001827910785
-0.0003550736604
-0.0005333530129
)


100
(
1.689755202e-05
1.342104916e-05
8.069774442e-06
5.126669893e-06
3.326713943e-06
2.1448222e-06
1.437148769e-06
1.161984904e-06
1.238693552e-06
1.257318492e-06
1.473447301e-06
2.015696419e-06
2.0268028e-06
2.034158018e-06
2.563631533e-06
2.526630162e-06
2.053020953e-06
2.016423373e-06
2.37817295e-06
2.256568671e-06
1.66040749e-06
1.57163798e-06
1.840114455e-06
2.151836509e-06
1.809772915e-06
1.490418652e-06
1.822967017e-06
2.097587638e-06
2.510349497e-06
2.45884944e-06
2.200320851e-06
2.468785683e-06
2.879535207e-06
3.378008822e-06
3.826412771e-06
3.478541592e-06
3.208843912e-06
3.506747375e-06
3.875954567e-06
4.342993598e-06
4.131603968e-06
3.552381127e-06
3.879773125e-06
4.615782131e-06
5.132153417e-06
5.83542207e-06
6.054295195e-06
5.912990904e-06
6.2612543e-06
6.639613716e-06
7.265598862e-06
8.170347039e-06
7.446266953e-06
6.744968607e-06
8.173748513e-06
9.625675241e-06
1.058216761e-05
1.167407199e-05
1.131574181e-05
1.088672144e-05
1.155854215e-05
1.322348914e-05
1.515830301e-05
1.401221721e-05
1.405051768e-05
1.660909414e-05
1.839619474e-05
1.986577223e-05
2.040612414e-05
2.088929096e-05
2.230112869e-05
2.399530701e-05
2.554162041e-05
2.744642342e-05
2.95906879e-05
3.142829619e-05
3.342550536e-05
3.616997814e-05
3.999214498e-05
4.278806909e-05
4.312607382e-05
4.421668524e-05
4.88838951e-05
5.423086974e-05
5.715258051e-05
5.984557533e-05
6.626345069e-05
7.49219049e-05
8.598848257e-05
9.767085566e-05
0.000111066166
0.0001324186717
0.0001491380904
9.767953569e-05
-0.0001484971969
-0.0003258220275
-0.0002656065036
-0.0002132824039
-0.0004543137038
-0.0007007134776
)


100
(
1.648967283e-05
1.325092928e-05
8.256596592e-06
5.541166327e-06
3.843139655e-06
2.690825922e-06
2.091732322e-06
1.822574632e-06
1.923309816e-06
2.190986445e-06
2.300537893e-06
2.627904758e-06
3.073766353e-06
2.930637926e-06
2.817398644e-06
3.243773009e-06
3.138551808e-06
2.54003882e-06
2.414347415e-06
2.694463703e-06
2.724985921e-06
2.137980895e-06
1.885270532e-06
2.208812463e-06
2.543721758e-06
2.587258829e-06
2.355366611e-06
2.527520135e-06
2.963474511e-06
3.39588881e-06
3.940292341e-06
3.655094915e-06
3.335596929e-06
3.778069122e-06
4.197026717e-06
4.863317364e-06
4.797581611e-06
4.140187769e-06
4.175840444e-06
4.709782163e-06
5.193327752e-06
5.746224493e-06
5.695612461e-06
5.603457014e-06
6.230906596e-06
6.781811439e-06
7.29542042e-06
8.595248276e-06
8.514758981e-06
7.571183993e-06
8.027184165e-06
8.924376353e-06
9.901844891e-06
1.076035949e-05
1.085607537e-05
1.132214068e-05
1.263496384e-05
1.322004766e-05
1.499450366e-05
1.547995555e-05
1.374685079e-05
1.470470155e-05
1.720812443e-05
1.909573253e-05
2.091700475e-05
2.192143175e-05
2.249714992e-05
2.370401778e-05
2.505832763e-05
2.574515009e-05
2.675439151e-05
3.02405325e-05
3.389473063e-05
3.519379446e-05
3.625288806e-05
3.867229699e-05
4.12409769e-05
4.447931329e-05
4.804038688e-05
5.01814105e-05
5.230370102e-05
5.766196868e-05
6.268660745e-05
6.388238832e-05
6.771403141e-05
7.539987679e-05
8.356829266e-05
9.298672132e-05
9.879253197e-05
0.0001132083636
0.0001330325887
0.0001524631493
0.0001699726307
9.422022883e-05
-0.0001812398605
-0.0003591232916
-0.0002934294724
-0.0002427593859
-0.0005670881798
-0.0008942574879
)


100
(
1.590185332e-05
1.294623223e-05
8.398281991e-06
5.9015092e-06
4.311593833e-06
3.228035825e-06
2.696923376e-06
2.549487676e-06
2.643511755e-06
3.055808358e-06
3.304026146e-06
3.338958768e-06
3.700394827e-06
3.967332787e-06
3.638346627e-06
3.420791448e-06
3.755230972e-06
3.689743562e-06
3.020544068e-06
2.779506961e-06
3.026576097e-06
3.324527658e-06
2.797727514e-06
2.354653855e-06
2.794833832e-06
3.19485216e-06
3.788034663e-06
3.670253957e-06
3.49396196e-06
4.050777699e-06
4.469175792e-06
5.082490324e-06
5.17184434e-06
4.53226991e-06
4.449571668e-06
4.960749915e-06
5.547554054e-06
6.143710734e-06
5.810044635e-06
5.311183116e-06
5.965459375e-06
6.755584539e-06
7.39411788e-06
8.266179273e-06
8.467142818e-06
8.147335091e-06
8.460642844e-06
9.105781316e-06
1.013721124e-05
1.124271726e-05
1.036251917e-05
9.958307038e-06
1.171402334e-05
1.317656121e-05
1.398489005e-05
1.552362944e-05
1.577455748e-05
1.517328936e-05
1.638543117e-05
1.803988412e-05
1.963146411e-05
1.8898256e-05
1.977826926e-05
2.319459309e-05
2.538352194e-05
2.706899855e-05
2.77726878e-05
2.858160945e-05
3.033369334e-05
3.282912733e-05
3.625457252e-05
3.805437863e-05
3.894011255e-05
4.081981378e-05
4.257267887e-05
4.590436838e-05
5.091963561e-05
5.518073441e-05
5.842000673e-05
6.022638675e-05
6.276354146e-05
6.712360015e-05
7.183360392e-05
7.778351513e-05
8.859414859e-05
9.512750874e-05
9.571479466e-05
0.0001059045045
0.0001188478682
0.0001335957801
0.0001662532878
0.0001818327668
0.0001853830341
7.159927647e-05
-0.0002306791868
-0.0003836331935
-0.0003159857078
-0.0002723055577
-0.0006877340209
-0.001104531011
)


100
(
1.520728937e-05
1.25505525e-05
8.474713986e-06
6.196354667e-06
4.73742716e-06
3.76014679e-06
3.269385186e-06
3.296538985e-06
3.453510875e-06
3.724768948e-06
4.337260481e-06
4.362575243e-06
4.184921819e-06
4.577651234e-06
4.689764047e-06
4.205050628e-06
3.94109518e-06
4.188916469e-06
4.238916539e-06
3.572329589e-06
3.197495709e-06
3.497517469e-06
3.821012802e-06
3.756229274e-06
3.452065822e-06
3.701477495e-06
4.251358057e-06
4.830480952e-06
5.310757216e-06
5.133182754e-06
5.071295508e-06
5.445834151e-06
5.907675082e-06
6.596099159e-06
5.925976717e-06
5.128096754e-06
5.828962228e-06
6.620530015e-06
7.242005011e-06
8.154427461e-06
8.111938828e-06
7.86147729e-06
8.577660535e-06
9.180667842e-06
1.020622527e-05
1.18892612e-05
1.107402517e-05
9.749466997e-06
1.098632577e-05
1.239972405e-05
1.361546142e-05
1.491493047e-05
1.499774672e-05
1.503295654e-05
1.614515774e-05
1.766923446e-05
2.016380818e-05
1.978987843e-05
1.786660185e-05
2.00020548e-05
2.291463811e-05
2.491409577e-05
2.707107148e-05
2.869073402e-05
2.965158456e-05
3.08350667e-05
3.276441246e-05
3.393900881e-05
3.585603473e-05
4.016891352e-05
4.391805401e-05
4.538345629e-05
4.65347859e-05
4.903642345e-05
5.378701388e-05
5.699592788e-05
5.834943188e-05
6.110777549e-05
6.534534874e-05
7.201858769e-05
7.900889906e-05
8.078662296e-05
8.07655376e-05
9.03423744e-05
0.0001025109094