/*--------------------------------*- C++ -*----------------------------------*\
| =========                 |                                                 |
| \\      /  F ield         | OpenFOAM: The Open Source CFD Toolbox           |
|  \\    /   O peration     | Version:  2.3.1                                 |
|   \\  /    A nd           | Web:      www.OpenFOAM.org                      |
|    \\/     M anipulation  |                                                 |
\*---------------------------------------------------------------------------*/
FoamFile
{
    version     2.0;
    format      ascii;
    class       dictionary;
    location    "constant";
    object      GRPSI2;
}
// * * * * * * * * * * * * * * * * * * * * * * * * * * * * * * * * * * * * * //

GRPSI2_table
100
(
100{0}
100{0}
100{0}
100{0}
100{0}
100{0}
100{0}
100{0}
100{0}
100{0}
100{0}
100{0}
100{0}
100{0}
100{0}
100{0}
100{0}
100{0}
100{0}
100{0}
100{0}
100{0}
100{0}
100{0}
100{0}
100{0}
100{0}
100{0}
100{0}
100{0}
100{0}
100{0}
100{0}
100{0}
100{0}
100{0}
100{0}
100{0}
100{0}
100{0}
100{0}
100{0}
100{0}
100{0}
100{0}
100{0}
100{0}
100{0}
100{0}
100{0}
100{0}
100{0}
100{0}
100{0}
100{0}
100{0}
100{0}
100{0}
100{0}
100{0}
100{0}
100{0}
100{0}
100{0}
100{0}
100{0}
100{0}
100{0}
100{0}
100{0}
100{0}
100{0}
100{0}
100{0}
100{0}
100{0}
100{0}
100{0}
100{0}
100{0}
100{0}
100{0}
100{0}
100{0}
100{0}
100{0}
100{0}
100{0}
100{0}
100{0}
100{0}
100{0}
100{0}
100{0}
100{0}
100{0}
100{0}
100{0}

100
(
0
0
0
9.997165762e-09
0
0
-9.968061931e-10
0
0
0
0
0
0
0
0
0
0
0
0
0
0
0
0
0
0
0
0
0
0
0
0
0
0
0
0
0
0
0
0
0
0
0
0
0
0
0
0
0
0
0
0
0
0
0
0
0
0
0
0
0
0
0
0
0
0
0
0
0
0
0
0
0
0
0
0
0
0
0
0
0
0
0
0
0
0
0
0
0
0
0
0
0
0
0
0
0
0
0
0
0
)


100
(
0
0
0
1.999433152e-08
0
0
-1.993612386e-09
0
0
0
0
0
0
0
0
0
0
0
0
0
0
0
0
0
0
0
0
0
0
0
0
0
0
0
0
0
0
0
0
0
0
0
0
0
0
0
0
0
0
0
0
0
0
0
0
0
0
0
0
0
0
0
0
0
0
0
0
0
0
0
0
0
0
0
0
0
0
0
0
0
0
0
0
0
0
0
0
0
0
0
0
0
0
0
0
0
0
0
0
0
)

)
;