/*--------------------------------*- C++ -*----------------------------------*\
| =========                 |                                                 |
| \\      /  F ield         | OpenFOAM: The Open Source CFD Toolbox           |
|  \\    /   O peration     | Version:  2.3.1                                 |
|   \\  /    A nd           | Web:      www.OpenFOAM.org                      |
|    \\/     M anipulation  |                                                 |
\*---------------------------------------------------------------------------*/
FoamFile
{
    version     2.0;
    format      ascii;
    class       dictionary;
    location    "constant";
    object      GRPSI25;
}
// * * * * * * * * * * * * * * * * * * * * * * * * * * * * * * * * * * * * * //

GRPSI25_table
100
(

100
(
-0.1536682149
-0.1285918843
-0.09106509052
-0.07286848602
-0.0630048271
-0.05575514774
-0.05029466544
-0.04630456543
-0.0433979063
-0.04100770504
-0.03879514286
-0.03673874271
-0.03483850461
-0.03309442855
-0.03150651453
-0.03007476255
-0.02879917262
-0.02767974472
-0.02671647886
-0.02590455811
-0.02519870455
-0.02453822893
-0.02390275301
-0.02329212684
-0.02270635043
-0.02214542378
-0.02160934688
-0.02109811973
-0.02061174234
-0.0201502147
-0.01971310881
-0.01929435318
-0.01888431888
-0.0184789367
-0.01807812287
-0.0176818774
-0.01729020028
-0.01690309151
-0.01652057606
-0.01614420308
-0.01577787465
-0.01542417501
-0.0150833105
-0.01475528112
-0.01444008688
-0.01413772777
-0.0138482038
-0.01357151497
-0.01330766127
-0.01305664271
-0.01281845025
-0.0125912192
-0.01236898217
-0.01214707549
-0.01192494721
-0.01170259733
-0.01148002586
-0.0112572328
-0.01103421813
-0.01081098187
-0.01058752402
-0.01036384456
-0.01013995605
-0.009916161834
-0.009693045049
-0.009470910802
-0.009249771917
-0.009029628394
-0.008810480231
-0.00859232743
-0.00837516999
-0.008159007912
-0.007943841195
-0.00772966984
-0.007516493845
-0.007304310505
-0.007092646428
-0.006880027449
-0.006665321259
-0.00644839903
-0.006229260763
-0.006007906458
-0.005784336114
-0.005558549733
-0.005330547313
-0.005100328855
-0.004867894359
-0.004633243825
-0.004396377252
-0.004157294641
-0.003915995992
-0.003672481305
-0.00342675058
-0.003178803816
-0.002928641014
-0.002676262174
-0.002421667296
-0.00216485638
-0.001905829425
-0.001775761938
)


100
(
-0.1519540197
-0.1269425287
-0.08975061338
-0.07210996206
-0.06269789491
-0.05485769729
-0.04975797625
-0.04602254087
-0.04288423172
-0.04094940456
-0.03829591248
-0.03638168509
-0.03455114624
-0.03248573779
-0.03131218882
-0.0300412238
-0.02809412492
-0.02732299639
-0.02690522485
-0.02542322268
-0.02465224881
-0.02453303371
-0.02385786064
-0.02269514539
-0.02238867433
-0.02229885986
-0.02144485301
-0.02041627897
-0.02031882542
-0.02039919985
-0.01958855786
-0.01880153798
-0.01863954555
-0.01856908801
-0.01798186556
-0.0172592909
-0.01684674541
-0.01694752715
-0.01664437792
-0.01588953085
-0.01533596723
-0.01533004589
-0.01518481574
-0.01459529544
-0.01408177583
-0.01399511878
-0.01393268846
-0.0134778042
-0.01296441107
-0.01275244799
-0.0128695471
-0.01264463764
-0.01214021432
-0.01188627383
-0.01189974633
-0.01171747558
-0.0113133907
-0.01108039648
-0.01098500968
-0.01092700837
-0.01039518427
-0.009914796516
-0.01022313832
-0.01020540749
-0.009414427916
-0.008990869683
-0.009528862741
-0.009198955689
-0.00837063869
-0.008475245666
-0.008624944316
-0.008029014609
-0.007550515886
-0.007929900044
-0.00766102344
-0.006888580041
-0.007106960713
-0.007103792366
-0.006346577968
-0.006474897899
-0.006321602883
-0.005794086941
-0.005909137385
-0.005474223662
-0.005241895587
-0.005210869456
-0.004773084638
-0.00465589051
-0.004401840328
-0.004131487516
-0.003944438741
-0.003680666467
-0.003444848429
-0.003189649669
-0.002952273707
-0.002698882491
-0.002462219672
-0.002215879867
-0.002020290445
-0.001950515587
)


100
(
-0.1500673121
-0.1251773773
-0.08835221277
-0.07171682628
-0.06231194513
-0.05456655195
-0.04917306808
-0.04545541285
-0.04232090836
-0.04024923242
-0.03817225709
-0.03583315586
-0.03441953244
-0.03222307032
-0.03056433799
-0.02983288707
-0.02839852608
-0.0265592847
-0.0261962192
-0.02591282999
-0.0244729512
-0.02367571389
-0.0236383182
-0.02311688802
-0.02198155108
-0.02151104667
-0.02144134406
-0.02085048617
-0.01993469065
-0.01944457422
-0.01952224396
-0.01918569278
-0.01839185371
-0.0178750996
-0.01780112445
-0.01756527705
-0.01693417742
-0.01625751768
-0.01599087005
-0.01607731304
-0.01569415491
-0.01502370452
-0.01446119116
-0.01448299647
-0.01444137141
-0.01386882914
-0.01341987588
-0.01325812784
-0.01321038995
-0.01289252076
-0.01249616693
-0.01207507556
-0.01213656224
-0.01220299754
-0.0118541702
-0.0112047448
-0.0111684663
-0.01135460225
-0.01095141717
-0.01042595018
-0.01049313106
-0.01032186653
-0.009597048888
-0.009721749634
-0.00988373341
-0.009319588472
-0.008656974227
-0.009051547716
-0.008939002874
-0.008247098668
-0.008034969804
-0.008153400067
-0.007986925752
-0.007403382498
-0.007303033351
-0.007524379942
-0.007087727176
-0.006458157611
-0.00665144984
-0.006424704517
-0.006192050119
-0.005874984949
-0.00572294985
-0.00568072455
-0.005135172707
-0.005094758838
-0.004902331598
-0.004564324641
-0.00440521111
-0.004180304184
-0.003924862988
-0.003680833661
-0.003450377051
-0.00321190291
-0.002963410011
-0.002716687201
-0.002465666422
-0.002325271533
-0.002168173304
-0.002036601362
)


100
(
-0.1481183247
-0.1233045466
-0.0876054317
-0.0712232032
-0.0610714566
-0.05418514671
-0.04863236545
-0.04486439158
-0.04239311835
-0.0396218774
-0.037891821
-0.03532902883
-0.03371619062
-0.03252692258
-0.03018228709
-0.02893466286
-0.02836443787
-0.02697594892
-0.02529726754
-0.02510596461
-0.02501496516
-0.02370341719
-0.02271191036
-0.02266395555
-0.02242705825
-0.02137273452
-0.02061983568
-0.02054372473
-0.02031533561
-0.01950877464
-0.01869265924
-0.01861246265
-0.01867610954
-0.01802430921
-0.01735439871
-0.01700825292
-0.01692753405
-0.01657236516
-0.01597113296
-0.01535523851
-0.0150563425
-0.01517470495
-0.01493660168
-0.01442740089
-0.01371390166
-0.01367464525
-0.01381911144
-0.01339315273
-0.01255337524
-0.01247900701
-0.01283025073
-0.01241424845
-0.01169474697
-0.01154066884
-0.01199697368
-0.01176726944
-0.01074790686
-0.01050030751
-0.01116921391
-0.01074029261
-0.009909503137
-0.01006741993
-0.01006748234
-0.009494791728
-0.009315908163
-0.009355519927
-0.009113253287
-0.008651796613
-0.008446300011
-0.008438598147
-0.008324555175
-0.008005435008
-0.007734862054
-0.007432670692
-0.007295029023
-0.007481578894
-0.006993347523
-0.006273616185
-0.006764116411
-0.006605638564
-0.005833843698
-0.005969375566
-0.005792166634
-0.005390517431
-0.005268834054
-0.005084538544
-0.00486314416
-0.004612077937
-0.004374751675
-0.004154492753
-0.003932805492
-0.003697888339
-0.003447776879
-0.003219849789
-0.003001242722
-0.002775065009
-0.002446567828
-0.002349991183
-0.002339767874
-0.002197345302
)


100
(
-0.1466271173
-0.121976711
-0.08642938186
-0.07003485507
-0.06065088398
-0.05371132036
-0.04828467006
-0.04421486652
-0.04176709964
-0.03910457701
-0.03717261289
-0.03570908096
-0.03306022602
-0.03178417655
-0.03060359139
-0.02844768679
-0.02742973616
-0.02700228268
-0.02579896564
-0.02433427942
-0.02406592808
-0.0240437264
-0.02300805156
-0.02186300993
-0.02166406458
-0.02164574278
-0.02080186136
-0.0199315589
-0.01965076414
-0.01961065437
-0.01906387844
-0.01834030198
-0.01767130896
-0.01779013632
-0.01780350396
-0.01716638782
-0.01629458875
-0.01614367249
-0.01626193353
-0.01563129042
-0.01505469326
-0.01444141787
-0.01457510751
-0.01472113263
-0.01409675538
-0.01282606222
-0.01304609601
-0.01379854174
-0.01299240677
-0.01194069281
-0.01204713291
-0.01264110079
-0.01205536296
-0.01125852687
-0.01132308461
-0.01182842591
-0.01113747511
-0.0103183223
-0.0104046766
-0.01063267669
-0.01035150371
-0.009789473346
-0.009638513582
-0.009691251086
-0.009518679297
-0.009214631779
-0.008832579725
-0.008675406657
-0.008636101599
-0.008345474448
-0.008062000073
-0.007754883545
-0.007718552615
-0.007868258639
-0.007291818711
-0.006633853264
-0.006992434237
-0.006992662819
-0.006397617015
-0.006150720243
-0.006027879675
-0.005979289504
-0.005780840488
-0.005446749719
-0.005280789163
-0.005032462457
-0.004778597169
-0.004596237734
-0.004418240933
-0.004176467744
-0.003870058777
-0.003704953467
-0.003483978542
-0.003236721232
-0.003027131194
-0.002798144931
-0.00255117078
-0.002398445701
-0.002378678114
-0.00237452056
)


100
(
-0.1449197032
-0.1205021613
-0.0852487382
-0.06889578595
-0.06014928222
-0.05310321414
-0.0478160656
-0.04390582152
-0.04111395905
-0.03929578005
-0.03648227283
-0.03493687193
-0.03334950334
-0.03107964298
-0.03001762544
-0.02885423901
-0.02694500041
-0.02605063092
-0.02577466241
-0.02481625943
-0.02352321727
-0.02305458963
-0.02306337765
-0.02233902591
-0.02122653236
-0.02061908586
-0.02059833045
-0.02030089308
-0.01963366917
-0.01892028632
-0.01882954979
-0.01873823321
-0.01807476561
-0.0170161342
-0.01704972508
-0.01743595311
-0.01692363875
-0.01538601674
-0.01515054471
-0.01593056008
-0.01531252682
-0.01434206043
-0.01376660841
-0.01437257542
-0.01459243406
-0.01333744818
-0.01199858067
-0.01296012482
-0.01362102685
-0.01238049913
-0.01156085936
-0.01189349058
-0.01216045344
-0.01159848147
-0.0110873303
-0.0110975507
-0.01092892323
-0.01070599739
-0.01065986768
-0.01023984514
-0.009934327411
-0.01004792392
-0.009993240866
-0.009518644893
-0.009051676154
-0.008931343443
-0.009015016152
-0.008746736667
-0.008383562382
-0.008087209059
-0.008023013753
-0.008007531494
-0.007744867612
-0.007285831809
-0.007346318894
-0.007186168888
-0.006676021738
-0.006537685237
-0.006395942785
-0.006440235723
-0.006231152937
-0.005710718763
-0.005572713989
-0.005523222131
-0.005218273287
-0.005061406734
-0.004825414149
-0.00457756387
-0.004328047344
-0.004134126603
-0.00396945152
-0.003713170462
-0.003475134874
-0.003261264594
-0.003029398688
-0.002785000498
-0.002592016155
-0.002482183597
-0.002500457977
-0.002555488722
)


100
(
-0.1430460346
-0.1189200809
-0.0840174628
-0.06843875642
-0.05958750013
-0.05243362556
-0.04728513442
-0.04362127559
-0.04039579219
-0.03858623073
-0.03667804061
-0.03420970359
-0.03292900706
-0.03116873152
-0.02927415675
-0.02841030871
-0.02732900312
-0.02565064254
-0.02481085247
-0.0246809701
-0.02397870808
-0.02279555983
-0.02206114269
-0.02209078257
-0.02170402653
-0.02056916039
-0.02000076466
-0.02006393719
-0.01980706321
-0.01900752763
-0.01798232649
-0.01807859901
-0.01834111568
-0.01743066035
-0.01624357455
-0.01655367411
-0.0171941293
-0.0161255315
-0.01454467816
-0.01481738037
-0.0156126343
-0.01476148319
-0.01369360178
-0.01344937599
-0.01429444755
-0.01375908877
-0.01254702893
-0.0120596592
-0.0127245876
-0.01280452982
-0.0118049579
-0.01154059276
-0.01143066534
-0.01166164894
-0.01155306569
-0.0111655136
-0.0107771828
-0.01048457487
-0.0105016676
-0.01043056481
-0.01006312857
-0.009671571337
-0.009266817135
-0.00938474393
-0.009431205479
-0.008932347483
-0.008749159446
-0.008462728631
-0.008363297261
-0.008443392372
-0.008121513708
-0.00764320929
-0.007449636434
-0.007471858374
-0.007142328059
-0.006969844961
-0.006849469801
-0.0066936842
-0.006541435397
-0.006109901709
-0.005952659043
-0.005888882615
-0.005638364266
-0.005426698079
-0.00522164037
-0.004965189539
-0.004787528559
-0.004631715953
-0.004369803592
-0.004113404704
-0.003942864289
-0.003742443931
-0.003492325679
-0.003280103864
-0.00307308746
-0.002704398366
-0.002538211976
-0.002600071929
-0.002661564416
-0.002754029725
)


100
(
-0.1409550997
-0.1172143837
-0.08310507032
-0.06789915255
-0.05863076549
-0.05192490717
-0.04669893694
-0.04306883171
-0.04052153114
-0.03785681794
-0.03631017015
-0.03400907331
-0.03214460867
-0.03109416126
-0.02925340224
-0.02763695618
-0.0269539418
-0.02600933296
-0.02456221948
-0.02371636801
-0.02366871821
-0.02321167772
-0.02210557532
-0.02109533908
-0.02113346293
-0.02106668604
-0.01987938468
-0.01941594944
-0.01953628019
-0.01936403382
-0.01797478209
-0.0170872291
-0.01787663473
-0.01800548406
-0.01659021253
-0.0154791112
-0.01636238056
-0.01681871313
-0.01525722835
-0.01389073157
-0.01454593306
-0.01515687172
-0.01414710219
-0.01322645199
-0.0133396458
-0.01353066748
-0.01289091948
-0.01227158726
-0.01203629212
-0.01205408768
-0.01224870015
-0.01208484349
-0.01175562644
-0.01127398225
-0.01067096326
-0.0109293936
-0.01116346514
-0.01063407729
-0.01021770939
-0.009886579989
-0.009944901421
-0.009865067342
-0.009411326284
-0.009268872877
-0.009047155354
-0.00877805684
-0.008858983231
-0.00887134092
-0.008301808605
-0.007731749201
-0.007819061108
-0.007804486477
-0.007546124614
-0.007399605913
-0.007095953304
-0.007086791753
-0.006913519158
-0.006379027602
-0.006249471164
-0.006265634589
-0.006076161825
-0.005823755421
-0.005611329478
-0.005367954968
-0.005140639523
-0.004980804013
-0.004774385379
-0.004592923237
-0.004367728841
-0.004077020353
-0.003940948675
-0.003764663076
-0.003524268517
-0.0033025917
-0.003080934566
-0.002748351223
-0.002572003585
-0.002628031868
-0.002805864537
-0.002983139527
)


100
(
-0.1388714505
-0.1156316395
-0.08231897173
-0.0670881747
-0.05794898702
-0.0513472122
-0.04634885627
-0.04246617449
-0.04004510907
-0.03739924364
-0.03554279389
-0.03423239762
-0.03165394338
-0.03026185721
-0.02941096699
-0.02759555129
-0.0261470795
-0.02559495462
-0.02489215198
-0.02367230075
-0.02269289103
-0.02267188751
-0.02248697834
-0.02144098743
-0.02039295089
-0.02018573604
-0.02022557968
-0.0192693133
-0.01888230674
-0.01911842144
-0.01869914227
-0.01701778651
-0.01651600361
-0.017656321
-0.01728494717
-0.01579803417
-0.01515782047
-0.01621394028
-0.01590030584
-0.01437449453
-0.01376974906
-0.01421273285
-0.01436048832
-0.01349202149
-0.0130282618
-0.01278461744
-0.01287163239
-0.01278519566
-0.01242896606
-0.0120874971
-0.01161064961
-0.01138390009
-0.01162781312
-0.01164694001
-0.01109371159
-0.01058350952
-0.01024513324
-0.01031832416
-0.01044831608
-0.01004352463
-0.009861346171
-0.009665536565
-0.009332329987
-0.009309433801
-0.009224867829
-0.008833360981
-0.008394947577
-0.008271747182
-0.008358082732
-0.008062306511
-0.007860570402
-0.007583310447
-0.007401941985
-0.007629980161
-0.007168309506
-0.006571508229
-0.006582248814
-0.006656099939
-0.006447290205
-0.006169342062
-0.005958285567
-0.005729656117
-0.005540489224
-0.005394553959
-0.005209313752
-0.00496805147
-0.004778029945
-0.004545917935
-0.004320427361
-0.004204456515
-0.00398014808
-0.00372804493
-0.003487030498
-0.003286222025
-0.003090928138
-0.002771234025
-0.002571146271
-0.002664959274
-0.002964220713
-0.003159547568
)


100
(
-0.1371248009
-0.1142251659
-0.08122386086
-0.06594351801
-0.0574611425
-0.05071978462
-0.04578566483
-0.04204830054
-0.03942375152
-0.0376152512
-0.03473961542
-0.03341516194
-0.03219138606
-0.02959919147
-0.02854745367
-0.02786622707
-0.02613563884
-0.02478315646
-0.02440618608
-0.02395556236
-0.02287907166
-0.02170524434
-0.02167487248
-0.02178467974
-0.02081275076
-0.01985212358
-0.01925001634
-0.01929999955
-0.01876013671
-0.01846813664
-0.01884422261
-0.01768293739
-0.01607225354
-0.01633246749
-0.01736146992
-0.01646613468
-0.01506810578
-0.01501083477
-0.01548739699
-0.01493861258
-0.01393444982
-0.01347881581
-0.01349617265
-0.01385630652
-0.01357357587
-0.01310421656
-0.0125783394
-0.01202292895
-0.01213581148
-0.01222892802
-0.01182448926
-0.01145176121
-0.01107536676
-0.01085480793
-0.01110699174
-0.01095755818
-0.01038787295
-0.01024180057
-0.009994776018
-0.009774534421
-0.009934116799
-0.009925291315
-0.009381028084
-0.008832274519
-0.008740367761
-0.00884838372
-0.00857240996
-0.008302251751
-0.008193669432
-0.007897190138
-0.007925369658
-0.007843159438
-0.007294170008
-0.006918200491
-0.006989186812
-0.007022878101
-0.00674505357
-0.006500014348
-0.00630606749
-0.006065737684
-0.005854992731
-0.005781396416
-0.005660111533
-0.005360000263
-0.00510455879
-0.004932003203
-0.004660265495
-0.004512534667
-0.004393802959
-0.004149890363
-0.003982860683
-0.003798157862
-0.003535108423
-0.00340337382
-0.00310117542
-0.002671778551
-0.002620997181
-0.002743743299
-0.00306803664
-0.003332367764
)


100
(
-0.1352146038
-0.1126986147
-0.08009153496
-0.06527586667
-0.05690203203
-0.0501003785
-0.04518510068
-0.04180776398
-0.03876331524
-0.03695122611
-0.03506047589
-0.03257802992
-0.03146898531
-0.03013307398
-0.02780267812
-0.02697748549
-0.02645536488
-0.02490605398
-0.02355256039
-0.02329294352
-0.02313956446
-0.02213450086
-0.02102786041
-0.02068962674
-0.02082632823
-0.02024014797
-0.01934083585
-0.0184313823
-0.01840659221
-0.01822848908
-0.0181687426
-0.01817435433
-0.0167561613
-0.01562905409
-0.01612080857
-0.01651594666
-0.01561741937
-0.0148107986
-0.01451756327
-0.0145190537
-0.01444877838
-0.01411640018
-0.01368240086
-0.01298102882
-0.01280043698
-0.01309983648
-0.01290126096
-0.01232204718
-0.01176702291
-0.01138713601
-0.01157606076
-0.01170155514
-0.01124228354
-0.01090036479
-0.01068298536
-0.01037899686
-0.01046273317
-0.01055961161
-0.01020094539
-0.009795997001
-0.00928215959
-0.009261554254
-0.009534429385
-0.009151494423
-0.008575021118
-0.008593959757
-0.008507979111
-0.00843507723
-0.008497101029
-0.007862523388
-0.007212410003
-0.007441259805
-0.007515719174
-0.007229617879
-0.007029663879
-0.006804057993
-0.00664305542
-0.006376033862
-0.006184823386
-0.006143368092
-0.006011259004
-0.005751576717
-0.005502126034
-0.005289190755
-0.005077233058
-0.00494444926
-0.004829057366
-0.004554053998
-0.004308615588
-0.004166727231
-0.003985335165
-0.003755129505
-0.003592304542
-0.003393507578
-0.003045950735
-0.002782686863
-0.00262842783
-0.002718910118
-0.003178192212
-0.003448107323
)


100
(
-0.1332024685
-0.1110716122
-0.07894564452
-0.06469078259
-0.05623462969
-0.04960871602
-0.04453746564
-0.04118805623
-0.03877749291
-0.03626854054
-0.03471254807
-0.03258574628
-0.03060690803
-0.0297081442
-0.02834062093
-0.02616401921
-0.025490793
-0.02520495561
-0.02386564328
-0.02246112117
-0.02226925312
-0.02237032248
-0.02141579875
-0.02040791295
-0.01973092055
-0.01987507513
-0.01970641829
-0.01883072841
-0.01801500722
-0.01745441429
-0.01738962526
-0.01809312159
-0.01727992172
-0.01582343237
-0.01543216784
-0.0154785941
-0.01558848727
-0.01524526352
-0.01491606855
-0.0142474335
-0.01388542532
-0.01394824176
-0.0137335148
-0.013299497
-0.01274355725
-0.01212269989
-0.01219475153
-0.01258736685
-0.0121354239
-0.01151619355
-0.01125207923
-0.01088423578
-0.01099631647
-0.01123952491
-0.01097829527
-0.01072405094
-0.01015074979
-0.009589923893
-0.0099633304
-0.01011997196
-0.009551297012
-0.009105831349
-0.008856832034
-0.008894303479
-0.009078470177
-0.008978172658
-0.008402171479
-0.007729027527
-0.008122229147
-0.008114174938
-0.007425823489
-0.007405114625
-0.007304304586
-0.007100200166
-0.006864931473
-0.006639071641
-0.006605270635
-0.006602242887
-0.006394225216
-0.006084549972
-0.005792371673
-0.005562581641
-0.005439277024
-0.005385422593
-0.005186584595
-0.004939848748
-0.004668646261
-0.004508237274
-0.004403499295
-0.004141831919
-0.003998951373
-0.003815714605
-0.003580550453
-0.003318377625
-0.002809392938
-0.002764288418
-0.002895247792
-0.00286822646
-0.003305233362
-0.003616970825
)


100
(
-0.1310564107
-0.1093482536
-0.07824048716
-0.06405606811
-0.05534920543
-0.04905246606
-0.04428526794
-0.04053850544
-0.03830151644
-0.03586263459
-0.03400086643
-0.03267588228
-0.03041002465
-0.02879436821
-0.02805349459
-0.02673859745
-0.02473459566
-0.02413445894
-0.02406966274
-0.02295973482
-0.02169006967
-0.02131096273
-0.02141866029
-0.02075641861
-0.01981953387
-0.01888851472
-0.01891679774
-0.01908300432
-0.01836057096
-0.01761228664
-0.01682884906
-0.01665715297
-0.01709622804
-0.01642075691
-0.01552554632
-0.0154088818
-0.0149678188
-0.01502423219
-0.01509275209
-0.01450138363
-0.01386952543
-0.01313978454
-0.01310888297
-0.01334051103
-0.01300798599
-0.01246352845
-0.01200560553
-0.01157775052
-0.01156236006
-0.01164599911
-0.01154422788
-0.01145306671
-0.01108176846
-0.01027747656
-0.01037272318
-0.01091007171
-0.01046599369
-0.009883164814
-0.009484657684
-0.009156133017
-0.009366782523
-0.009692587972
-0.009478679888
-0.008918399349
-0.00813865998
-0.008523523134
-0.008805544841
-0.008058576294
-0.0076613181
-0.007658052164
-0.007696268557
-0.00752469897
-0.007277572007
-0.007071995151
-0.006941259513
-0.006761446518
-0.006462451479
-0.006288117533
-0.006146855073
-0.005875532041
-0.005848432176
-0.005840837732
-0.005587662959
-0.00518426306
-0.004885329959
-0.004943122484
-0.004877308382
-0.004519346899
-0.004250704956
-0.004108175486
-0.003970327363
-0.003772415737
-0.003504067174
-0.003296550771
-0.002927758418
-0.002568661715
-0.002975474806
-0.003261172181
-0.00343746585
-0.003788564827
)


100
(
-0.1289871569
-0.107860518
-0.07734912722
-0.06305337017
-0.05482122916
-0.04843807186
-0.04374589425
-0.04006075245
-0.03763566415
-0.03597039701
-0.03329379385
-0.03194231453
-0.0307795763
-0.02843395542
-0.02709920088
-0.02654463287
-0.02534584372
-0.02351720242
-0.02290887737
-0.02303359377
-0.0221790007
-0.02099442094
-0.02036172219
-0.02047149006
-0.0201446505
-0.01924213964
-0.01841136824
-0.01794646239
-0.01811437582
-0.01793063681
-0.01718711437
-0.01652508144
-0.01584548243
-0.01598638234
-0.01619216054
-0.0156607284
-0.01515610603
-0.0143971975
-0.01397886689
-0.01429833309
-0.01426704618
-0.01355833626
-0.01288994843
-0.01243869186
-0.01250195635
-0.01261769199
-0.0121674671
-0.01173423305
-0.01158613317
-0.01120652271
-0.01109264618
-0.01138238728
-0.01128882623
-0.01074085249
-0.01009331266
-0.009665515169
-0.01014687052
-0.01022184152
-0.009538630528
-0.009692400241
-0.009396443824
-0.008862195999
-0.009226080075
-0.009327987547
-0.008539959294
-0.007920368705
-0.007883104317
-0.00813158137
-0.00814180548
-0.007839353007
-0.007562217685
-0.007393400688
-0.007195067184
-0.006948629748
-0.006791551595
-0.006561325397
-0.006451060169
-0.006345029075
-0.006214410685
-0.006162120534
-0.005851209255
-0.005479215451
-0.005176016244
-0.005280657357
-0.005416431247
-0.004899788603
-0.004515666105
-0.004455651657
-0.004367363346
-0.004252211122
-0.004024357664
-0.00376153269
-0.003726718874
-0.003298863218
-0.002662125884
-0.002605543383
-0.002967919108
-0.003204187626
-0.003566234932
-0.003992832972
)


100
(
-0.1270386592
-0.1063407975
-0.07630077276
-0.0622267675
-0.05421709868
-0.04786897205
-0.04316425762
-0.03991276976
-0.03693757832
-0.03527175853
-0.03362398188
-0.03119700209
-0.03000609304
-0.02883234561
-0.02667440156
-0.02553297787
-0.02517467429
-0.02411043307
-0.02250067686
-0.02184349701
-0.02205322769
-0.02147006811
-0.02034852566
-0.01940682971
-0.01951540195
-0.01956297305
-0.01868910798
-0.01794461213
-0.01720390006
-0.01712224483
-0.01725662572
-0.01687389156
-0.01637415901
-0.01570385926
-0.01509050758
-0.01526106896
-0.01535461938
-0.01479215978
-0.01408838519
-0.0133523607
-0.01334686776
-0.01373658005
-0.01331366172
-0.01259670301
-0.01222025446
-0.01178861298
-0.01183698972
-0.01207598233
-0.01182227615
-0.01148586145
-0.01095970242
-0.01030810586
-0.01071795
-0.01119577005
-0.01044647065
-0.009823199672
-0.009562897054
-0.009405792711
-0.009861878969
-0.01003331049
-0.009699221675
-0.008925985025
-0.008086123731
-0.008778670375
-0.008924196114
-0.008194478305
-0.008146655341
-0.007951012104
-0.007773918813
-0.007623174482
-0.007330800226
-0.00710531719
-0.007193955591
-0.007227069838
-0.006974660122
-0.006723807327
-0.006416605506
-0.006153475586
-0.005995930816
-0.005764969551
-0.005791264746
-0.005760878401
-0.005587487031
-0.005269491592
-0.004746792199
-0.004827178465
-0.004905415652
-0.004606626976
-0.004288394236
-0.004113835906
-0.003967721731
-0.003991819708
-0.00363604593
-0.002856887565
-0.002835926723
-0.00295718313
-0.002964181279
-0.003183332655
-0.003703047399
-0.004116233425
)


100
(
-0.1250062143
-0.1047505693
-0.07519589395
-0.06163802902
-0.0535624714
-0.04732429459
-0.04253591692
-0.03932095227
-0.03693344492
-0.03458111491
-0.0331655222
-0.03131741848
-0.02921348316
-0.0282121852
-0.02711418256
-0.02514104325
-0.02409104258
-0.02391148294
-0.02305950682
-0.02166456521
-0.02084997594
-0.02107456982
-0.02081406032
-0.01972702104
-0.0188449082
-0.01855199411
-0.01861328226
-0.01817484034
-0.01745307851
-0.01684656545
-0.01627982642
-0.01647195647
-0.01660617551
-0.01600285058
-0.01535756329
-0.01447977438
-0.01433485036
-0.01474543784
-0.01449593566
-0.01377219699
-0.01314939685
-0.01264470937
-0.01271618547
-0.01278661182
-0.01242775989
-0.01224915014
-0.0119700235
-0.01117620679
-0.0111643257
-0.01162465414
-0.01128428096
-0.01073161885
-0.01024189083
-0.01001199422
-0.01020925963
-0.01027596773
-0.01006997355
-0.009974218021
-0.009235489834
-0.009014459956
-0.009657703144
-0.009328432445
-0.008524366035
-0.008122037412
-0.008104040883
-0.008324045423
-0.008294568159
-0.008049194769
-0.00776735819
-0.007663583938
-0.007535587683
-0.007263878272
-0.006985314872
-0.006794552756
-0.00662503143
-0.006333017093
-0.006365003949
-0.006519291057
-0.006353655381
-0.005999023347
-0.005537203805
-0.005312562815
-0.00530933009
-0.00539397184
-0.005229898825
-0.004803708463
-0.004620233486
-0.004544956973
-0.004409514432
-0.004093858949
-0.003867926736
-0.003706163461
-0.003641828382
-0.003318690918
-0.002868629137
-0.002927288906
-0.002978910571
-0.003148807287
-0.003840104309
-0.004327009055
)


100
(
-0.1229108269
-0.1030967931
-0.07430164091
-0.06098198511
-0.05275605605
-0.04672717312
-0.04228455016
-0.03869451589
-0.03652596587
-0.03427700904
-0.03243584333
-0.03115871727
-0.02919268564
-0.02738779054
-0.02659721987
-0.02560327566
-0.02381634677
-0.02276915307
-0.02275229456
-0.02218775342
-0.02094971991
-0.0198690695
-0.02007437295
-0.02017175494
-0.0191358829
-0.01834018988
-0.01758334994
-0.01761644612
-0.01774989824
-0.01717052936
-0.01659266326
-0.01581679337
-0.01551620269
-0.015835473
-0.0157028502
-0.014994422
-0.01420447283
-0.01357930239
-0.01376707089
-0.01404695416
-0.01346399446
-0.01283895333
-0.012434175
-0.01210621581
-0.01213668241
-0.01231007317
-0.01210801535
-0.01163934099
-0.01097485052
-0.01041416381
-0.01088022511
-0.01112890245
-0.01046295157
-0.010049778
-0.01010692071
-0.00985431981
-0.009827037529
-0.01006822551
-0.00959216516
-0.00898392291
-0.008532839094
-0.008970142396
-0.008965593069
-0.00850674215
-0.008452646263
-0.008131921757
-0.007980950889
-0.007819873562
-0.007567039605
-0.00733876396
-0.007171624819
-0.007240303832
-0.007204278596
-0.006947980379
-0.006780976362
-0.006601063602
-0.006412439602
-0.00607388398
-0.005695718579
-0.005726632375
-0.005965553383
-0.005951699763
-0.005391772096
-0.004778513974
-0.004786949108
-0.00500656642
-0.004850410249
-0.004524029458
-0.004371315157
-0.004316755568
-0.004319896501
-0.003841226152
-0.003377060532
-0.003324806398
-0.002690011187
-0.002475528589
-0.003003832286
-0.003301955459
-0.003965003477
-0.004540085199
)


100
(
-0.120743127
-0.101443095
-0.07347178817
-0.06021965184
-0.05222599257
-0.04607409036
-0.04170532432
-0.03821885429
-0.03591360958
-0.03431407348
-0.03180474596
-0.03038605918
-0.02935750797
-0.0272848813
-0.02570827418
-0.02513305333
-0.02425085328
-0.02268166534
-0.02159224759
-0.02169094562
-0.02144200572
-0.02027494775
-0.01930172927
-0.01905616744
-0.0191340481
-0.01858849063
-0.0178074574
-0.01724433313
-0.01685896595
-0.01688402598
-0.01677738211
-0.01619831033
-0.01547731948
-0.01464571393
-0.0149243024
-0.01536610872
-0.0146544112
-0.01387132375
-0.01336660436
-0.01283058427
-0.0129240816
-0.01319099204
-0.01291393587
-0.01260332595
-0.01196691389
-0.01101631066
-0.01142651778
-0.01207520428
-0.01140133687
-0.01072474523
-0.01031865892
-0.01002679891
-0.01033388205
-0.0106821866
-0.01045536211
-0.009968825044
-0.009146345417
-0.009267566397
-0.009858682365
-0.009324846874
-0.00869350412
-0.008533239115
-0.008509267374
-0.008458788859
-0.008360006185
-0.008206159602
-0.007901715975
-0.007809693668
-0.007760115082
-0.007517139869
-0.007238075746
-0.00702394999
-0.006845258529
-0.006615164751
-0.006398760841
-0.006556363937
-0.006671979379
-0.006394221056
-0.006012306672
-0.00567937997
-0.005448688322
-0.005416806041
-0.005512073096
-0.005318747909
-0.004984527662
-0.004729157006
-0.004669528024
-0.004529836283
-0.00426610159
-0.004224948079
-0.004148093072
-0.003941171608
-0.003527099225
-0.002804487368
-0.002772975925
-0.002945650699
-0.003040987159
-0.003390039943
-0.004072920384
-0.004687421722
)


100
(
-0.11874205
-0.09990201548
-0.07248325989
-0.05930253182
-0.05162070454
-0.04557487366
-0.0410936128
-0.03803985297
-0.03527042772
-0.03367257073
-0.03207554164
-0.029621299
-0.02849734446
-0.02762874108
-0.0256149338
-0.024160885
-0.02377145962
-0.02308054843
-0.02171552829
-0.02053357781
-0.0206777868
-0.02072006859
-0.01963186109
-0.01876439787
-0.01801177081
-0.01808212162
-0.01819847458
-0.01756409701
-0.01694512974
-0.01597494689
-0.01591401937
-0.01632313178
-0.01585603031
-0.01512342586
-0.01437351671
-0.01398931411
-0.01442206609
-0.0143465599
-0.01348083956
-0.01300519897
-0.01276940715
-0.01230727017
-0.01244721568
-0.01276906414
-0.01237038488
-0.01163969702
-0.01082180392
-0.01055937106
-0.01119575116
-0.01121143319
-0.0103440327
-0.01045237217
-0.01030410162
-0.009754087358
-0.01012293031
-0.01045781478
-0.009654180761
-0.008890298767
-0.008734716958
-0.008996014485
-0.00915508613
-0.008864875717
-0.008581754129
-0.008326688676
-0.008225185429
-0.008078141445
-0.007797237761
-0.00754784652
-0.007404466313
-0.007388610385
-0.007316224133
-0.007107819082
-0.006968702659
-0.006862743142
-0.006618023968
-0.006342826397
-0.006118305812
-0.005892266275
-0.005953697431
-0.006051971434
-0.005814084131
-0.005464403015
-0.005140041117
-0.005094762572
-0.005149518303
-0.004910032328
-0.004560432539
-0.004436146931
-0.004317129414
-0.004036476211
-0.004011255218
-0.003848828846
-0.003506701109
-0.003040570029
-0.002873177501
-0.002978078694
-0.0030952524
-0.00343757653
-0.004188106102