/*--------------------------------*- C++ -*----------------------------------*\
| =========                 |                                                 |
| \\      /  F ield         | OpenFOAM: The Open Source CFD Toolbox           |
|  \\    /   O peration     | Version:  2.3.1                                 |
|   \\  /    A nd           | Web:      www.OpenFOAM.org                      |
|    \\/     M anipulation  |                                                 |
\*---------------------------------------------------------------------------*/
FoamFile
{
    version     2.0;
    format      ascii;
    class       dictionary;
    location    "constant";
    object      H2;
}
// * * * * * * * * * * * * * * * * * * * * * * * * * * * * * * * * * * * * * //

H2_table
100
(

100
(
0.0005117715407
0.0005651137715
0.0006022318996
0.0006306594066
0.000654910088
0.0006757852221
0.0006945322606
0.0007117374349
0.0007276546231
0.0007425393783
0.0007565465116
0.0007688302707
0.0007804495274
0.0007914099066
0.0008016261541
0.0008113602463
0.0008206574761
0.0008294895462
0.0008379940743
0.0008462215328
0.0008540237632
0.0008615559185
0.0008688901544
0.0008758417401
0.0008821026782
0.0008881987343
0.0008941455993
0.0008998753699
0.0009053669098
0.0009107323865
0.0009159788605
0.0009205627993
0.0009247206668
0.0009287820082
0.0009327577479
0.000936614152
0.0009403103108
0.0009439239976
0.0009474554602
0.0009507646193
0.0009537052288
0.0009565706081
0.0009593688251
0.0009618612161
0.000963825386
0.0009657402652
0.000967615993
0.0009694416148
0.000970900562
0.0009723322691
0.0009737342108
0.0009749907315
0.0009757422458
0.0009764665002
0.0009771708197
0.0009775384004
0.0009774594603
0.0009773741052
0.0009772922757
0.0009769663152
0.0009762290509
0.0009754993517
0.0009747880062
0.0009737266854
0.0009723027451
0.0009709034498
0.0009695407411
0.0009675159167
0.0009653671571
0.0009632659731
0.000960864103
0.0009578970728
0.0009549919318
0.0009519838221
0.0009481184774
0.0009443380428
0.0009403908506
0.0009355452455
0.0009308177782
0.0009254807142
0.0009195789296
0.0009137395102
0.0009065308946
0.000899545297
0.0008911295586
0.0008827548747
0.0008727030577
0.0008624176308
0.000850510405
0.0008373855566
0.0008230417187
0.0008069060957
0.0007882556341
0.0007664539835
0.0007405367508
0.0007099139439
0.0006692987338
0.0006137216667
0.0005278217361
4.875887695e-06
)


100
(
0.0005058879816
0.0005574905939
0.0005948888043
0.0006229248572
0.0006468494957
0.0006677443408
0.0006860985991
0.0007032684605
0.0007189804779
0.0007338645374
0.0007478713606
0.0007604531839
0.0007721389439
0.0007830642597
0.0007932637881
0.0008029642598
0.0008122176552
0.0008209442637
0.0008294198074
0.0008376247646
0.000845439328
0.0008529932331
0.0008603455147
0.0008673988055
0.0008739597151
0.0008802330203
0.0008862556229
0.0008920125037
0.0008974964728
0.0009029098925
0.000908196598
0.0009131626596
0.0009177279014
0.0009220378692
0.0009261371345
0.0009300413401
0.0009337447179
0.00093734782
0.0009409107767
0.0009443486285
0.0009475627666
0.0009506043319
0.0009535550297
0.0009563431283
0.000958845626
0.0009611068453
0.0009632130327
0.0009651993652
0.0009669919403
0.0009686195809
0.000970171287
0.0009716616621
0.0009729831176
0.0009741223329
0.0009751421022
0.0009760184401
0.0009766805743
0.0009771455918
0.0009774743674
0.0009776766946
0.0009777169799
0.0009776269116
0.0009773270363
0.0009768212367
0.0009762078638
0.0009755515258
0.0009747021047
0.0009735585719
0.000972444187
0.0009712149719
0.0009697199915
0.0009680147709
0.0009664076717
0.0009644826503
0.0009621109201
0.0009598636009
0.0009576528773
0.000954703455
0.0009518728554
0.0009492152961
0.0009456575316
0.0009425975868
0.0009390193366
0.0009347149399
0.0009318349248
0.0009270055491
0.0009227572154
0.0009186425207
0.000912673344
0.0009082655489
0.0009014328332
0.0008953684649
0.0008859238181
0.0008763740628
0.000861489903
0.0008446949052
0.0008099598522
0.0006945497622
0.0004229689998
0.0003266125118
)


100
(
0.0005000049813
0.0005498770848
0.0005873788691
0.0006151127223
0.0006389042083
0.0006595281152
0.0006778513113
0.0006946845084
0.0007103490443
0.0007250211363
0.0007390062802
0.00075175409
0.0007635791344
0.0007745668395
0.0007847659942
0.0007944177812
0.00080362178
0.0008123521752
0.0008206906821
0.000828843402
0.000836698315
0.0008442439421
0.0008515563856
0.0008586627903
0.0008654433861
0.0008718564454
0.0008779844004
0.0008838511001
0.0008894645269
0.000894851389
0.0009000960807
0.0009052149213
0.0009100869966
0.0009146628194
0.0009189597825
0.0009230453218
0.0009269077081
0.0009305719904
0.0009340797676
0.0009375240563
0.0009408928423
0.0009441134157
0.0009471681244
0.0009500911916
0.0009529074276
0.0009555360249
0.000957949373
0.0009601832835
0.0009622642168
0.000964181863
0.0009659535555
0.0009676067439
0.0009691812936
0.0009706664256
0.0009720478838
0.0009732804179
0.0009743974047
0.0009753371036
0.0009761516485
0.0009768362393
0.000977465457
0.000977943252
0.0009783382879
0.0009785043925
0.0009784202031
0.0009782135956
0.000978015724
0.0009776843099
0.0009770716405
0.00097650689
0.0009759185083
0.0009751984368
0.0009742367287
0.0009733062907
0.0009723465903
0.000971115435
0.0009695895667
0.0009683044329
0.0009670613848
0.0009653302
0.00096359973
0.0009617642099
0.0009600674071
0.0009574107097
0.0009552368235
0.00095316028
0.0009501324921
0.0009475030923
0.0009446300778
0.0009408608245
0.0009366532304
0.0009316768454
0.0009253252738
0.0009164111735
0.0009054043056
0.0008873945082
0.0008444691468
0.0006384219968
0.0004921729599
0.0004191669905
)


100
(
0.0004941224361
0.000542456558
0.0005797703953
0.000607471799
0.0006309450377
0.0006512104738
0.0006695717441
0.0006860324607
0.0007016570781
0.0007161854047
0.0007299975174
0.0007429083259
0.0007547710431
0.0007658879689
0.0007761869335
0.0007857881714
0.0007949408837
0.0008036672943
0.0008119892739
0.0008199758951
0.000827828107
0.0008354038148
0.0008426963977
0.0008497383709
0.0008566120013
0.0008631858256
0.0008694378554
0.000875390185
0.0008811363571
0.0008866305799
0.0008919020124
0.0008969800666
0.0009019756303
0.0009067743366
0.0009113193856
0.0009156038176
0.000919661748
0.0009235003311
0.0009271452653
0.000930637642
0.0009339949492
0.0009372862262
0.0009405151652
0.0009436388659
0.0009466052861
0.0009494118284
0.0009521040793
0.0009546692837
0.0009570483924
0.0009592458165
0.0009613121169
0.0009632780527
0.0009651232022
0.0009668854656
0.0009685569371
0.000970132323
0.0009715645173
0.0009728949021
0.0009740895398
0.000975176193
0.0009762036312
0.0009771873395
0.0009780463744
0.0009788150228
0.0009794068263
0.0009798061326
0.0009800519427
0.0009802557115
0.0009803990337
0.0009804727115
0.0009804169914
0.0009803074214
0.0009801586537
0.0009799868561
0.0009797098922
0.0009792497241
0.0009786536701
0.0009782630053
0.0009777624461
0.0009767559842
0.0009759763466
0.0009752555745
0.0009741780342
0.0009730954824
0.000972071715
0.0009709213387
0.0009693700777
0.0009676587486
0.0009655612463
0.0009631258016
0.0009601855532
0.0009564560587
0.0009514009623
0.0009448113584
0.0009332319118
0.0009153562548
0.0008642265307
0.0006210657558
0.0005420385756
0.0004786910052
)


100
(
0.000488240246
0.0005353761393
0.0005722384459
0.0005998141492
0.0006228338269
0.0006430453707
0.0006611662935
0.0006775681918
0.0006928769719
0.0007073599078
0.0007209239135
0.000733882967
0.0007458849994
0.0007570016
0.0007674232636
0.000777115261
0.0007861971324
0.0007948890645
0.0008032093467
0.0008111963469
0.0008188940525
0.0008264501958
0.0008337637552
0.0008408125363
0.0008475979406
0.0008542395928
0.000860623262
0.0008667137689
0.0008725239158
0.0008781377975
0.00088352708
0.0008887089678
0.0008937005066
0.0008985319683
0.000903272297
0.0009078214101
0.0009121139905
0.0009161265086
0.0009199635998
0.0009236257336
0.0009271547918
0.0009305591488
0.0009338756162
0.0009371582893
0.0009403323162
0.0009433027059
0.0009461051076
0.0009488691072
0.0009515445578
0.0009540315661
0.0009563704663
0.0009586244316
0.0009607907461
0.0009628407526
0.0009648127382
0.0009666953016
0.0009684423879
0.0009700755529
0.0009716162612
0.0009730793511
0.0009744592189
0.0009758006879
0.0009770985072
0.0009783153764
0.0009794158929
0.0009804031655
0.0009812780931
0.0009820739682
0.0009827207765
0.0009832803736
0.0009837957913
0.0009842906847
0.0009847457137
0.0009850724719
0.000985295507
0.0009855646131
0.0009858076247
0.0009858308926
0.0009858286997
0.0009859003838
0.0009859891502
0.000985909832
0.0009856496593
0.0009854259868
0.0009851752661
0.0009846949599
0.0009842871011
0.0009835753066
0.0009824488257
0.0009807870684
0.0009788590444
0.0009763426097
0.0009721164378
0.0009666171338
0.0009561985888
0.0009362620458
0.0008567276244
0.0006440081225
0.0005796058257
0.0005225118905
)


100
(
0.0004823582085
0.0005283997552
0.0005646872287
0.0005919887187
0.0006146857006
0.0006348771934
0.0006526595647
0.0006690619959
0.000684088512
0.0006984502581
0.0007119667643
0.000724723817
0.000736807033
0.0007480170443
0.0007584590522
0.000768261798
0.000777426626
0.000786054499
0.0007943436857
0.0008023299378
0.0008100307902
0.0008174680347
0.0008247403003
0.0008318079158
0.0008386279559
0.0008451987112
0.0008515695794
0.0008577807902
0.0008637822372
0.0008695257963
0.0008749985868
0.0008803126319
0.0008854427481
0.0008903989401
0.0008951558244
0.0008998647675
0.0009044104098
0.0009086879795
0.0009126049968
0.0009164425576
0.0009201855558
0.0009237754418
0.0009272032806
0.0009305872811
0.0009339453482
0.0009371372161
0.0009400663159
0.0009429046081
0.0009457661657
0.0009485263076
0.0009511179511
0.0009536250872
0.0009560787398
0.0009584531389
0.0009607421799
0.0009629552155
0.0009650474466
0.0009670321942
0.0009689191597
0.0009707284701
0.0009724698198
0.0009741527025
0.0009757687568
0.0009773264581
0.000978821212
0.0009802532238
0.0009815788998
0.0009828013363
0.0009839650087
0.0009850702556
0.0009861399007
0.0009871213496
0.00098806119
0.0009889844949
0.0009899381466
0.0009906875953
0.0009913977035
0.0009921160644
0.0009928711226
0.0009935481293
0.0009941051462
0.0009947389855
0.0009955252108
0.0009960059845
0.0009965162835
0.0009969477046
0.000997097429
0.0009970558241
0.0009969894136
0.0009964044889
0.0009950384424
0.0009933387968
0.0009902001223
0.0009851063322
0.0009759274457
0.0009492946093
0.0008385600072
0.0006691041885
0.0006115451515
0.0005585593257
)


100
(
0.0004765401492
0.0005214574178
0.0005570919508
0.0005840406172
0.0006066984589
0.0006265951483
0.0006442526591
0.000660444167
0.0006754149893
0.0006894722082
0.0007029443528
0.0007155835207
0.0007275647184
0.0007388578683
0.000749369625
0.000759207926
0.0007684762091
0.0007771869926
0.0007854285491
0.0007933687571
0.0008010746688
0.0008085219708
0.0008157189522
0.0008227191022
0.0008295693615
0.0008361791334
0.0008425743666
0.0008488300671
0.0008549643561
0.0008608722054
0.0008664897372
0.0008718247294
0.0008770808061
0.0008821849286
0.0008870741783
0.0008917797272
0.000896469132
0.00090097022
0.0009051331197
0.0009090390406
0.0009129277257
0.0009167358553
0.0009203724319
0.000923878173
0.0009273559872
0.0009307434416
0.0009338939748
0.0009368780533
0.0009398295225
0.0009427605913
0.0009456002656
0.0009483517594
0.0009510593211
0.0009537315937
0.0009563537939
0.0009588993496
0.0009613510666
0.0009637106812
0.0009659631523
0.000968095615
0.0009701249215
0.0009720772573
0.0009739706017
0.0009758296847
0.000977618201
0.0009793775924
0.000981107991
0.0009828117104
0.0009845151147
0.0009861283625
0.000987678695
0.000989207033
0.0009907378266
0.000992172791
0.0009935375994
0.0009949051656
0.000996230967
0.0009975563948
0.0009987871124
0.001000072915
0.001001432801
0.001002677231
0.001003969015
0.00100523663
0.001006407191
0.0010075009
0.001008514052
0.001009202798
0.001009752449
0.001010058127
0.001009764264
0.001008589376
0.001006354496
0.001001851036
0.0009921833597
0.0009647314937
0.0008316000404
0.0006942548249
0.0006415087082
0.0005921170144
)


100
(
0.0004707641839
0.0005145850934
0.0005494883083
0.000576163834
0.000598689933
0.0006181990604
0.0006358502082
0.000651737292
0.0006666886209
0.0006805999512
0.0006938439775
0.0007064231017
0.0007182586931
0.0007295240229
0.0007401210468
0.0007500184973
0.0007593264625
0.0007681292236
0.0007764667864
0.0007843718505
0.0007920094044
0.0007994705958
0.0008066983594
0.0008136952687
0.0008204745927
0.0008271637039
0.0008336256524
0.000839883841
0.0008460423748
0.0008520746053
0.00085785382
0.0008632526363
0.0008685304085
0.0008737697415
0.000878845217
0.0008836325616
0.0008883193539
0.0008929907503
0.0008974332579
0.0009015105492
0.0009054308322
0.0009093832092
0.0009132564717
0.0009169644991
0.0009205777163
0.0009241159374
0.000927498736
0.0009307135033
0.00093383696
0.0009369174331
0.0009399808724
0.0009430149365
0.0009459891609
0.0009488897311
0.0009517011178
0.0009544558307
0.000957167511
0.0009598176507
0.0009623858706
0.0009648699927
0.0009672687345
0.000969551576
0.0009717596506
0.0009739235914
0.000976073284
0.0009782265761
0.0009803711982
0.0009824600969
0.0009845077869
0.0009865635267
0.0009886023791
0.000990562464
0.0009925146752
0.000994467338
0.0009964301171
0.00099837996
0.001000222138
0.001002120387
0.001004058264
0.001005923568
0.001007799899
0.001009667285
0.001011500905
0.001013311193
0.001015122979
0.001016959575
0.001018613052
0.001020029303
0.001021214295
0.001022302901
0.001022895229
0.001022520334
0.001021227234
0.001017260362
0.001006260313
0.0009739740551
0.0008363228428
0.0007195293233
0.0006700573733
0.0006235435292
)


100
(
0.0004649883943
0.0005078328984
0.0005419961319
0.0005683822806
0.0005905558091
0.0006098950122
0.000627349917
0.0006431521491
0.0006578803365
0.0006717343929
0.0006847251233
0.0006971921891
0.0007089747205
0.0007200835043
0.0007306943548
0.0007406787349
0.0007500291397
0.0007589206366
0.0007673556103
0.0007753251931
0.0007829623799
0.0007903479242
0.0007976084688
0.0008046500695
0.0008114880991
0.0008181004627
0.0008246011479
0.0008309208662
0.000837053551
0.0008431214674
0.0008490289463
0.0008546472583
0.0008599034319
0.0008651388632
0.0008703510969
0.0008753482581
0.0008801124728
0.0008848035836
0.000889437209
0.0008937485823
0.000897823933
0.000901816113
0.0009058207392
0.0009097366829
0.0009135591125
0.0009172874472
0.0009209152119
0.0009244326864
0.0009278313049
0.0009311368829
0.0009343757027
0.0009375595438
0.0009407095748
0.0009438156994
0.00094683685
0.0009497751205
0.0009526474475
0.0009554842234
0.0009582994704
0.0009610857433
0.0009638359481
0.0009665506722
0.0009692106233
0.0009717912242
0.0009742946844
0.0009767634769
0.0009792430626
0.000981726724
0.0009841625066
0.0009865459254
0.0009889426565
0.0009913527209
0.0009938300188
0.0009962689676
0.0009986654253
0.001001141963
0.001003636687
0.001006067786
0.001008511164
0.001010952039
0.001013367379
0.001015748679
0.001018128867
0.001020586377
0.00102295434
0.001025231892
0.001027459568
0.001029674645
0.0010316109
0.001033216688
0.00103440644
0.001034936999
0.001034269555
0.001030093159
0.001016477126
0.0009780274688
0.0008449156238
0.0007424178768
0.0006957919205
0.0006516023767
)


100
(
0.0004592128757
0.0005012321872
0.0005346423399
0.0005605843717
0.0005823475427
0.0006016353933
0.0006187549611
0.000634533571
0.0006490186553
0.0006628000136
0.0006757262364
0.0006879029712
0.0006996281678
0.0007106948436
0.0007211393506
0.0007311595945
0.0007406191138
0.0007495723143
0.0007580157064
0.0007661171976
0.0007738544636
0.0007812837187
0.0007884365507
0.0007955224026
0.0008024051941
0.0008090842032
0.000815546001
0.0008218432065
0.0008280294006
0.0008340614615
0.0008400348302
0.0008458444782
0.0008512300918
0.000856417711
0.0008616422286
0.0008668349713
0.0008717562384
0.0008765210159
0.0008812002439
0.0008857391482
0.0008900236314
0.0008941547155
0.0008982161696
0.0009022990542
0.0009063645562
0.0009103493753
0.0009142346966
0.0009179752405
0.0009215849885
0.0009251103438
0.0009285462892
0.000931911155
0.0009352322911
0.0009384993097
0.000941719612
0.0009448819296
0.000947971224
0.0009510220525
0.0009540751272
0.0009571358862
0.0009602118506
0.0009632651003
0.0009662659758
0.0009692175601
0.0009721231307
0.0009749653903
0.0009777627681
0.000980578229
0.0009834031949
0.0009862411952
0.0009890745282
0.0009918630333
0.0009946928298
0.0009976117448
0.001000557982
0.001003479532
0.0010064473
0.001009420999
0.001012368643
0.001015287076
0.001018209782
0.001021197538
0.001024148933
0.001027047873
0.001029899925
0.001032749825
0.001035615953
0.001038451683
0.001040928223
0.001043194355
0.001045074279
0.001046249627
0.001046190414
0.001040350734
0.001024491956
0.0009761576261
0.000849990389
0.0007613574144
0.000717376962
0.0006755441878
)


100
(
0.0004534376864
0.0004946880986
0.0005273386045
0.0005527281464
0.0005742648817
0.0005933091287
0.0006102238154
0.0006258140778
0.0006402470773
0.0006537934744
0.0006666730036
0.0006787628518
0.0006902344033
0.0007012313432
0.000711644444
0.0007215042554
0.0007310150398
0.0007400480731
0.0007486051394
0.0007567211561
0.0007645751791
0.0007721000874
0.0007793503628
0.000786333575
0.0007932007885
0.0007999228663
0.0008064525788
0.000812774596
0.0008188854047
0.0008249220282
0.0008309862758
0.0008369140336
0.0008424506908
0.0008477212126
0.0008528536975
0.0008580491418
0.0008631442576
0.0008680730766
0.0008728624034
0.0008775288906
0.0008820624957
0.0008864696038
0.0008907661776
0.0008949591361
0.0008990619885
0.0009031631622
0.0009072282658
0.000911192197
0.0009150343391
0.0009187525535
0.0009223795637
0.0009259607061
0.0009294867841
0.0009329621511
0.0009364079728
0.0009398144557
0.0009431915037
0.0009465282664
0.0009498304747
0.0009531131547
0.0009564102184
0.0009597230903
0.0009630189299
0.0009662721659
0.0009695008521
0.0009727261467
0.0009759714954
0.0009792288523
0.000982436108
0.0009856190908
0.0009888516043
0.000992109991
0.0009953269018
0.0009986381951
0.001002027441
0.00100544289
0.001008851143
0.00101224938
0.001015658005
0.001019109744
0.001022577272
0.001026041552
0.001029475179
0.001032890394
0.001036372064
0.001039818412
0.001043108322
0.001046427401
0.00104952675
0.001052381562
0.001054874016
0.001056585632
0.001056419332
0.001048762958
0.001033453979
0.0009671383764
0.0008493957817
0.0007759360476
0.0007347629613
0.0006944818208
)


100
(
0.0004477245412
0.000488158943
0.0005200622597
0.0005449077001
0.0005662551094
0.0005849040224
0.0006017348108
0.0006170129403
0.0006314109922
0.0006448336075
0.0006575529037
0.0006695862851
0.0006809126087
0.0006917231711
0.0007020911961
0.0007119472319
0.0007212977949
0.0007303747552
0.0007390276295
0.0007472681538
0.000755095341
0.0007627400209
0.0007700831738
0.0007771482097
0.0007839609504
0.0007906145697
0.0007971904697
0.00080358781
0.0008098118988
0.0008158439098
0.0008217874214
0.0008276141858
0.0008335174385
0.0008389509128
0.0008440802253
0.0008491758635
0.0008543143055
0.0008594035669
0.000864432088
0.0008693373791
0.0008740658649
0.0008786622166
0.000883136446
0.0008874788766
0.0008917220737
0.0008958739977
0.0008999698283
0.0009040729336
0.0009081268422
0.0009120630588
0.0009159203782
0.0009197124446
0.0009234607467
0.0009272115259
0.0009309279268
0.0009345995917
0.0009382273117
0.0009418044749
0.0009453530607
0.000948874665
0.0009523875092
0.0009559201572
0.0009594781686
0.0009630627838
0.0009666720887
0.0009702725241
0.0009738680016
0.0009775019684
0.0009811567421
0.000984703632
0.000988280826
0.0009919214836
0.00099563398
0.0009993798366
0.001003140801
0.00100691133
0.00101068381
0.001014491109
0.001018411103
0.00102237156
0.001026319265
0.001030254048
0.001034235274
0.001038274389
0.001042215915
0.001046120839
0.00104996646
0.001053835072
0.001057406321
0.001060868753
0.001063859655
0.001065950228
0.001065518311
0.001057954424
0.001038332635
0.0009546363907
0.0008458860673
0.0007879783241
0.0007494890057
0.000710518688
)


100
(
0.0004420824173
0.0004816625989
0.0005128258594
0.0005372840271
0.0005582270721
0.0005765547905
0.0005931929425
0.0006083211097
0.0006224885199
0.00063585301
0.0006483880191
0.0006603321288
0.0006716101294
0.0006822761291
0.0006924996899
0.0007023164009
0.0007116815216
0.000720592794
0.0007292769817
0.000737605304
0.0007455812731
0.0007531981092
0.0007606043956
0.0007677628761
0.0007746556066
0.0007813142798
0.0007877784675
0.0007942116199
0.0008005017932
0.000806618179
0.0008125938053
0.0008184216916
0.0008242059209
0.0008297709908
0.0008350830125
0.0008403172225
0.0008455209988
0.0008506775807
0.0008558495932
0.0008609128527
0.0008658386969
0.0008705947089
0.0008751873647
0.0008796975492
0.0008841085136
0.0008884064063
0.0008926336452
0.0008968095908
0.000900942905
0.0009050716629
0.0009091777497
0.0009132711309
0.0009173272041
0.000921301222
0.0009252058815
0.0009290924321
0.0009329401899
0.0009367399211
0.0009405204396
0.0009442858219
0.0009480622678
0.0009518750354
0.0009557396885
0.0009596243728
0.0009635344225
0.0009674789384
0.0009713808592
0.0009753061954
0.0009792800876
0.0009832888991
0.0009873494149
0.0009914153315
0.0009954706729
0.0009995275937
0.001003592544
0.00100769192
0.001011913134
0.001016208992
0.001020560975
0.001024932011
0.00102931969
0.001033772146
0.001038260526
0.001042739922
0.001047175872
0.001051680286
0.00105602579
0.00106029573
0.001064481119
0.001068418968
0.001071877623
0.001074181793
0.001073511642
0.001065584954
0.001036481794
0.0009452968367
0.0008471190279
0.0007997722507
0.0007633741817
0.0007261401129
)


100
(
0.0004364405365
0.0004752296211
0.0005057223482
0.000529735554
0.0005501669141
0.000568318443
0.000584603643
0.0005996267024
0.0006135242549
0.0006267936509
0.0006392719586
0.0006510045628
0.0006622611874
0.0006728849262
0.0006829449556
0.000692635544
0.0007019649592
0.0007109008544
0.0007194273763
0.0007277606511
0.0007358230345
0.0007435623133
0.000750973273
0.0007581477947
0.0007651336073
0.000771869169
0.000778405136
0.0007847519773
0.0007909866825
0.000797171559
0.0008032075773
0.0008091129988
0.0008148680385
0.0008204541317
0.0008259915937
0.0008314126595
0.000836718972
0.0008419452753
0.0008470652966
0.0008521525767
0.0008572172478
0.000862158694
0.0008669470035
0.0008715957736
0.0008761279216
0.0008806049857
0.0008850032545
0.000889329919
0.0008936451494
0.0008979697705
0.0009022849191
0.0009066012968
0.0009108777209
0.0009150780141
0.0009191993794
0.0009232583387
0.000927294365
0.000931315616
0.0009353211041
0.0009393562095
0.0009434490734
0.0009475700912
0.000951706609
0.0009558362653
0.0009599773732
0.0009641655218
0.0009683880352
0.0009726376781
0.0009769739814
0.0009813562545
0.0009857506386
0.0009901383425
0.0009945124148
0.000998901182
0.001003361325
0.001007955195
0.001012598994
0.001017212339
0.001021842264
0.001026573183
0.001031478154
0.001036402907
0.001041320251
0.001046230721
0.001051204538
0.001056134359
0.001060983972
0.001065855786
0.001070539119
0.00107478809
0.001078601223
0.001081014872
0.001079744692
0.001069893192
0.001035151084
0.0009429280158
0.0008545383449
0.0008128590692
0.0007777358281
0.0007412859182
)


100
(
0.0004307989259
0.0004688661325
0.0004987097601
0.0005221857475
0.0005422130436
0.000560091282
0.000576072827
0.0005908819642
0.0006046652332
0.0006176654225
0.0006300889733
0.000641792423
0.0006528542364
0.0006634373866
0.0006734603551
0.0006829773197
0.0006921881376
0.0007010872512
0.00070963834
0.0007178417636
0.0007258630807
0.0007336835628
0.0007412035346
0.0007484215583
0.0007553672276
0.0007622140036
0.0007688298005
0.0007752370036
0.0007814793262
0.0007875735549
0.0007936428877
0.0007996262687
0.0008055063926
0.0008112658393
0.0008168435332
0.0008222779032
0.0008276802342
0.0008329818845
0.0008381897622
0.0008432960691
0.0008483216709
0.000853342862
0.0008583106743
0.0008631317944
0.0008678491176
0.0008724744149
0.0008770313443
0.0008816017556
0.0008861491106
0.0008906591618
0.000895148663
0.0008996093474
0.0009040512132
0.0009084761316
0.0009128256111
0.0009170853864
0.0009213172294
0.0009255515252
0.0009298577782
0.0009341988557
0.0009385491278
0.000942888923
0.000947255891
0.0009516571439
0.0009560341198
0.0009604568358
0.0009649649316
0.0009695650492
0.0009742045468
0.0009788548349
0.0009835184372
0.0009881879603
0.0009928746498
0.0009976574732
0.001002538882
0.001007465913
0.001012395531
0.001017323058
0.001022336356
0.001027562609
0.001032873233
0.001038095597
0.001043355438
0.001048772096
0.001054196613
0.001059593339
0.001064948673
0.001070251651
0.001075233758
0.001079964945
0.00108406459
0.001086477413
0.001084929981
0.001074574661
0.001035587011
0.0009461765438
0.0008649411396
0.0008260097461
0.0007923944674
0.0007573513368
)


100
(
0.0004251576107
0.0004625305756
0.0004917383121
0.0005146623662
0.0005344010856
0.0005518494616
0.0005676393829
0.0005821096448
0.000595775936
0.0006086175617
0.000620855421
0.0006325125424
0.0006435043062
0.0006539250162
0.0006639080526
0.0006733980289
0.0006824348373
0.0006912062358
0.000699728787
0.0007079488506
0.0007158754116
0.0007236008199
0.0007311943625
0.0007385062017
0.0007455661433
0.0007523716003
0.0007590200898
0.0007655134446
0.0007718184582
0.0007779951815
0.0007840502895
0.0007900155234
0.000795994861
0.0008018485621
0.0008075529868
0.000813086856
0.0008184506271
0.0008237821891
0.0008290719099
0.0008342607507
0.0008393663449
0.0008443999367
0.0008493668517
0.0008543263672
0.0008592189948
0.0008640666477
0.0008688885383
0.0008736369595
0.0008783103424
0.0008829921848
0.0008876537611
0.0008922827065
0.0008969010974
0.0009014905594
0.0009060398078
0.0009105492333
0.0009150479015
0.0009195625066
0.000924086428
0.0009286723032
0.0009332729753
0.0009378513547
0.0009424352519
0.0009470478964
0.0009517049181
0.0009564636706
0.0009612739107
0.0009661076853
0.0009709625485
0.000975836938
0.0009807206786
0.0009856483953
0.0009907307809
0.0009958830893
0.001001079347
0.001006299569
0.001011538651
0.001016831528
0.001022287728
0.001027825649
0.00103338582
0.001038958003
0.001044714973
0.001050540094
0.001056266682
0.001062134383
0.001067961968
0.001073655478
0.001079113177
0.001084078744
0.001088559988
0.001091561561
0.001089459776
0.001079442052
0.001035200682
0.0009511224399
0.000875284304
0.0008381486837
0.0008059840935
0.0007721984567
)


100
(
0.0004196042739
0.0004562088277
0.000484796156
0.0005072630814
0.0005266381182
0.0005436674335
0.0005592197656
0.0005734540175
0.0005868530731
0.0005995771753
0.0006116289426
0.0006231570338
0.0006341014783
0.0006444438353
0.000654284971
0.0006637356077
0.0006727542951
0.000681365214
0.0006897373948
0.0006979362551
0.0007058729934
0.0007135513085
0.0007209866703
0.0007283847854
0.0007355274851
0.0007424237994
0.0007490923329
0.0007555482023
0.0007619647474
0.0007682524246
0.0007744024485
0.0007804400285
0.0007863400408
0.0007921976085
0.000797999304
0.0008036609221
0.000809162871
0.0008145065806
0.0008197431765
0.0008249978634
0.000830196069
0.000835302722
0.0008403705063
0.0008454060049
0.0008504299013
0.0008554528319
0.0008604302023
0.0008653410621
0.000870199241
0.0008749987779
0.0008797834478
0.0008845924179
0.0008893802188
0.0008941451331
0.0008989178072
0.0009037080817
0.0009084859491
0.0009132342616
0.0009179709844
0.0009227419262
0.0009275731371
0.0009324316073
0.0009372521253
0.000942123897
0.0009470928249
0.0009521039657
0.0009571316479
0.0009621801984
0.000967252845
0.0009723542134
0.0009775260088
0.000982851439
0.0009882199702
0.0009936156089
0.0009990376673
0.001004507295
0.001010093907
0.001015818032
0.00102164284
0.001027488119
0.001033303349
0.001039319414
0.001045402135
0.001051516381
0.001057689608
0.001064113048
0.001070249597
0.001076155201
0.001081929073
0.001087377501
0.001092019365
0.001095015441
0.001092322888
0.001080304523
0.001033229607
0.0009542792991
0.0008841299695
0.0008486263384
0.0008177376923
0.0007846436502
)


100
(
0.0004141107901
0.0004499105095
0.0004779035929
0.0004999730614
0.0005188865827
0.000535643346
0.0005508087027
0.0005648467068
0.000577940817
0.0005905123767
0.0006024565791
0.0006137558942
0.0006246270023
0.0006349310004
0.0006446790088
0.0006539963444
0.0006629754355
0.0006715711172
0.0006798172605
0.000687830198
0.000695748254
0.0007034316796
0.0007108996325
0.0007181432837
0.0007252707518
0.0007322371138
0.0007389845837
0.0007455712903
0.0007520122243
0.0007583146615
0.0007645434524
0.0007706434829
0.000776637297
0.0007824831713
0.0007882092067
0.0007939631603
0.0007996027579
0.0008050586865
0.0008103988339
0.0008156351902
0.0008207953592
0.0008260073544
0.0008312310577
0.0008364449936
0.0008416217949
0.0008466872774
0.0008516815909
0.0008567367147
0.0008617509706
0.0008666998462
0.0008716349906
0.0008765585662
0.0008815004883
0.0008865068424
0.0008915315768
0.0008965322527
0.0009015108275
0.0009064958985
0.0009114656147
0.0009164327469
0.0009214629372
0.0009265447009
0.0009316866476
0.0009368830593
0.000942109132
0.0009473230724
0.0009525500876
0.0009577975953
0.0009630819778
0.0009684666584
0.0009739801446
0.000979547008
0.0009851570552
0.0009907989761
0.0009964845219
0.001002324393
0.00100827955
0.001014296541
0.001020359883
0.001026454036
0.001032662542
0.001039101328
0.001045530044
0.001051919803
0.001058531472
0.001065037274
0.001071443969
0.001077804934
0.001083883656
0.001089647951
0.001094440595
0.001097398872
0.001094225382
0.001082038876
0.001029912635
0.0009551015492
0.0008903414233
0.0008572357474
0.0008275610977
0.0007950638155
)


100
(
0.0004086175249
0.0004436693094
0.0004710914616
0.0004927275521
0.0005111928303
0.0005276783289
0.000542476513
0.0005562497406
0.0005691540729
0.0005814354268
0.0005932596727
0.0006044722056
0.0006150912141
0.0006253371961
0.0006350603087
0.0006442741767
0.0006531118596
0.0006616781735
0.0006699060687
0.000677845612
0.0006855135156
0.0006932105798
0.000700680008
0.0007079327759
0.0007149800481
0.0007218443781
0.0007286919559
0.0007354055139
0.0007419472767
0.0007483067591
0.000754453114
0.0007606094931
0.0007666718705
0.0007726085526
0.0007784238947
0.0007841184459
0.0007897318784
0.0007953447473
0.0008007920765
0.0008061128035
0.0008113932885
0.0008166785041
0.000821941063