/*--------------------------------*- C++ -*----------------------------------*\
| =========                 |                                                 |
| \\      /  F ield         | OpenFOAM: The Open Source CFD Toolbox           |
|  \\    /   O peration     | Version:  2.3.1                                 |
|   \\  /    A nd           | Web:      www.OpenFOAM.org                      |
|    \\/     M anipulation  |                                                 |
\*---------------------------------------------------------------------------*/
FoamFile
{
    version     2.0;
    format      ascii;
    class       dictionary;
    location    "constant";
    object      H2O2;
}
// * * * * * * * * * * * * * * * * * * * * * * * * * * * * * * * * * * * * * //

H2O2_table
100
(

100
(
0.0002191999022
0.0003093693072
0.0003778111477
0.0004321932705
0.0004791357738
0.000519793576
0.0005554666079
0.0005871677003
0.0006157493189
0.0006413403448
0.000665327935
0.0006852386577
0.0007040464253
0.0007212325548
0.0007355302934
0.0007491195351
0.0007618692209
0.0007718227834
0.0007813735419
0.0007906190605
0.0007977037567
0.0008039655967
0.0008100485002
0.0008152902622
0.0008185647712
0.0008217263067
0.0008248102327
0.0008268151245
0.0008274101889
0.0008279757331
0.0008285191937
0.0008275737658
0.0008257618428
0.00082396778
0.0008222179215
0.0008197700804
0.0008158438657
0.0008120018807
0.0008082284828
0.0008038246931
0.0007980354933
0.0007923318596
0.0007867381155
0.0007805885114
0.000773249392
0.0007660438833
0.000758989092
0.000751972945
0.0007430138372
0.0007342308549
0.0007255908498
0.000716704752
0.0007063622906
0.0006961594971
0.0006861176281
0.0006755426714
0.0006642027899
0.0006530420939
0.0006420455543
0.0006305407583
0.0006181271515
0.0006058918326
0.0005938588695
0.0005811941209
0.0005678722365
0.0005547636342
0.0005418992259
0.0005278810219
0.0005137957179
0.0004999581565
0.0004857878301
0.0004708481884
0.0004561750485
0.0004415423993
0.0004258776957
0.0004105133338
0.0003951438783
0.0003789215229
0.0003630259116
0.0003467551996
0.0003301550229
0.0003138551092
0.0002966956319
0.0002799765372
0.0002625864832
0.0002455305975
0.0002278769046
0.0002104980966
0.0001927936788
0.0001751340658
0.0001575825131
0.0001400270784
0.0001223995903
0.0001048546885
8.735348509e-05
7.009398763e-05
5.262924204e-05
3.537197206e-05
1.865246266e-05
2.121148322e-11
)


100
(
0.000210630758
0.0002970660408
0.000363802977
0.0004171675046
0.0004637369394
0.0005045925853
0.0005397622784
0.000572159022
0.00060072209
0.0006270886844
0.0006513327034
0.0006723333773
0.0006915896957
0.0007090489165
0.0007243741315
0.0007384745587
0.0007514899906
0.0007625743153
0.0007728054351
0.0007823045674
0.000790471672
0.0007976544542
0.0008042189347
0.0008100942134
0.0008147665526
0.0008186736143
0.0008220952313
0.0008249439618
0.0008269051935
0.0008282085939
0.0008291372411
0.000829473907
0.0008290521525
0.0008279557147
0.0008265311398
0.0008248351689
0.0008226510987
0.0008198458157
0.0008165684081
0.000813032426
0.0008090792679
0.0008046197888
0.000799594455
0.0007943589765
0.0007888233082
0.0007829449315
0.0007764616826
0.000769864158
0.000763083917
0.0007561052108
0.0007485229275
0.0007403485747
0.0007319964133
0.0007235182147
0.0007146048184
0.0007051347838
0.0006955276153
0.0006856988002
0.0006749667114
0.0006622950296
0.0006478868125
0.0006385062476
0.0006306401044
0.0006176922864
0.000602903861
0.0005932259866
0.0005842124498
0.0005683717862
0.000555054748
0.0005453561282
0.0005334497199
0.0005172276459
0.0005059386262
0.0004955496853
0.0004766255538
0.0004623439961
0.0004547762013
0.0004367196585
0.0004220306778
0.0004143102976
0.0003950340136
0.0003839478663
0.0003710239974
0.0003517759223
0.0003455796648
0.0003267399544
0.0003143217177
0.0003016031669
0.0002843793098
0.0002727534514
0.0002561696752
0.0002423986671
0.0002253260505
0.0002107807411
0.0001931675023
0.0001784274283
0.00016093466
0.0001391522857
9.246548532e-05
5.524524471e-05
)


100
(
0.0002020644754
0.0002848684057
0.0003497553522
0.0004019279969
0.000448482659
0.0004888225524
0.0005244791224
0.0005563572864
0.0005855779264
0.0006117447723
0.000636529149
0.0006581829361
0.000677939896
0.0006959736009
0.0007118027796
0.0007263263771
0.0007398264791
0.0007518056367
0.000762337801
0.0007724295375
0.0007814426634
0.0007893199707
0.0007964362428
0.0008029740647
0.0008086256801
0.0008133359084
0.0008174002066
0.0008208673278
0.0008237154584
0.0008259117868
0.0008275493147
0.0008286457889
0.0008291717926
0.0008291348563
0.0008285446761
0.0008274507084
0.0008259751911
0.0008241855559
0.0008220475172
0.0008193750094
0.0008161675666
0.0008126142424
0.0008087651596
0.0008045434599
0.0007997450937
0.0007947262648
0.0007895042093
0.0007840183422
0.0007781024691
0.0007718528774
0.0007653335411
0.0007584364776
0.0007509218316
0.000742634826
0.0007340301547
0.0007253077437
0.000716601398
0.0007070192144
0.0006970535836
0.0006862907798
0.0006734886822
0.000658496742
0.0006481958596
0.000640373259
0.0006303053426
0.0006174678449
0.0006075167928
0.000598305968
0.000586115115
0.000575223776
0.0005656296219
0.000556009612
0.0005436910905
0.0005330316334
0.0005218930287
0.000506534149
0.0004887087571
0.0004790859211
0.0004697786067
0.0004550119071
0.0004442042039
0.0004299314053
0.0004191544261
0.0004019294611
0.0003896182117
0.0003776894712
0.0003620653203
0.0003493477729
0.0003357611945
0.0003206406605
0.0003057343967
0.0002909946953
0.0002759671238
0.0002593040902
0.0002448861034
0.0002292419756
0.0002123050694
0.0001821294836
0.0001393117832
0.0001035630009
)


100
(
0.0001935016699
0.0002729176446
0.0003357250833
0.0003873777334
0.0004329534575
0.0004725644093
0.0005086310891
0.0005399171274
0.0005696379653
0.0005961382241
0.0006208300986
0.0006433848581
0.0006631998252
0.0006818453717
0.0006984965581
0.0007132074705
0.0007270307521
0.0007397344394
0.0007510889451
0.0007611853788
0.0007709647044
0.0007796820175
0.0007874292967
0.0007943431269
0.0008007816586
0.000806360001
0.0008111269524
0.0008151542214
0.0008186719068
0.0008215986991
0.0008240044735
0.000825772565
0.0008270205293
0.0008276772641
0.0008278183564
0.0008274333577
0.0008265351782
0.0008252279689
0.0008235915228
0.0008216547479
0.0008192134516
0.0008161105575
0.0008124360149
0.0008082865406
0.0008037870075
0.0007987277374
0.0007933247592
0.0007875767484
0.0007817350348
0.0007754589815
0.0007687941619
0.0007616723645
0.0007545769432
0.0007473697983
0.0007397005176
0.000731531174
0.0007234993894
0.0007156356033
0.0007071586255
0.0006981718239
0.0006892478206
0.0006793340715
0.0006675549731
0.0006579860858
0.0006498920511
0.0006415355355
0.0006314940681
0.0006222299165
0.0006129482291
0.0006024845273
0.0005908996115
0.0005791459816
0.0005672041787
0.0005552964752
0.0005440860489
0.0005316038217
0.000516769087
0.0005064180245
0.0004958869828
0.0004796546249
0.0004683888726
0.0004571988455
0.0004425479179
0.0004309154456
0.0004184980401
0.0004052302991
0.0003911323072
0.0003769169243
0.0003628772128
0.0003483946094
0.0003338454603
0.0003192131932
0.0003041316509
0.0002899682378
0.0002749874606
0.0002599295751
0.0002443560404
0.0002096132991
0.0001730070897
0.0001400046226
)


100
(
0.0001849429301
0.0002616173824
0.000322417153
0.0003727323394
0.0004171533618
0.0004568259723
0.0004922603289
0.0005240196947
0.0005529936165
0.0005801778451
0.0006044222838
0.0006276100588
0.000648304183
0.0006667748148
0.0006841499718
0.0006996696471
0.0007135015481
0.0007265839836
0.0007386403099
0.0007495318355
0.0007592586842
0.0007686114225
0.0007770762945
0.00078464643
0.0007912511288
0.0007974505103
0.0008028812174
0.0008075216349
0.0008113030572
0.0008145904798
0.0008173973402
0.0008197116382
0.0008213959948
0.0008222275049
0.000822732608
0.0008225727638
0.0008218831389
0.0008202299867
0.0008184257789
0.0008160255276
0.0008133526685
0.0008103868498
0.0008068284762
0.0008031136101
0.0007989965724
0.000794671108
0.0007895878899
0.0007845810948
0.0007791255287
0.0007736335718
0.0007677478028
0.0007615646441
0.0007549604188
0.0007484560715
0.0007419433094
0.0007349597656
0.0007275761953
0.0007203528696
0.0007131450214
0.0007055609646
0.0006977532583
0.0006899903381
0.0006816983921
0.000672455752
0.0006627497105
0.0006529509994
0.0006429875761
0.00063300317
0.0006225515316
0.0006118478406
0.0006012167493
0.0005906732407
0.0005796205452
0.0005667317018
0.0005533227539
0.0005433898969
0.0005331399802
0.0005194620794
0.0005078750075
0.0004967321945
0.0004851199234
0.0004729373479
0.0004592953244
0.0004459071432
0.0004328468721
0.0004194599515
0.000406835063
0.0003930698237
0.0003789189836
0.0003638461421
0.0003504568382
0.0003367833154
0.0003219163851
0.000308002061
0.0002937872401
0.0002796647105
0.0002639911609
0.0002292582726
0.0001969667214
0.0001671334949
)


100
(
0.0001763874595
0.0002504096593
0.0003091740143
0.0003580135253
0.000401249096
0.0004408344285
0.0004754421971
0.0005075810025
0.0005361449207
0.000563484644
0.000588405493
0.0006110193603
0.0006324607452
0.0006515761902
0.0006688725442
0.0006850834783
0.0006996444729
0.0007126636536
0.0007249947794
0.0007364670733
0.0007468666419
0.0007561282085
0.0007648628933
0.0007729237259
0.0007800559434
0.0007861521403
0.0007915687115
0.0007965045995
0.0008006828223
0.0008040127867
0.0008064008008
0.0008086666128
0.000810353382
0.0008115450244
0.0008114943998
0.0008117943129
0.0008114112418
0.0008107327812
0.0008083081471
0.0008065262634
0.00080404309
0.0008014283094
0.0007981767745
0.0007948672735
0.0007914368541
0.0007877705212
0.0007834956829
0.0007788462791
0.0007744114588
0.000769505524
0.0007644360076
0.0007591534809
0.0007535832469
0.0007476817517
0.0007417957599
0.000735794882
0.0007293853812
0.0007223493701
0.000714731781
0.0007067369623
0.0006985038574
0.0006901206914
0.0006815380151
0.0006727263625
0.0006638500353
0.0006548744183
0.0006455459862
0.0006359584137
0.0006264352712
0.0006168503551
0.0006070062857
0.0005962735267
0.0005851199359
0.0005737763453
0.0005624451932
0.0005495441663
0.0005392096062
0.0005281685919
0.0005168829085
0.0005045022535
0.0004914923746
0.0004788557406
0.0004669806374
0.000454091941
0.0004413177456
0.0004281072917
0.0004150832168
0.0004019207376
0.0003873598007
0.000373993788
0.0003606797428
0.0003465316535
0.0003328830784
0.0003192658713
0.0003057322287
0.0002924142681
0.0002751393085
0.0002440335105
0.0002153303921
0.0001883010572
)


100
(
0.0001687016914
0.0002393676716
0.0002960161379
0.0003432575516
0.0003860763676
0.0004245734736
0.0004590886731
0.0004906683758
0.0005196661532
0.0005461576825
0.0005716600934
0.0005945359745
0.0006157532726
0.0006355725974
0.000653278977
0.0006694522281
0.0006845986003
0.0006982122132
0.0007103643195
0.0007218106637
0.0007326001931
0.0007423130263
0.0007508656865
0.0007585973453
0.0007659893296
0.0007722979734
0.0007774357862
0.0007820628643
0.0007863967545
0.0007900486408
0.0007927484655
0.0007943233973
0.0007963019368
0.0007976950513
0.0007983600778
0.000797962942
0.0007983187967
0.0007980897098
0.0007969883423
0.0007947252934
0.0007931736806
0.0007910668845
0.0007885572917
0.0007856263231
0.0007826746192
0.000779746709
0.0007760085182
0.0007722150716
0.0007679227715
0.0007639077407
0.0007592239783
0.0007545122357
0.0007493762096
0.0007436487307
0.0007375153809
0.0007310166474
0.0007242851759
0.0007172774987
0.0007099711241
0.0007023460232
0.0006944117744
0.00068642223
0.0006784021324
0.0006701365479
0.0006616816874
0.0006531024676
0.0006443395095
0.0006350907206
0.0006254431918
0.0006154666507
0.0006052638499
0.0005950790665
0.0005849666898
0.0005744982251
0.0005638689414
0.0005531787276
0.0005417647492
0.0005300866172
0.0005179125872
0.0005060805052
0.0004946503968
0.0004826027002
0.0004700662039
0.00045730804
0.0004445978226
0.0004319689245
0.0004191786749
0.0004059382212
0.0003922133592
0.0003787867481
0.0003660011621
0.0003526967561
0.0003394515438
0.0003263196713
0.0003134584817
0.0003014688867
0.0002834644014
0.0002555912101
0.0002309070584
0.0002063222945
)


100
(
0.0001615876542
0.0002285497827
0.0002829703709
0.0003289379014
0.0003708179394
0.0004081005
0.0004426599126
0.0004733541868
0.0005026781212
0.0005292347099
0.0005542335624
0.0005776869998
0.0005987016556
0.0006185793244
0.0006369016475
0.0006532654593
0.0006682612275
0.0006822924576
0.000694813929
0.0007059602729
0.0007162458468
0.0007261588804
0.0007349476534
0.0007425967307
0.0007490644945
0.0007557905743
0.0007613437947
0.0007656549005
0.0007697535461
0.0007736039527
0.0007770688171
0.0007786496171
0.0007803369859
0.0007823198041
0.0007838303366
0.0007838703188
0.0007837073837
0.0007842608616
0.0007841590509
0.0007827621342
0.0007808538825
0.0007795713724
0.0007778583229
0.0007755128782
0.0007729659704
0.0007703199584
0.0007672554394
0.0007636004326
0.0007596937704
0.0007552586355
0.0007504534394
0.000745454386
0.0007401152636
0.0007345231054
0.0007284911748
0.0007220870677
0.0007158238516
0.000709251435
0.0007024928546
0.0006955679129
0.0006882499115
0.0006807865024
0.0006729906815
0.0006649432812
0.0006564172643
0.0006476024839
0.000638636855
0.0006294651914
0.0006201145608
0.0006107707957
0.0006012943573
0.0005915662838
0.0005817586889
0.000571499552
0.0005608622716
0.0005501132407
0.0005389119163
0.0005279677966
0.0005170820503
0.0005058122493
0.0004938573639
0.0004817805413
0.0004696089485
0.0004573968119
0.0004450678071
0.0004324966166
0.0004196657824
0.000406984799
0.0003940026955
0.000381204433
0.0003684970456
0.0003554957236
0.0003427595572
0.0003301147881
0.0003180574395
0.0003067135839
0.000289394526
0.0002652070796
0.0002432250228
0.0002217265852
)


100
(
0.0001544761362
0.0002181197205
0.0002703617006
0.0003150187682
0.00035550721
0.0003921751232
0.0004259686102
0.0004566901489
0.0004852413013
0.0005121530608
0.0005364931462
0.000560041733
0.000581587202
0.0006008225381
0.0006193138699
0.0006361441545
0.0006511219424
0.0006648304289
0.0006775070418
0.0006888331745
0.0006988550849
0.0007077621403
0.0007167963703
0.000724726193
0.00073163716
0.0007373469152
0.0007432406297
0.0007483291761
0.0007521260037
0.0007559629454
0.000759625153
0.0007626785119
0.0007637747748
0.0007656642936
0.0007678158026
0.0007689873371
0.0007691251625
0.0007692072389
0.000770059418
0.0007693728887
0.0007682723554
0.0007665946959
0.0007655217193
0.0007636074083
0.000761435749
0.00075877367
0.0007555077112
0.00075190865
0.0007477826052
0.0007433043564
0.0007385767472
0.0007333919008
0.0007281786945
0.0007229395658
0.0007173905343
0.0007114925505
0.0007054200879
0.0006989977239
0.0006926682834
0.000686118969
0.0006792655795
0.0006719304621
0.0006641005247
0.0006559864562
0.0006476210915
0.0006390622006
0.0006304909421
0.0006218587594
0.0006130156424
0.0006039703007
0.000594630271
0.0005847924101
0.0005748497454
0.0005647389297
0.0005544291599
0.0005443263502
0.0005341283081
0.0005235383056
0.0005123708976
0.0005010676941
0.0004896366697
0.0004780991333
0.0004665201528
0.000454477123
0.0004422303005
0.0004298790517
0.0004176241123
0.000404969757
0.0003928724263
0.0003805219738
0.0003679572225
0.0003557101845
0.0003432878972
0.0003313425255
0.0003200999807
0.0003093185377
0.0002932721842
0.0002722328257
0.0002527452736
0.0002336636523
)


100
(
0.0001473677586
0.000208215864
0.0002582670364
0.0003012078441
0.000340197925
0.0003764652881
0.0004090693421
0.0004398251904
0.0004676362455
0.0004945362706
0.0005192158842
0.0005415985418
0.0005635075232
0.0005831765734
0.0006005907773
0.0006175702769
0.0006328287799
0.000646299227
0.0006582520908
0.0006698092337
0.0006800925155
0.0006891817452
0.0006968144575
0.0007051496979
0.0007124692441
0.000718894543
0.0007242677937
0.0007292417113
0.0007340974786
0.0007376289452
0.0007414174348
0.0007451329281
0.0007472061305
0.000748482487
0.0007505646504
0.0007529059705
0.0007535978343
0.0007539584903
0.0007542181167
0.000754598536
0.0007537163678
0.0007525114871
0.000750638904
0.0007487445232
0.0007466431718
0.0007440525171
0.0007410402066
0.000737328074
0.0007330599894
0.0007289861504
0.0007244576955
0.0007197209645
0.000714797118
0.0007096385102
0.0007042464298
0.0006989521823
0.0006930933338
0.0006869462758
0.000680447107
0.0006735527537
0.0006665258277
0.0006594788892
0.0006521489803
0.0006445000457
0.0006365710683
0.0006284811031
0.0006202909624
0.0006118646652
0.0006031396587
0.0005939919603
0.0005845802039
0.0005749859275
0.0005653661841
0.0005558406926
0.0005462020483
0.0005362654782
0.0005258645498
0.0005153236609
0.0005046466768
0.0004938368904
0.0004829489247
0.0004716898812
0.0004600904288
0.0004484186029
0.0004367944482
0.0004249280369
0.0004128617418
0.0004010680687
0.0003890294786
0.0003768699269
0.0003649206732
0.0003528917812
0.0003411842923
0.0003300238188
0.000319259586
0.0003095380481
0.0002946402164
0.0002765793424
0.0002593750123
0.0002423883516
)


100
(
0.0001402626911
0.0001985144228
0.000246386768
0.0002875246905
0.0003255366633
0.0003607030518
0.0003926730282
0.0004226873867
0.0004505759431
0.0004764209878
0.0005012965627
0.0005237814923
0.0005444685577
0.000564388363
0.0005821381848
0.0005976321402
0.0006130033692
0.0006267061865
0.0006387229912
0.0006491423592
0.0006597607587
0.0006692167122
0.000677605514
0.0006846650113
0.00069197184
0.0006988871169
0.0007049810458
0.000710141161
0.0007143817868
0.0007189517634
0.0007224751774
0.0007263979221
0.0007294765619
0.0007313296287
0.0007327052018
0.0007349540143
0.0007365658358
0.0007373193997
0.0007375405865
0.000737332031
0.0007367858985
0.0007357073833
0.0007341372091
0.0007320936923
0.0007291820308
0.0007265563114
0.0007238122103
0.0007206768446
0.0007169862129
0.0007129038496
0.0007083412899
0.0007041866943
0.0006995811949
0.0006946899004
0.0006895777076
0.0006840928545
0.0006779378271
0.0006719495531
0.0006655048468
0.0006588789924
0.0006520162442
0.0006449201081
0.0006378972473
0.0006307733403
0.0006232267887
0.0006154599874
0.0006073133809
0.00059880401
0.0005902053412
0.0005814162604
0.0005723995788
0.0005631885203
0.0005540207984
0.0005446040872
0.0005348663694
0.0005249689755
0.0005149332747
0.0005048085998
0.000494615764
0.0004840808553
0.0004731239711
0.000462131219
0.0004511176129
0.0004401362602
0.0004286820255
0.0004172885381
0.0004055944169
0.0003939940375
0.000382251235
0.0003707137431
0.0003589748647
0.0003476125974
0.0003361889688
0.000325636722
0.0003159306922
0.0003068490848
0.0002938321274
0.0002782225738
0.000263190709
0.0002482794274
)


100
(
0.0001337894939
0.0001890493852
0.000234728865
0.000274094317
0.0003111538442
0.0003449304153
0.000376556749
0.0004053270057
0.0004331720721
0.0004586763825
0.0004827755498
0.0005053925345
0.0005256513278
0.0005445291349
0.0005624631664
0.0005783055293
0.0005918916459
0.0006057591883
0.0006181287682
0.0006290441011
0.0006382023901
0.0006480971933
0.0006569411296
0.0006647808269
0.0006714710361
0.0006777697854
0.0006843996145
0.0006902091977
0.0006951861263
0.0006993479895
0.0007030039967
0.0007064948098
0.0007107557065
0.000712847555
0.000714682312
0.0007159139083
0.0007175175738
0.0007184775571
0.0007190886359
0.0007190697473
0.0007180796453
0.000716879087
0.0007154757213
0.0007135452707
0.0007112570398
0.0007083776868
0.0007050668901
0.0007021362712
0.0006991538362
0.0006954333369
0.0006914593058
0.0006871341263
0.0006823444954
0.0006775707291
0.0006725084898
0.0006670890738
0.0006615050286
0.0006552006341
0.0006486611772
0.0006425550487
0.0006360794848
0.000629289008
0.0006223603481
0.0006151387151
0.0006076312001
0.0006000061285
0.0005921976191
0.0005840465447
0.0005755654164
0.0005673587038
0.0005586721024
0.0005498070128
0.0005405408735
0.0005311825751
0.000521707128
0.0005120689426
0.0005023250902
0.000492417051
0.0004821455928
0.0004718609942
0.0004614728309
0.0004510085504
0.0004403552899
0.0004294031221
0.0004183104125
0.000407407947
0.0003960090319
0.0003848269821
0.00037358351
0.0003621529444
0.0003510735063
0.0003397939059
0.000329005949
0.0003191208205
0.0003103640358
0.0003020783907
0.0002914673716
0.0002780006836
0.0002650828304
0.0002517956054
)


100
(
0.0001280402772
0.0001798862752
0.0002233261628
0.0002614140705
0.0002969049714
0.0003295728931
0.0003603817199
0.0003886995875
0.0004154718015
0.0004409265472
0.0004640480411
0.0004863184795
0.0005066718758
0.0005247233373
0.0005417476466
0.0005578013877
0.0005719474337
0.0005839578211
0.0005964627522
0.0006078423872
0.0006179191248
0.0006264933987
0.000635375274
0.0006437448683
0.0006511393163
0.0006575321579
0.0006630083636
0.000669188885
0.0006747506528
0.0006795136852
0.000683562045
0.0006866725664
0.0006899303998
0.0006931679109
0.0006949596419
0.0006964960355
0.0006976770309
0.0006980244032
0.0006988939104
0.00069905071
0.0006986593752
0.000697425222
0.0006954186966
0.00069377624
0.0006919018334
0.0006895229113
0.0006866886555
0.0006835453833
0.0006799316807
0.0006765225616
0.0006727945224
0.0006687451814
0.0006643857821
0.0006595418227
0.0006537596372
0.0006487446538
0.0006434567332
0.0006377200182
0.0006316357193
0.0006252908475
0.000618642207
0.0006122622461
0.0006055012331
0.0005985620137
0.0005911223753
0.0005832183527
0.0005759324956
0.0005682258243
0.0005602924226
0.000552125952
0.0005435439873
0.00053481477
0.0005258929829
0.0005167808287
0.0005075632054
0.0004982699364
0.0004884667581
0.0004785379314
0.0004686544952
0.0004587960834
0.0004488718785
0.0004384081868
0.000427855386
0.0004173589251
0.0004068875695
0.0003960244443
0.0003850031451
0.0003743410843
0.000363335187
0.0003522751425
0.0003412980661
0.0003306732654
0.0003205504587
0.0003112606388
0.0003029173264
0.0002964645411
0.0002881503257
0.000276539586
0.000265743646
0.0002547581888
)


100
(
0.00012229365
0.0001711516364
0.0002125226073
0.0002489674812
0.0002828208678
0.0003147440065
0.0003441950486
0.0003721512762
0.0003977675998
0.0004228148918
0.0004458709623
0.0004666222932
0.0004869975561
0.0005051620667
0.000521115357
0.0005364390381
0.0005508914177
0.0005636824217
0.0005744975353
0.000585798606
0.0005964654843
0.0006058948892
0.0006140160105
0.0006218822346
0.0006298552129
0.0006368554533
0.0006429543033
0.0006482213359
0.0006532559605
0.0006585650298
0.0006630325699
0.00066679398
0.0006697365416
0.0006717271046
0.0006742373671
0.000676126905
0.0006774320936
0.0006781839693
0.0006778658677
0.0006776014059
0.0006776541115
0.0006771696581
0.0006758494999
0.0006740034764
0.0006716122491
0.0006696296024
0.0006672427076
0.0006643023339
0.0006610344253
0.000657511363
0.0006532230744
0.0006492492946
0.0006451896051
0.0006408223681
0.0006357773416
0.0006303060821
0.0006244195131
0.0006194147023
0.0006135511458
0.0006074831024
0.0006013937658
0.0005946170041
0.0005876816515
0.0005811173231
0.0005742230777
0.0005668030642
0.0005591870764
0.000551654735
0.0005438567145
0.0005358456107
0.0005276209108
0.0005191729103
0.0005105778621
0.0005018295638
0.000492872725
0.0004834631973
0.000473925546
0.0004643320299
0.0004547480147
0.0004451795734
0.0004351379605
0.0004250209438
0.0004149264606
0.0004048960116
0.0003942508305
0.0003837700951
0.0003734849783
0.0003628952784
0.0003520124405
0.0003414611532
0.0003307141669
0.0003205324473
0.0003105847955
0.0003018094147
0.0002947932075
0.0002901506993
0.0002839130957
0.0002741875422
0.000265333576
0.0002554421226
)


100
(
0.0001165494843
0.0001628175994
0.0002020861552
0.0002367799204
0.0002692491821
0.0003000513709
0.0003284622747
0.0003555439037
0.00038082745
0.0004043823941
0.0004272952495
0.0004479880599
0.0004667168294
0.0004849456721
0.0005011516436
0.0005152782009
0.0005291203378
0.0005422897918
0.000553964776
0.0005639657665
0.0005741555457
0.0005842440579
0.0005931212814
0.0006008534323
0.0006076502532
0.0006152690583
0.000621891842
0.0006276527388
0.000632645019
0.0006368065445
0.000641336151
0.0006454090451
0.0006488130646
0.0006514874976
0.0006531955727
0.0006542627457
0.0006559073799
0.0006569284281
0.0006574347321
0.00065701687
0.0006560347385
0.0006554983497
0.0006550666136
0.0006536537973
0.0006518143255
0.0006495167477
0.0006466718378
0.000643953529
0.0006410411221
0.000637691155
0.0006341272915
0.0006297643146
0.0006249199363
0.0006210926096
0.0006168255449
0.0006116288564
0.0006062500714
0.0006005639355
0.0005945216178
0.0005890490286
0.0005831827043
0.0005771479522
0.0005701466612
0.0005628930489
0.0005566402002
0.0005495902868
0.0005423008218
0.0005347281569
0.0005269555866
0.0005191105104
0.0005110645814
0.0005028276508
0.0004945101673
0.0004859253072
0.0004770805356
0.0004681334166
0.0004590310567
0.0004497313701
0.000440295949
0.0004305289792
0.0004207811994
0.000411064174
0.0004013930943
0.0003912265896
0.0003810214404
0.0003710555306
0.000360883639
0.0003507139398
0.0003406551266
0.0003298397698
0.0003195384598
0.0003095776078
0.0002999297983
0.0002915196521
0.000285551801
0.0002827241579
0.0002785110082
0.0002706282825
0.0002636933883
0.0002563521147
)


100
(
0.0001108076538
0.0001547403522
0.0001919622632
0.0002248806806
0.0002562429149
0.0002855285825
0.0003132510866
0.0003389177914
0.0003637834962
0.000386690156
0.0004083818152
0.0004289590325
0.0004473743628
0.0004641727227
0.0004805249708
0.000495093177
0.0005077458249
0.0005202414293
0.0005323917275
0.0005431787014
0.0005525812935
0.0005616447468
0.0005712131478
0.0005795833031
0.0005869300944
0.0005933570778
0.0005998305203
0.000606046937
0.0006113855939
0.0006159733925
0.0006198264165
0.0006228667655
0.0006266293376
0.0006296230557
0.0006319656864
0.0006333781187
0.0006337104329
0.0006345696979
0.0006355257092
0.0006358618239
0.0006354010305
0.000634487302
0.0006330056484
0.000632051179
0.0006305409509
0.0006286518897
0.0006264163698
0.0006237275849
0.0006197170348
0.0006167577199
0.0006135077511
0.0006099051205
0.0006056268546
0.000601084532
0.0005962406745
0.0005918360757
0.0005868089929
0.0005816095639
0.0005763080525
0.0005698010272
0.0005639609889
0.000558444802
0.0005520668921
0.0005453627124
0.000538447642
0.0005313064103
0.0005241990678
0.0005169593371
0.00050949055
0.0005018319644
0.0004941538357
0.0004863236508
0.0004778600991
0.0004692862496
0.0004606508211
0.0004519070474
0.0004430005353
0.0004340128897
0.0004246514435
0.0004153247264
0.0004059044991
0.0003964466258
0.0003865266883
0.0003766412263
0.0003669427621
0.0003572992139
0.0003473255286
0.000337205879
0.0003270142121
0.0003172174493
0.0003068984387
0.0002977116423
0.0002885087185
0.0002806504344
0.0002751755802
0.0002739740339
0.0002715402503
0.0002655101823
0.0002604491015
0.0002553514047
)


100
(
0.000105770492
0.0001469477995
0.0001821500574
0.0002135522944
0.0002435105944
0.0002713971429
0.0002981848084
0.0003230296083
0.0003466763173
0.0003692031584
0.0003897826559
0.0004095637439
0.0004279347909
0.0004442673096
0.0004593914184
0.0004741685332
0.0004873971035
0.0004988644708
0.000510094487
0.0005214250299
0.000531497645
0.0005403825561
0.0005482737845
0.0005573206887
0.0005651910559
0.0005721118259
0.0005781638992
0.0005832896927
0.0005890284835
0.0005939621394
0.0005981572878
0.0006016501404
0.0006039961134
0.0006065581804
0.0006093019514
0.0006114260146
0.0006125923455
0.0006129330716
0.0006126653139
0.0006132589607
0.0006134837129
0.0006129000358
0.0006118742279
0.0006104214712
0.000608372425
0.0006065597522
0.0006046397934
0.0006023113825
0.0005994165451
0.0005956500919
0.0005915006626
0.0005885583237
0.0005848737836
0.0005806223111
0.0005761410564
0.0005716331854
0.0005661866127
0.0005614210465
0.0005563551669
0.0005507824749
0.0005446517614
0.0005382791352
0.0005328378653
0.0005264225791
0.0005197884673
0.0005129358505
0.0005058677941
0.0004987133078
0.0004913548172
0.0004838701261
0.0004761465212
0.0004679105838
0.0004598846607
0.0004517048409
0.0004434211211
0.0004350532149
0.0004263550766
0.0004173236939
0.0004081018686
0.0003987902607
0.0003897090491
0.0003803105242
0.0003709016179
0.0003612784143
0.000351656992
0.0003415192998
0.0003318064147
0.0003223760113
0.0003126051724
0.0003025755053
0.0002927679764
0.0002827197939
0.0002745322903
0.000266699621
0.0002636337053
0.0002638314812
0.0002629393667
0.0002586714347
0.0002553137041
0.0002519186206
)


100
(
0.0001012116792
0.0001394977486
0.0001727195542
0.000202666598
0.000231070067
0.0002579809775
0.0002832941932
0.000307458736
0.0003297821356
0.0003516458582
0.000371886786
0.0003900796566
0.0004081515056
0.0004245949843
0.0004391128481
0.0004527783186
0.0004662402872
0.0004782922472
0.0004888597204
0.0004988663892
0.0005095210323
0.000518953097
0.0005273303643
0.0005347705446
0.0005424632375
0.0005498026646
0.0005562160989
0.0005617906205
0.0005666232268
0.0005708691092
0.0005753650977
0.000579137229
0.0005823020605
0.0005843582308
0.0005855955074
0.0005880696332
0.0005900640067
0.0005909879302
0.0005912577957
0.0005910011591
0.0005901321797
0.000590008892
0.0005894583362
0.0005885111824
0.0005871687993
0.0005847839849
0.0005813764007
0.0005795751449
0.0005773362416
0.0005742367927
0.0005706251693
0.0005666635237
0.0005624730638
0.0005588770999
0.0005549859182
0.0005508306491
0.0005459155874
0.000539974358
0.000535153954
0.000530400576
0.0005245843275
0.0005187033001
0.0005125175445
0.0005061559867
0.0004995930603
0.0004930883992
0.0004863317529
0.000479339093
0.0004723972028
0.0004651215399
0.0004573732472
0.0004494970663
0.0004414764479
0.0004333344359
0.000425091107
0.0004164242227
0.0004079133276
0.0003993754227
0.000390711496
0.0003817762088
0.0003724807872
0.0003628719661
0.0003536299742
0.0003446164711
0.0003348782368
0.0003253702424
0.00031588611
0.0003062215837
0.0002968077699
0.000286874706
0.0002775324618
0.0002681683556
0.0002596264345
0.0002527801531
0.0002502895856
0.0002523958044
0.0002528934876
0.0002503257243
0.0002484835269
0.0002470861751
)


100
(
9.66548006e-05
0.000132480346
0.0001637742509
0.0001921228394
0.0002190065118
0.0002448513918
0.0002688995889
0.0002920478273
0.0003137409143
0.0003340474412
0.0003539037602
0.0003719533233
0.000388139088
0.0004045476792
0.0004193601247
0.0004323636822
0.0004446625122
0.0004570120442
0.0004680751184
0.0004779000171
0.0004867248203
0.0004967305006
0.0005055431863
0.0005133888242
0.0005203393389
0.0005265125606
0.0005333058673