/*--------------------------------*- C++ -*----------------------------------*\
| =========                 |                                                 |
| \\      /  F ield         | OpenFOAM: The Open Source CFD Toolbox           |
|  \\    /   O peration     | Version:  2.3.1                                 |
|   \\  /    A nd           | Web:      www.OpenFOAM.org                      |
|    \\/     M anipulation  |                                                 |
\*---------------------------------------------------------------------------*/
FoamFile
{
    version     2.0;
    format      ascii;
    class       dictionary;
    location    "constant";
    object      H2O;
}
// * * * * * * * * * * * * * * * * * * * * * * * * * * * * * * * * * * * * * //

H2O_table
100
(

100
(
0.1044558144
0.1025413335
0.1009738815
0.0996084582
0.09833945104
0.09710932941
0.09594338287
0.09479854883
0.09368365137
0.09255619943
0.09148318368
0.0903848938
0.0893424376
0.08832680494
0.08727992937
0.08628048862
0.08531483367
0.0842925081
0.08330645056
0.08235279399
0.0813539997
0.08035742273
0.07938622122
0.07842097575
0.07742891766
0.07646072032
0.07551620117
0.07455183373
0.07355263438
0.07257547667
0.07161945278
0.07065039612
0.06968168941
0.06873319726
0.06780529716
0.06686055388
0.06586007174
0.06488171031
0.0639244779
0.06296087467
0.06196075336
0.06098142529
0.06002322794
0.05906689886
0.05809375914
0.05714059218
0.05620721214
0.05528693535
0.05427907614
0.05329075409
0.05231975862
0.05135025956
0.05033358196
0.04933314009
0.04834990121
0.04736582251
0.04637457699
0.04540180351
0.04444795962
0.04347909569
0.04247349815
0.04148746602
0.04052227636
0.0395319009
0.03851480828
0.03751923096
0.03654662722
0.03551816501
0.03449447162
0.03349460574
0.03248405871
0.03143645916
0.03041391307
0.02940228962
0.02833607399
0.02729681958
0.0262655791
0.02518728595
0.02413861836
0.02307262027
0.02199239336
0.02094020341
0.0198356862
0.01876894295
0.0176605202
0.01658203378
0.01546480027
0.01437177956
0.01325592673
0.0121416688
0.01103300885
0.009921099917
0.008800037559
0.00767164904
0.006534923975
0.005398658238
0.004226900542
0.003017696052
0.001749292176
1.191889032e-08
)


100
(
0.1046332828
0.1028166052
0.1013084919
0.1000047297
0.09878106136
0.09759555098
0.09649169209
0.09537612103
0.094313387
0.09322433271
0.09217036151
0.09113212036
0.09010513917
0.08912376966
0.08814301479
0.08716090213
0.08621702055
0.08528746128
0.08432025547
0.08337951592
0.08245655991
0.08150608382
0.08054931711
0.07961312493
0.07869508866
0.07774189478
0.07680917329
0.07589552305
0.07499579491
0.0740383635
0.07309483431
0.07216834582
0.07125813695
0.07032211941
0.06940530207
0.06850698314
0.06762221598
0.06670906472
0.06576813058
0.0648438492
0.06393604301
0.06302537997
0.06208245394
0.0611567659
0.06024888588
0.0593537729
0.05843338594
0.0575302412
0.05664233519
0.05576719147
0.05486012381
0.05392102434
0.05299376043
0.05207996969
0.05115224475
0.0502002196
0.04926356131
0.04834361712
0.04742310328
0.04649592299
0.04555641441
0.04469795247
0.04382249292
0.0428550649
0.04190903329
0.04107831497
0.04020626357
0.03918333787
0.03831301288
0.03747063789
0.03654036534
0.03556271377
0.03475682195
0.0338716211
0.032817883
0.0319356213
0.03117296224
0.03013195686
0.0292376543
0.02849650669
0.0274431811
0.02666752607
0.02580711251
0.02477837368
0.02415966066
0.02314794027
0.02232095615
0.02157132913
0.02058388537
0.01988973811
0.01895281703
0.01816633307
0.01718244021
0.01632886366
0.01527341162
0.01435515612
0.01317321912
0.01158731265
0.009113130112
0.006772781047
)


100
(
0.1048106803
0.1030872765
0.1016380257
0.1003941764
0.09920294629
0.09807556731
0.09699786135
0.09594729536
0.09490819085
0.09388653448
0.0928515069
0.09185719337
0.09086506268
0.08989975329
0.08897133109
0.08803632327
0.08710838849
0.08620933076
0.08532600563
0.08440252762
0.08349717261
0.08260802115
0.08170663773
0.08078609924
0.07988319886
0.07899793303
0.0780980886
0.07719867538
0.07631636572
0.07544872064
0.0745639217
0.07365317474
0.0727567669
0.07187656586
0.07100168786
0.07011550002
0.06924698392
0.0683948332
0.06755731529
0.06669042232
0.06580067325
0.06492585095
0.06406745425
0.0632192273
0.06232692316
0.06144923862
0.06058784616
0.0597424192
0.05888507371
0.05802584373
0.05718012791
0.05634686424
0.05552037037
0.05462651375
0.05373310443
0.05285479296
0.05203653909
0.05112788067
0.05022982693
0.04934922271
0.04852609563
0.04761527431
0.04680024112
0.0459880598
0.04511277269
0.04422537337
0.0434570958
0.04268545702
0.04177335575
0.04097774537
0.04022475947
0.03946092605
0.03860194743
0.0378316984
0.03708051364
0.03621561197
0.03526013582
0.03454669435
0.03385599662
0.03300255447
0.03226836276
0.03142783254
0.03077981437
0.02982236826
0.02910350974
0.02842635846
0.02756467904
0.02685548211
0.0261169684
0.02529071624
0.02448242598
0.02366952739
0.02281773881
0.02184259748
0.02096508796
0.01993965603
0.01867729628
0.0165034707
0.01422763266
0.01192688349
)


100
(
0.104988008
0.103348726
0.1019608584
0.1007550696
0.09961770967
0.0985481928
0.0974964724
0.09650778402
0.09549561076
0.09451424786
0.09352776091
0.09255271284
0.0916165674
0.09067051233
0.08975980032
0.08888260103
0.08799300801
0.08711136754
0.08625432232
0.08541614316
0.08452880255
0.08365701876
0.08280161481
0.08195046735
0.08106389088
0.08019363585
0.0793405396
0.07849404526
0.07762589204
0.07677406474
0.07593742271
0.07511367375
0.07424659896
0.07338060401
0.07252996783
0.07169614837
0.07086060608
0.07002175731
0.06919954372
0.06839319336
0.06760082126
0.06678252163
0.06593247009
0.06509501611
0.06427302736
0.06348619371
0.06263438932
0.06179309314
0.06096830701
0.06021704732
0.05938165645
0.05855484632
0.05774144629
0.05698651787
0.0561481333
0.05528317061
0.05446202904
0.05375155388
0.05293921581
0.0520742677
0.05128555875
0.05054057334
0.04970599773
0.04891909839
0.04815128286
0.04737629492
0.0465779314
0.04583979875
0.04512028668
0.04438520538
0.04359839649
0.04282640884
0.04207116994
0.04134821055
0.04064339727
0.03987409963
0.03902115501
0.03839760442
0.037767053
0.0368507286
0.03618373706
0.03554337509
0.03474536342
0.03407800111
0.03339972232
0.03268712193
0.03192856592
0.03118195403
0.03043635598
0.02966158852
0.02887484271
0.02807901387
0.02722733825
0.02640328784
0.02543620549
0.02440063327
0.02310448727
0.02059346558
0.01849556755
0.0162433002
)


100
(
0.1051652669
0.1035918339
0.1022628522
0.101108681
0.1000270695
0.09898855565
0.09798831822
0.09702473642
0.09607558754
0.09511790672
0.09419272118
0.09324187345
0.09232390737
0.09143583197
0.0905413679
0.0896813081
0.08885117442
0.08800528474
0.08716509676
0.08634521509
0.08554082242
0.08469615987
0.08385739728
0.0830344277
0.08222636993
0.08138069683
0.0805420284
0.07971973506
0.07891333788
0.07808877437
0.0772660139
0.0764576403
0.07566232323
0.07486949981
0.07402871059
0.07320021008
0.0723882845
0.07162012077
0.07080870243
0.07001029891
0.069226717
0.06846331371
0.06770061432
0.06687828333
0.06606912978
0.06530789511
0.06461850731
0.06379738203
0.06298390448
0.06222935435
0.06153917263
0.06074942428
0.05994781774
0.0591990176
0.058483147
0.05769140659
0.05688038818
0.05618441132
0.05550563075
0.05477592809
0.05400477823
0.05327276041
0.05255427936
0.05180449753
0.05102710622
0.05026337214
0.04951612596
0.04880709362
0.04807160095
0.04734439577
0.04663029301
0.04592935774
0.04522779611
0.04445885795
0.04368944912
0.04309050353
0.04249152068
0.04172447595
0.0410486988
0.04042480315
0.039800816
0.03913621594
0.0383948507
0.03768877065
0.03700505431
0.03629201976
0.03563238025
0.03490947451
0.03416604116
0.03332308493
0.03262770096
0.03189621422
0.0310313917
0.0302196065
0.02926934428
0.0282153811
0.0267398703
0.0242402879
0.02217156914
0.01997484974
)


100
(
0.1053424801
0.1038303517
0.1025584679
0.1014566918
0.1004270198
0.09941934756
0.09847293323
0.09753350622
0.09663488024
0.09571332174
0.09481013079
0.09392392832
0.09302495175
0.09216065
0.0913169237
0.09047257616
0.08965875477
0.08887079763
0.08806733976
0.08726358739
0.08647595406
0.08570213541
0.08490304155
0.0840961831
0.08330385361
0.08252529553
0.08173358054
0.08092480799
0.080124722
0.07933904519
0.07856725512
0.07776775858
0.07698062477
0.07620630176
0.07546482509
0.07465180344
0.07385043378
0.07306796484
0.07238772059
0.07161066644
0.0708383362
0.07008109372
0.06938217438
0.06864555884
0.06785021142
0.06707742508
0.06642316095
0.06578029994
0.06498852303
0.06422726579
0.06355023091
0.06288547861
0.06214496488
0.06140436149
0.06070145036
0.06001012423
0.05929085122
0.05859839294
0.05789115941
0.05719475558
0.0565173898
0.05582371162
0.05508583705
0.05435902457
0.05366744924
0.05299899945
0.0522982299
0.05157953385
0.05089372331
0.05022295059
0.04956367626
0.04885323192
0.04814133121
0.04744280659
0.04678943362
0.04605802864
0.04545499832
0.04484557077
0.04424544044
0.04358014921
0.04287055199
0.04221113621
0.04163244473
0.04095474564
0.0402943152
0.03960908605
0.03889753227
0.03818974682
0.03745526266
0.03677530761
0.03601647128
0.03524225713
0.03445143519
0.03360895825
0.03270095192
0.03157094347
0.02978665516
0.02748263123
0.0254709757
0.02333594146
)


100
(
0.1055058342
0.1040636109
0.1028480195
0.1017982819
0.1007998068
0.09984327704
0.09892898612
0.09803487269
0.09715962973
0.09630012647
0.09541909293
0.09456768264
0.09371901703
0.09287254893
0.09205793316
0.09125763119
0.09045882445
0.08968648508
0.08893602073
0.08817353011
0.08740159158
0.08664385494
0.08589967177
0.0851477028
0.08437095141
0.08360716487
0.08285524875
0.08208518629
0.08129686
0.08052300321
0.0797783559
0.0790575556
0.07828445657
0.0775224718
0.07679274951
0.07608966419
0.07530404005
0.07453199281
0.07382976218
0.07318702788
0.07244444954
0.0716990778
0.07099622193
0.0703326595
0.06962333094
0.06885845755
0.06819702619
0.06757126853
0.0669522489
0.06621675793
0.06554971247
0.0648969093
0.06425252843
0.06357361248
0.06285908276
0.0621528659
0.06145755087
0.06078428024
0.06011122311
0.05942232234
0.05874609708
0.05809863635
0.05747225416
0.05685436642
0.05617278233
0.05551004524
0.05486317448
0.05420531804
0.05356681351
0.05288204774
0.05219355908
0.05153304565
0.05091043466
0.05025920749
0.04960171116
0.04897382201
0.04831685876
0.04768590344
0.0470319493
0.04640527744
0.04580655746
0.04517567669
0.04454654765
0.04391632277
0.04327124946
0.04262498725
0.04196919415
0.04125100945
0.04051360933
0.03983043496
0.03913268264
0.03836403795
0.03756891161
0.03673086785
0.03581642372
0.03472393535
0.03269249274
0.03054900577
0.02857450735
0.02651714946
)


100
(
0.1056600684
0.1042907669
0.103131037
0.1021236062
0.1011647636
0.1002601072
0.09937142402
0.0985284093
0.09767579532
0.09684990921
0.09601948235
0.09518948369
0.09438741169
0.0935774358
0.09277968344
0.09201078887
0.09125264743
0.09049488293
0.08975911693
0.08904190967
0.08831896367
0.08757681239
0.08684797416
0.08613241636
0.0854258071
0.08467777584
0.08394081787
0.08321402532
0.08246102095
0.08169809589
0.08095189404
0.08028057411
0.07957995165
0.07883211136
0.07809607227
0.07742924803
0.0767485567
0.07599046302
0.07526297366
0.07463282859
0.07401748352
0.0733107844
0.07260394982
0.07195234617
0.07131306641
0.07063558228
0.06996446382
0.06934549841
0.0687399432
0.06812664781
0.06747471882
0.06679865969
0.06613063645
0.06547270188
0.06484711693
0.06423105884
0.06354955657
0.06287505269
0.06222438548
0.06159007619
0.06096638294
0.06031446893
0.05969298976
0.05908486667
0.05846586669
0.05785518218
0.05722904542
0.05656477742
0.05591227553
0.05532745791
0.05475546098
0.05413217938
0.05351237848
0.05287361933
0.05223379704
0.05161089304
0.050947539
0.05034639248
0.04977729839
0.0491751396
0.04853916308
0.04791288124
0.04729459319
0.04668414663
0.04607366465
0.04544702204
0.04479869393
0.04413513686
0.04340914679
0.042740636
0.0420636369
0.04128957266
0.0405161865
0.03967715172
0.03875705047
0.03762346817
0.03546559828
0.03345813417
0.03154989908
0.02955395909
)


100
(
0.1058142615
0.1045087853
0.1034014747
0.102434376
0.1015229123
0.100653746
0.09980626257
0.09898986175
0.09818392842
0.09738018284
0.09660093423
0.09580217998
0.09502056485
0.09426506438
0.09349429359
0.09274139102
0.09201446887
0.0912961554
0.09057453347
0.08987241852
0.08918473791
0.08850075233
0.08778690082
0.08708553133
0.0863967869
0.08572266232
0.08501663245
0.0843061468
0.0836038149
0.08286866442
0.08213186233
0.08143335537
0.08081310918
0.08013415499
0.07941199997
0.07873055287
0.07809728012
0.07744023459
0.07671122339
0.07607120862
0.07546868515
0.07487678317
0.07420731071
0.07356400684
0.07293535005
0.07231805131
0.07169302564
0.07105369369
0.0704258251
0.06980813585
0.06919830684
0.06860141974
0.06798218827
0.06733377955
0.06669539549
0.06609702593
0.06551144918
0.06493276711
0.06430750281
0.06368024978
0.06306258741
0.06243209813
0.06182269216
0.06122107008
0.06060569945
0.05999970682
0.05941820407
0.05885038403
0.05825947894
0.05765961599
0.05708704215
0.05649020728
0.05591959553
0.05529640239
0.0546527714
0.05408535329
0.05353267421
0.05293872882
0.05232123828
0.05171263984
0.05111011411
0.05051205335
0.04992245156
0.04930678446
0.04868088006
0.048051389
0.04743166336
0.04677959093
0.04611339807
0.04542433279
0.04470339677
0.0439830195
0.04320349583
0.04238854493
0.04143330053
0.04027841607
0.03807250408
0.03618298921
0.03434240319
0.03240178451
)


100
(
0.1059684084
0.1047155776
0.1036587458
0.1027375808
0.1018733829
0.1010322394
0.1002332326
0.09944043888
0.09867818631
0.09790169202
0.09714374631
0.09640537002
0.09564410674
0.09490804063
0.09419624992
0.09346468616
0.09275254488
0.09206228258
0.0913847198
0.09069553665
0.09002121032
0.08936013959
0.08871507698
0.08802951174
0.0873544734
0.08669173173
0.08604391447
0.08538694215
0.08470254059
0.08402418099
0.08330834926
0.08259760801
0.08197203586
0.08137675025
0.08071966139
0.08002650762
0.07940454872
0.07879585979
0.07816445091
0.07750585466
0.0769101463
0.07633019505
0.07575914557
0.07514166068
0.07450317651
0.07387350376
0.073254568
0.07266214311
0.07208339212
0.07147456923
0.07087388588
0.07028309078
0.06970422641
0.06913241487
0.06855142226
0.06793978346
0.0673615322
0.06679278338
0.06621776191
0.06564828981
0.06505826093
0.06443384258
0.06381837755
0.06324765556
0.06269857245
0.06213208529
0.06155022139
0.06098870587
0.06041432313
0.05984815509
0.05929202221
0.05870215295
0.0581333744
0.0575967201
0.0570562029
0.05647215364
0.0558795598
0.05529364801
0.05470883413
0.0541271229
0.05355371705
0.05296489305
0.05234718674
0.05173040187
0.0511269615
0.05051045458
0.04989073258
0.04929063929
0.04862851193
0.04794849313
0.04726041413
0.04651703809
0.04576954974
0.04491491204
0.04387103627
0.04268929949
0.0404591889
0.03868250667
0.03690680478
0.03503755146
)


100
(
0.1061225111
0.1049174562
0.1039089405
0.103033884
0.1022038402
0.101402511
0.1006378553
0.09988297455
0.09914305705
0.09841470419
0.09767732915
0.09696320787
0.09625789706
0.09554129382
0.09484788714
0.09417696727
0.09348329212
0.0928076827
0.09215135283
0.09151168078
0.09085030534
0.09020202793
0.08956648713
0.08894711955
0.0883035468
0.08765435324
0.08701672128
0.08639409566
0.08578121898
0.085128881
0.08447285151
0.08377723
0.08312586528
0.08254142212
0.08196939831
0.08133550548
0.0807062397
0.08010781228
0.07952152827
0.07892873461
0.07832585925
0.07772709319
0.07713951204
0.07656173381
0.07600320322
0.07540953656
0.07480062586
0.07420163563
0.07363304393
0.07308181535
0.07253891466
0.07195696306
0.07138399568
0.07082143643
0.07026550613
0.06971077338
0.06916596944
0.06858776584
0.06801611629
0.0674522901
0.06690946163
0.06637733811
0.06580907454
0.06522660655
0.0646829688
0.06414704527
0.06358259724
0.06302527584
0.06244024064
0.06186824993
0.0613671823
0.06087550014
0.06032429124
0.05978144497
0.05922492155
0.05867397249
0.05810963881
0.0575473756
0.05699111138
0.05642049261
0.05582215701
0.05523013493
0.05464033876
0.05405391603
0.0534440036
0.0528365412
0.05220847798
0.05158391748
0.05093679574
0.05028475883
0.04958795049
0.04888607399
0.04812314863
0.04720689005
0.04628134676
0.04481851415
0.04260806799
0.04097484604
0.0392331084
0.03742395709
)


100
(
0.1062680847
0.1051146119
0.1041525765
0.1033208714
0.1025220981
0.1017646992
0.1010256259
0.1003168524
0.09959924705
0.09890069969
0.09820213313
0.09750784556
0.09683553103
0.09616432106
0.09548866022
0.09483410205
0.09420264166
0.09354485451
0.09290231441
0.09227598535
0.09167159082
0.09103665782
0.09041323753
0.08980328441
0.0892083878
0.08860806032
0.08798390514
0.08737073599
0.08677106369
0.08618082293
0.08558004825
0.08495099339
0.08427632324
0.08369782835
0.08313844577
0.08258794911
0.08199753589
0.08140582905
0.0808089821
0.08022270557
0.07965688051
0.07908389782
0.07850400625
0.07793486855
0.07737781358
0.07684104843
0.07631138696
0.07574548116
0.07516689321
0.07462180707
0.07408684992
0.07355947299
0.07303733664
0.07247989516
0.07191595748
0.0713586839
0.07081108063
0.07030529378
0.06979907318
0.0692456649
0.06870317489
0.06818063733
0.06766406326
0.06714217524
0.06659389463
0.06602595188
0.06546472692
0.06494717256
0.06444655582
0.06388060492
0.06337642455
0.06287577209
0.06235185384
0.06182474317
0.06129749069
0.06077704136
0.06025011662
0.05969433159
0.05911364297
0.05853802518
0.05797140394
0.0574115921
0.05684575255
0.05625502155
0.05564534242
0.05504449185
0.05441577456
0.05381322809
0.05317594883
0.05251783787
0.0518591467
0.05114021243
0.0503764736
0.0494970263
0.04855731483
0.04677357327
0.04462996148
0.04312432158
0.0414095595
0.03963494086
)


100
(
0.1064038813
0.105306321
0.1043893302
0.103589997
0.102832227
0.1021111217
0.1014044632
0.1007234691
0.1000467308
0.099369633
0.09871071944
0.09804346351
0.0973898672
0.09675621535
0.09611934093
0.09548192565
0.09486330352
0.09426737134
0.09364513946
0.09303194313
0.09243328453
0.09185273258
0.09125329446
0.09065427181
0.09006884448
0.08949735759
0.08893542298
0.08834128157
0.08775124726
0.08717376391
0.08660492339
0.08604278646
0.08545101913
0.08485020226
0.0842966207
0.08374709175
0.08319384473
0.08264498588
0.08205891106
0.08148145225
0.08091484519
0.08037222815
0.07984761867
0.0792999685
0.07874965521
0.07821432532
0.07769585887
0.07718517539
0.07668052781
0.07615000042
0.07561690587
0.07507285017
0.07453471105
0.07401629251
0.07353281094
0.07299483373
0.0724546762
0.07193982916
0.07144980939
0.07096713571
0.07048300846
0.06994940033
0.06940325474
0.06886352111
0.06836337025
0.06788551058
0.0673354381
0.06681384219
0.06632056836
0.06582783013
0.06531373647
0.0647921893
0.0642706488
0.06375518741
0.06324029211
0.06272487248
0.06220730402
0.06168924615
0.06114810541
0.06060753211
0.06006744714
0.05948976378
0.0589114942
0.05833953662
0.05777184607
0.05717891556
0.05655116801
0.05594221527
0.05531571626
0.05467378806
0.05401168006
0.05332441743
0.05256970822
0.05170184792
0.05056273974
0.04866469469
0.04669745526
0.04518681031
0.04352407103
0.04181467393
)


100
(
0.1065396424
0.1054907262
0.1046140185
0.1038510438
0.1031344977
0.1024403807
0.1017744148
0.1011170364
0.1004801922
0.09982933694
0.09919077886
0.09856955532
0.09793410937
0.0973186591
0.09672274886
0.09611978156
0.09551743256
0.09493138944
0.09436731164
0.09377986616
0.09319240233
0.0926192816
0.09206205309
0.09149916368
0.09092383129
0.09036174876
0.08981208235
0.08927190063
0.08872450328
0.08815685397
0.08759988287
0.08705098229
0.08650977916
0.08597624469
0.08541377629
0.08485972559
0.08431545313
0.08377974383
0.08326281334
0.0827303886
0.08217442372
0.08162805956
0.08110762504
0.08060175097
0.08010498466
0.07958472794
0.07906884396
0.07856612253
0.07806768211
0.07756257683
0.07707048357
0.07655018089
0.07601886807
0.07549576032
0.07501001719
0.07454427562
0.07408327461
0.07356486008
0.07307784868
0.07258772983
0.07207645262
0.07159256505
0.07110165476
0.07057116314
0.07006131088
0.06959943088
0.06914379126
0.06866512869
0.06815528682
0.06764626806
0.0671429746
0.06664287088
0.06613738602
0.06563597351
0.06513485442
0.06462922625
0.06413135295
0.06361947723
0.06310786078
0.06257166513
0.06201852401
0.06147130463
0.06093580504
0.06040168093
0.05979435106
0.05919228249
0.05861644185
0.05800537175
0.05736835945
0.0567332711
0.05607026588
0.05538062686
0.05458642407
0.05364639491
0.05252352527
0.05059482874
0.04875171026
0.04728060514
0.04565069365
0.04395102873
)


100
(
0.1066753714
0.1056683722
0.104830735
0.104104987
0.1034228839
0.1027606688
0.102127727
0.1015012458
0.100886826
0.1002794943
0.09966109277
0.09905855012
0.09846862939
0.0978709453
0.09729168028
0.09673149155
0.09616164806
0.09559120017
0.09503586321
0.09449856815
0.09394500955
0.09338167764
0.09283290767
0.0922982607
0.09177286472
0.09122009096
0.09067971192
0.09015116985
0.08963160198
0.08911963121
0.08858439566
0.08804641882
0.08751044145
0.08698211551
0.08646824704
0.08596037378
0.08542673335
0.08490111605
0.08438528198
0.08388923639
0.08340111276
0.08288811218
0.08236204058
0.08186260405
0.08137366512
0.08089310149
0.08041935513
0.0799209744
0.07941678483
0.07891850338
0.07842594562
0.07795511373
0.07749124584
0.07697903537
0.07647670424
0.07601688354
0.07556454208
0.07511570884
0.07464674759
0.07413554027
0.0736276829
0.07313233567
0.07269162765
0.07225602309
0.07175238118
0.07129055451
0.07082791207
0.07035345497
0.06987904112
0.06939731327
0.06892078818
0.068450171
0.06797498963
0.06746794238
0.06695755981
0.06645260646
0.06595710077
0.06546772313
0.06497376008
0.06446188042
0.06394944834
0.06340491241
0.06287085309
0.06230381114
0.06174872773
0.06120401158
0.06059918574
0.05998015419
0.0593579803
0.05872279561
0.05808109348
0.05734231286
0.05654573503
0.05564405186
0.05449510832
0.05254274875
0.05078165833
0.04934791317
0.04777665732
0.04612961846
)


100
(
0.1068110715
0.1058418132
0.1050411721
0.1043515533
0.1036969869
0.1030723704
0.1024640958
0.1018759006
0.1012835308
0.100703087
0.1001210318
0.09953756099
0.09897051144
0.0984132621
0.09785095959
0.09730524757
0.09677778793
0.09624097039
0.09569926836
0.09517136585
0.09465747207
0.0941382924
0.09359834055
0.09307289528
0.09255950704
0.09205564979
0.09154101828
0.09102176821
0.0905128751
0.0900118136
0.08951560929
0.08902145875
0.08849651582
0.08797820173
0.08746879161
0.08697754089
0.08650625754
0.08601265159
0.08550683616
0.08501201971
0.08453447438
0.08406504081
0.08360251236
0.08311411165
0.08263239365
0.08214932178
0.08166684842
0.08119340498
0.08074914626
0.08026576245
0.07978130368
0.07930644289
0.07885164738
0.07840205685
0.07795135651
0.07747856974
0.07701435162
0.07654429719
0.0760781287
0.07564024898
0.07516864044
0.07467640492
0.07422676058
0.07379975043
0.07337626815
0.07292846489
0.07246254576
0.07199275472
0.07152765405
0.07106626906
0.07059743596
0.07013251699
0.0696612787
0.06919023151
0.0687122378
0.06823847486
0.06776871012
0.06727011879
0.06675915425
0.06625102314
0.06574871239
0.06524658517
0.06471979052
0.0641868253
0.06363210751
0.0630764135
0.06249746999
0.06189099818
0.06125960674
0.06063851662
0.06000502421
0.05931770265
0.05854181074
0.05765123697
0.05631797091
0.05445179182
0.05274019269
0.05135283531
0.04983211096
0.04825186866
)


100
(
0.1069379971
0.1060110924
0.10524577
0.1045863554
0.1039626737
0.1033720744
0.1027909425
0.1022292239
0.1016704142
0.1011109203
0.1005615739
0.1000067571
0.09945788874
0.09892564351
0.09840005928
0.09787055964
0.09735567164
0.09685800758
0.09635373359
0.09583757868
0.0953338207
0.09484180647
0.09435752085
0.09384049991
0.09333684513
0.09284403995
0.09236009141
0.09188436732
0.09138506566
0.09088971175
0.09040112734
0.08991934735
0.08945043795
0.08896517891
0.08846591906
0.08797517599
0.08750517185
0.0870524589
0.08660749694
0.08613204037
0.08565695116
0.08519667535
0.08474320573
0.08429363579
0.08384439775
0.08337770233
0.08290351734
0.08243556803
0.08198328327
0.08155358339
0.08112697813
0.08065743514
0.08020156312
0.07975883248
0.07931771526
0.0788616692
0.0784246369
0.07796024533
0.07750041412
0.07705890174
0.076635116
0.07621181998
0.07575021982
0.07531947465
0.07487732591
0.07443721157
0.07399742986
0.07355049337
0.07310720738
0.07266708703
0.07222945367
0.07178079771
0.0713137569
0.0708495626
0.07038738411
0.06991993286
0.06944260858
0.06895244667
0.06847950883
0.06801152872
0.0675194671
0.06698868121
0.06645107172
0.06595079606
0.06544762882
0.06488421606
0.06430324427
0.06372105446
0.06311165183
0.06247412916
0.0618174923
0.06110335391
0.06031341971
0.05935513091
0.05804472526
0.05625994322
0.05463070987
0.05326361499
0.05178376195
0.05025190688
)


100
(
0.1070589628
0.1061756452
0.1054437471
0.1048118005
0.104220607
0.1036549209
0.1031084695
0.1025693774
0.1020437175
0.101507948
0.100978834
0.1004627229
0.09993504084
0.0994190517
0.09892041766
0.09842551206
0.09792614571
0.09744028183
0.09696843727
0.09649581037
0.09600243538
0.09552104555
0.09504955896
0.09458537107
0.09410619726
0.09362367907
0.09315032943
0.09268421057
0.09221983025
0.09175574873
0.09127744372
0.09080578631
0.09034078211
0.08989106944
0.08944959146
0.08897317816
0.08850058501
0.08805120959
0.08761560957
0.08718830248
0.08676692001
0.08631624922
0.08586082631
0.08540539747
0.0849564175
0.08453195099
0.08412654741
0.08366933859
0.083216361
0.08278588698
0.08236890939
0.08195649805
0.08154039175
0.08109001045
0.08063463012
0.08018380421
0.07975581813
0.07935315753
0.07891325174
0.07846750029
0.07805052329
0.07763713483
0.07721881025
0.07679094192
0.07636026814
0.07592493501
0.07549372434
0.0750670201
0.07463007142
0.07419239914
0.07375454073
0.07331983996
0.07288028763
0.07244252639
0.07200760829
0.07156301776
0.07107823182
0.07059202287
0.07011539343
0.06965120478
0.06917553912
0.06868422659
0.06816995907
0.06766078085
0.06713535525
0.06660511316
0.06606021215
0.06547796006
0.064885846
0.06426259332
0.06361094463
0.06290311132
0.0620822098
0.06121832552
0.0597790368
0.05796853145
0.0563981669
0.05508068812
0.05363069221
0.05214157333
)


100
(
0.1071799048
0.1063340842
0.1056338565
0.1050304179
0.1044696394
0.1039286961
0.1034121228
0.1028996027
0.1023953072
0.1018944088
0.1013850564
0.1008868865
0.1004013125
0.09990294549
0.0994180118
0.09895058602
0.09848605737
0.09801407901
0.0975541801
0.09710515599
0.09666308633
0.09619120043
0.09573068391
0.09527905987
0.09483452785
0.09439352239
0.0939297684
0.09346820565
0.09301362902
0.09256656632
0.09213962734
0.09168355823
0.09122864648
0.09078077141
0.09034919621
0.08992495517
0.08949855871
0.08904433451
0.0886137792
0.08819454706
0.08778153792
0.08736227001
0.08695185697
0.08650552829
0.08606382498
0.08563035655
0.08522987695
0.0848407863
0.08444571405
0.08400865519
0.0835973691
0.08318975948
0.08276076646
0.08234894241
0.08193749058
0.08149530246
0.08105773956
0.08065949888
0.08026916991
0.07987462418
0.07945419378
0.07903345581
0.078615837
0.0782019725
0.07778725751
0.07736570096
0.07694742496
0.07653321802
0.07611817687
0.07569470623
0.07526412942
0.07483438321
0.07440766002
0.07397552431
0.07353946385
0.07310027858
0.07264952635
0.07219220555
0.07173549308
0.07126036906
0.07078596283
0.07030695765
0.06981491552
0.06931784168
0.06880327028
0.06827878152
0.06773605889
0.06717284688
0.06657028115
0.06597702128
0.06532860177
0.06463034859
0.06384662961
0.06284929146
0.06139440783
0.05959623854
0.05807914223
0.05679468955
0.05538246167
0.05394164289
)


100
(
0.1073008308
0.1064881761
0.1058183566
0.1052427592
0.1047054852
0.1041939749
0.103700018
0.103219808
0.1027360301
0.1022575983
0.101780394
0.1013010218
0.1008329383
0.1003757295
0.09990756648
0.09945173573
0.09901289098
0.09857806124
0.098130431
0.09769443545
0.0972661172
0.09684192746
0.09640225869
0.09596183827
0.09552903247
0.09510172964
0.09467481415
0.0942419453
0.09379839812
0.09336115791
0.09293248423
0.09252188013
0.09210742413
0.09167001857
0.09123939428
0.09082468611
0.09041644752
0.09001424118
0.08960309737
0.08918831415
0.08876999931
0.08835721385
0.08795014736
0.08756349945
0.08716164856
0.0867360126
0.08632165941
0.08593966324
0.08556369876
0.08519079538
0.08480359193
0.08437603999
0.08394926561
0.08352789988
0.08315009716
0.08278462085
0.08236543933
0.08195611865
0.08157122177
0.08118540888
0.08078811729
0.08038792283
0.07998882248
0.07959127778
0.07918725082
0.07878571532
0.07837365719
0.07796006462
0.07754768093
0.07713596396
0.07671989813
0.07630626693
0.07589503397
0.07547742439
0.07505105411
0.07461687289
0.07418426364
0.07373330394
0.0732677928
0.07280591198
0.07236750747
0.07191157255
0.07142132619
0.07092631168
0.07043102295
0.06991880166
0.06936704096
0.06881173626
0.06822999204
0.06762201425
0.06695651697
0.06627784858
0.06540508551
0.06450989749
0.06296329879
0.06119680201
0.05972007751
0.05844349215
0.05707025417
0.0556528333
)


100
(
0.107421748
0.1066389505
0.1059977848
0.1054479739
0.1049337357
0.104450514
0.103978352
0.1035217698
0.1030662715
0.1026078902
0.1021564493
0.1017040941
0.1012537844
0.1008153471
0.1003857477
0.0999458206
0.09951788464
0.09910402802
0.09869822871
0.09827356186
0.09785637331
0.0974457754
0.0970404124
0.0966336284
0.09621202323
0.0957908428
0.09537502469
0.09496724672
0.09457189674
0.0941463503
0.09372584038
0.09331530083
0.09292057711
0.09253186128
0.0921284141
0.09171535242
0.09131573683
0.09092185504
0.09053027375
0.0901405872
0.08974721954
0.0893428504
0.08894385425
0.08855411646
0.08818214575
0.0878146314
0.0874210034
0.08702895861
0.08665832794
0.0862836091
0.08589857717
0.08553004439
0.08512691688
0.08471226137
0.08431679888
0.08395921616
0.08360633452
0.08324096409
0.08285153564
0.08245716234
0.08206537569
0.08167685238
0.08128872415
0.08089925571
0.08051267881
0.08012821788
0.07974026968
0.07935073209
0.07896174439
0.07855669405
0.07815326952
0.07774610664
0.07733092962
0.07691218472
0.07649637655
0.07608568003
0.07567671694
0.07524827208
0.07477954407
0.07431333293
0.07387509495
0.07343023105
0.07296357144
0.0724758434
0.07197935272
0.07146937344
0.07095086369
0.07039348409
0.06983321439
0.06923043663
0.06859058337
0.06789245373
0.06706713451
0.06609601696
0.06449811123
0.06277999824
0.06134165657
0.06007260084
0.05871411256
0.05732703042
)


100
(