/*--------------------------------*- C++ -*----------------------------------*\
| =========                 |                                                 |
| \\      /  F ield         | OpenFOAM: The Open Source CFD Toolbox           |
|  \\    /   O peration     | Version:  2.3.1                                 |
|   \\  /    A nd           | Web:      www.OpenFOAM.org                      |
|    \\/     M anipulation  |                                                 |
\*---------------------------------------------------------------------------*/
FoamFile
{
    version     2.0;
    format      ascii;
    class       dictionary;
    location    "constant";
    object      HCO;
}
// * * * * * * * * * * * * * * * * * * * * * * * * * * * * * * * * * * * * * //

HCO_table
100
(

100
(
1.545801759e-06
1.726414107e-06
1.691864614e-06
1.594084267e-06
1.480795784e-06
1.3616187e-06
1.25208065e-06
1.148575464e-06
1.054111257e-06
9.677495823e-07
8.867566686e-07
8.193418494e-07
7.556563784e-07
6.971598325e-07
6.475279523e-07
6.00333738e-07
5.557615561e-07
5.182151157e-07
4.821360271e-07
4.472185663e-07
4.172534746e-07
3.89408495e-07
3.623220155e-07
3.370969409e-07
3.156427395e-07
2.947770072e-07
2.744221648e-07
2.559067317e-07
2.396626145e-07
2.238093481e-07
2.083184957e-07
1.94863862e-07
1.827181723e-07
1.708559639e-07
1.592433779e-07
1.483802407e-07
1.388002228e-07
1.294357395e-07
1.20294244e-07
1.118174572e-07
1.044819409e-07
9.734072451e-08
9.036941721e-08
8.392616017e-08
7.835380059e-08
7.29113506e-08
6.758084269e-08
6.239040141e-08
5.803555181e-08
5.376256178e-08
4.957594656e-08
4.559864474e-08
4.222295742e-08
3.891529427e-08
3.567841673e-08
3.271115173e-08
3.00562755e-08
2.751297899e-08
2.516873903e-08
2.3040436e-08
2.104029135e-08
1.922377741e-08
1.756770646e-08
1.597178371e-08
1.445147771e-08
1.308848641e-08
1.185729802e-08
1.065946665e-08
9.561666174e-09
8.606128283e-09
7.699737425e-09
6.786901544e-09
6.009775921e-09
5.325863491e-09
4.621155465e-09
4.043440096e-09
3.551201982e-09
3.011430762e-09
2.608003513e-09
2.220992996e-09
1.864079377e-09
1.614442054e-09
1.315843774e-09
1.127428217e-09
9.149947204e-10
7.774655347e-10
6.260017994e-10
5.229380324e-10
4.171504175e-10
3.230369791e-10
2.432586679e-10
1.776681243e-10
1.267580041e-10
8.394218707e-11
5.331357292e-11
3.089869986e-11
1.78309969e-11
7.18817543e-12
1.20087741e-12
8.911545785e-28
)


100
(
1.498758538e-06
1.746185862e-06
1.770595873e-06
1.729368579e-06
1.640829411e-06
1.539555536e-06
1.473599083e-06
1.360910276e-06
1.288682685e-06
1.197009062e-06
1.116604095e-06
1.05817784e-06
9.923285092e-07
9.394036324e-07
8.929162968e-07
8.41570575e-07
7.967564422e-07
7.629890521e-07
7.164761688e-07
6.777692085e-07
6.460640377e-07
6.094032016e-07
5.7432571e-07
5.440509291e-07
5.1844706e-07
4.863754624e-07
4.600919174e-07
4.363208631e-07
4.152578641e-07
3.882946293e-07
3.662034693e-07
3.464234897e-07
3.281969451e-07
3.077610905e-07
2.90226036e-07
2.73822507e-07
2.590479379e-07
2.433023193e-07
2.27472041e-07
2.135191492e-07
2.008083579e-07
1.883742262e-07
1.753799225e-07
1.637928658e-07
1.531215359e-07
1.432416337e-07
1.331336368e-07
1.239308732e-07
1.155756606e-07
1.08103674e-07
1.007029797e-07
9.341744084e-08
8.680888437e-08
8.071146023e-08
7.481361387e-08
6.895600663e-08
6.375845272e-08
5.959284193e-08
5.705241925e-08
5.718298859e-08
5.87033143e-08
5.471947254e-08
4.769837758e-08
4.482811137e-08
4.507857037e-08
4.197691248e-08
3.715943686e-08
3.607863674e-08
3.579228252e-08
3.237983201e-08
2.938023967e-08
2.9201281e-08
2.800127825e-08
2.539227565e-08
2.708978081e-08
2.790399424e-08
2.3171045e-08
2.310108903e-08
2.342177774e-08
1.92072149e-08
2.028659258e-08
1.867179532e-08
1.723382999e-08
1.887237444e-08
1.560161266e-08
1.645057186e-08
1.650293293e-08
1.49240322e-08
1.655144096e-08
1.499613451e-08
1.587592578e-08
1.583904638e-08
1.756861821e-08
1.772320571e-08
1.950978854e-08
1.920201251e-08
1.968762445e-08
1.702757285e-08
4.624733952e-09
9.508285478e-10
)


100
(
1.451670631e-06
1.76720358e-06
1.838170994e-06
1.835043449e-06
1.751026551e-06
1.679327464e-06
1.599923422e-06
1.519713537e-06
1.43305731e-06
1.360200615e-06
1.273082567e-06
1.207135533e-06
1.141250698e-06
1.079814314e-06
1.02881677e-06
9.762538706e-07
9.242689721e-07
8.789736165e-07
8.364214065e-07
7.894503751e-07
7.482999399e-07
7.099788493e-07
6.716830146e-07
6.341485037e-07
6.003935211e-07
5.688701794e-07
5.375678255e-07
5.081247477e-07
4.808372995e-07
4.550368277e-07
4.297660938e-07
4.051511083e-07
3.825706194e-07
3.615856635e-07
3.419157034e-07
3.226185612e-07
3.046247191e-07
2.878092036e-07
2.725743489e-07
2.575643559e-07
2.427923903e-07
2.292739518e-07
2.170791021e-07
2.062502244e-07
1.942721691e-07
1.82867406e-07
1.724098917e-07
1.632448229e-07
1.540746422e-07
1.450604566e-07
1.37309234e-07
1.312854286e-07
1.272280304e-07
1.214785005e-07
1.161841463e-07
1.114770242e-07
1.091362844e-07
1.04270887e-07
1.00678249e-07
9.938435325e-08
1.036122152e-07
1.067787055e-07
1.050901608e-07
9.862774778e-08
9.292127783e-08
9.049232082e-08
8.812616479e-08
8.47007668e-08
8.051106757e-08
7.809228155e-08
7.521977622e-08
7.232308753e-08
6.937556268e-08
6.743035914e-08
6.800877873e-08
7.285277297e-08
7.809025813e-08
7.611284678e-08
7.43255174e-08
7.437870076e-08
7.336741647e-08
7.598624627e-08
7.554296718e-08
8.083219588e-08
8.117206661e-08
8.204573455e-08
8.574332309e-08
8.76155498e-08
9.170985672e-08
9.835720017e-08
1.052431824e-07
1.117029272e-07
1.212771793e-07
1.345666971e-07
1.425863519e-07
1.533131409e-07
1.639631914e-07
1.050494033e-07
4.196813081e-08
1.308732341e-08
)


100
(
1.404545899e-06
1.776448083e-06
1.889535812e-06
1.889898811e-06
1.839420537e-06
1.782888735e-06
1.699461121e-06
1.628938347e-06
1.539020194e-06
1.46073208e-06
1.379222952e-06
1.30254432e-06
1.236399158e-06
1.168904568e-06
1.109349927e-06
1.055272378e-06
1.001067825e-06
9.499694251e-07
9.02650163e-07
8.584782178e-07
8.13070402e-07
7.71304288e-07
7.322574782e-07
6.957724317e-07
6.591844394e-07
6.254047768e-07
5.942977568e-07
5.657180653e-07
5.369355735e-07
5.097910152e-07
4.844732329e-07
4.622551729e-07
4.392570953e-07
4.175952468e-07
3.980375027e-07
3.809388432e-07
3.645179921e-07
3.477491909e-07
3.324123285e-07
3.188755102e-07
3.079361099e-07
2.972291244e-07
2.857696977e-07
2.764810643e-07
2.686207998e-07
2.643589819e-07
2.555504496e-07
2.480536026e-07
2.408743875e-07
2.392797314e-07
2.318289181e-07
2.259638532e-07
2.202570397e-07
2.184564454e-07
2.118956542e-07
2.04601634e-07
1.987505408e-07
1.985575377e-07
1.932793097e-07
1.86036118e-07
1.829024214e-07
1.840549676e-07
1.829744011e-07
1.798614733e-07
1.743083438e-07
1.683728442e-07
1.632182459e-07
1.599673942e-07
1.58674462e-07
1.602976151e-07
1.619120192e-07
1.651888667e-07
1.701408562e-07
1.765207396e-07
1.79941494e-07
1.844227307e-07
1.933106401e-07
1.967198173e-07
1.997797075e-07
2.09429716e-07
2.13271517e-07
2.186208244e-07
2.282959558e-07
2.323534699e-07
2.405394785e-07
2.531197105e-07
2.675958685e-07
2.842623412e-07
3.003781793e-07
3.21591819e-07
3.46909024e-07
3.714850206e-07
3.985290182e-07
4.319573071e-07
4.724790432e-07
5.174869046e-07
5.509689455e-07
3.134942648e-07
1.57155068e-07
5.799744433e-08
)


100
(
1.357391941e-06
1.757452486e-06
1.904583807e-06
1.933475376e-06
1.904654769e-06
1.845883758e-06
1.774968149e-06
1.698348689e-06
1.618395497e-06
1.534750036e-06
1.456575265e-06
1.37598877e-06
1.303295806e-06
1.236954184e-06
1.172945017e-06
1.115100397e-06
1.062397355e-06
1.011036205e-06
9.624741523e-07
9.172896536e-07
8.764987239e-07
8.349473982e-07
7.959094276e-07
7.601171429e-07
7.291827201e-07
6.969962572e-07
6.668497254e-07
6.397271506e-07
6.167411827e-07
5.926709603e-07
5.687465666e-07
5.469526514e-07
5.283368282e-07
5.135502382e-07
4.944531079e-07
4.788302739e-07
4.654906757e-07
4.593458356e-07
4.469390322e-07
4.375107175e-07
4.293970518e-07
4.228141097e-07
4.179096589e-07
4.067727825e-07
3.977101802e-07
3.918495528e-07
3.946178321e-07
3.837750725e-07
3.748583822e-07
3.697011729e-07
3.707800658e-07
3.626722403e-07
3.543794515e-07
3.496862965e-07
3.474964635e-07
3.396262334e-07
3.304334402e-07
3.295874525e-07
3.297168284e-07
3.263058588e-07
3.195033592e-07
3.158563748e-07
3.156031069e-07
3.166537255e-07
3.16937792e-07
3.186402595e-07
3.215389001e-07
3.266173744e-07
3.296321091e-07
3.339312e-07
3.393896138e-07
3.467104482e-07
3.577541073e-07
3.720245708e-07
3.870113677e-07
3.970910928e-07
4.090556268e-07
4.235441825e-07
4.33732873e-07
4.479760572e-07
4.668935286e-07
4.85363231e-07
5.064634538e-07
5.333178008e-07
5.622741115e-07
5.884759224e-07
6.215205152e-07
6.609398674e-07
7.047752283e-07
7.531569664e-07
7.959607482e-07
8.57027995e-07
9.146436443e-07
9.972022659e-07
1.093726919e-06
1.206462894e-06
1.211395544e-06
6.828192792e-07
3.848470638e-07
1.474900986e-07
)


100
(
1.310224863e-06
1.738132176e-06
1.912391752e-06
1.962775964e-06
1.949337479e-06
1.895491591e-06
1.831938511e-06
1.75553771e-06
1.679173414e-06
1.597326794e-06
1.517517907e-06
1.441352489e-06
1.366275517e-06
1.298187127e-06
1.236136905e-06
1.177220005e-06
1.124270354e-06
1.077682709e-06
1.032408676e-06
9.890502766e-07
9.495578673e-07
9.15727667e-07
8.817604076e-07
8.485738477e-07
8.200535265e-07
7.982769007e-07
7.780005663e-07
7.557901231e-07
7.356033449e-07
7.184198667e-07
7.056266788e-07
6.871554616e-07
6.719151625e-07
6.57762044e-07
6.534711779e-07
6.356507375e-07
6.223372294e-07
6.08947376e-07
6.15487457e-07
6.033891826e-07
5.952140483e-07
5.870823275e-07
5.87608025e-07
5.820663412e-07
5.691081188e-07
5.579601465e-07
5.610009349e-07
5.663256279e-07
5.523070088e-07
5.429618954e-07
5.425645008e-07
5.439750557e-07
5.36752617e-07
5.302765164e-07
5.276747793e-07
5.266332425e-07
5.231178497e-07
5.254003695e-07
5.292906591e-07
5.365537458e-07
5.468033523e-07
5.548197908e-07
5.574015955e-07
5.614717861e-07
5.690006864e-07
5.791820196e-07
5.863138844e-07
5.913299235e-07
5.990444787e-07
6.088527461e-07
6.225581715e-07
6.355220852e-07
6.518505893e-07
6.727500955e-07
7.022954569e-07
7.270912266e-07
7.48904697e-07
7.769905111e-07
8.117029138e-07
8.470251336e-07
8.80352995e-07
9.225665843e-07
9.791786041e-07
1.024920197e-06
1.080528194e-06
1.139623452e-06
1.196803952e-06
1.262224724e-06
1.363680383e-06
1.447997984e-06
1.520159816e-06
1.64195382e-06
1.757176346e-06
1.923889789e-06
2.114281719e-06
2.333206373e-06
2.051607342e-06
1.237763093e-06
7.570921535e-07
2.782084528e-07
)


100
(
1.257740891e-06
1.713209089e-06
1.910539675e-06
1.978732351e-06
1.97431954e-06
1.93353697e-06
1.873924185e-06
1.804225088e-06
1.729993486e-06
1.655223395e-06
1.577001623e-06
1.503393565e-06
1.432648774e-06
1.364796615e-06
1.304560208e-06
1.250287861e-06
1.198987054e-06
1.154902086e-06
1.11874769e-06
1.083695884e-06
1.048535702e-06
1.018436938e-06
9.952214002e-07
9.745755621e-07
9.500126979e-07
9.332596372e-07
9.260321685e-07
9.174595354e-07
9.033053595e-07
8.892368427e-07
8.791694141e-07
8.76502246e-07
8.602176383e-07
8.475434804e-07
8.397025844e-07
8.405639111e-07
8.214859353e-07
8.065634961e-07
8.02241023e-07
8.113260176e-07
7.986612552e-07
7.882020202e-07
7.84000196e-07
7.863183916e-07
7.806310121e-07
7.646304878e-07
7.660360317e-07
7.709594319e-07
7.803140314e-07
7.690175934e-07
7.711636645e-07
7.747600311e-07
7.826289523e-07
7.89216575e-07
7.92131888e-07
7.979159576e-07
8.058217924e-07
8.174357828e-07
8.289946351e-07
8.383505731e-07
8.507322353e-07
8.669754722e-07
8.861804018e-07
9.087087475e-07
9.206353147e-07
9.35401126e-07
9.5432791e-07
9.767444037e-07
1.007147802e-06
1.030081428e-06
1.052844764e-06
1.080896144e-06
1.116896208e-06
1.148759139e-06
1.180718865e-06
1.222531297e-06
1.267777829e-06
1.321140404e-06
1.371752271e-06
1.431246827e-06
1.501791787e-06
1.571205836e-06
1.656443734e-06
1.749898601e-06
1.845030577e-06
1.945110903e-06
2.060312947e-06
2.180120441e-06
2.337481321e-06
2.499946592e-06
2.639731022e-06
2.816972647e-06
3.049591274e-06
3.342364074e-06
3.706655148e-06
4.077052596e-06
3.266173015e-06
2.075379912e-06
1.334343896e-06
4.402725925e-07
)


100
(
1.201745742e-06
1.683810562e-06
1.899298166e-06
1.980579509e-06
1.99073464e-06
1.961779163e-06
1.909170389e-06
1.847739414e-06
1.778339414e-06
1.70915436e-06
1.638537829e-06
1.568139644e-06
1.504527662e-06
1.442097478e-06
1.384437322e-06
1.335875638e-06
1.293278205e-06
1.253497514e-06
1.223389671e-06
1.201603443e-06
1.182192331e-06
1.158100655e-06
1.141038706e-06
1.130703206e-06
1.127484748e-06
1.110259908e-06
1.103542974e-06
1.108679112e-06
1.107568776e-06
1.099738705e-06
1.086583056e-06
1.09315479e-06
1.088420117e-06
1.071647345e-06
1.056708613e-06
1.060380361e-06
1.059970946e-06
1.038882863e-06
1.024560865e-06
1.031082116e-06
1.041720763e-06
1.030031985e-06
1.019976199e-06
1.022629383e-06
1.027659212e-06
1.025201549e-06
1.024074306e-06
1.035595592e-06
1.051335879e-06
1.07051692e-06
1.08514635e-06
1.095059093e-06
1.10819663e-06
1.123526356e-06
1.146410789e-06
1.172968001e-06
1.183732382e-06
1.197031051e-06
1.214891153e-06
1.236326814e-06
1.263155336e-06
1.282435584e-06
1.31026318e-06
1.343881456e-06
1.381791319e-06
1.425676551e-06
1.467434202e-06
1.500296637e-06
1.536876718e-06
1.590971261e-06
1.651301974e-06
1.700407763e-06
1.752918448e-06
1.808855923e-06
1.871392545e-06
1.939277523e-06
1.999639774e-06
2.079973765e-06
2.175177024e-06
2.269436051e-06
2.376180129e-06
2.495391901e-06
2.62461205e-06
2.766261205e-06
2.92685109e-06
3.111501987e-06
3.302560296e-06
3.503696194e-06
3.730156701e-06
3.988563339e-06
4.265212402e-06
4.604905688e-06
5.005573165e-06
5.502224549e-06
6.12831865e-06
6.656068289e-06
4.996780501e-06
3.33091148e-06
2.223943106e-06
6.269861292e-07
)


100
(
1.145732472e-06
1.645152269e-06
1.876319152e-06
1.973025412e-06
1.998441438e-06
1.981189669e-06
1.939288875e-06
1.885698486e-06
1.825802107e-06
1.762813026e-06
1.703403641e-06
1.640117488e-06
1.581361043e-06
1.532685523e-06
1.482266411e-06
1.43920559e-06
1.406905769e-06
1.37932661e-06
1.357675047e-06
1.34511902e-06
1.340417018e-06
1.340719744e-06
1.326971783e-06
1.321585696e-06
1.320985698e-06
1.327749003e-06
1.32064852e-06
1.319401144e-06
1.332565105e-06
1.335036957e-06
1.329408985e-06
1.322081691e-06
1.338586963e-06
1.331773045e-06
1.312685891e-06
1.305701896e-06
1.312363096e-06
1.312765079e-06
1.289151174e-06
1.292569441e-06
1.302725226e-06
1.319903997e-06
1.313229637e-06
1.319553528e-06
1.329985674e-06
1.346908237e-06
1.3669767e-06
1.38401658e-06
1.407442652e-06
1.435736473e-06
1.46606292e-06
1.502343615e-06
1.531491699e-06
1.552221624e-06
1.576097875e-06
1.610342967e-06
1.648071e-06
1.691971894e-06
1.721870132e-06
1.752570232e-06
1.789213822e-06
1.830171294e-06
1.882661267e-06
1.93758739e-06
1.989327242e-06
2.046124862e-06
2.112855619e-06
2.186906225e-06
2.257172062e-06
2.327064424e-06
2.414005486e-06
2.505647029e-06
2.610876532e-06
2.69823633e-06
2.779825956e-06
2.891503186e-06
3.017419649e-06
3.140484544e-06
3.279822273e-06
3.434204843e-06
3.599937005e-06
3.776706789e-06
3.973196336e-06
4.212648506e-06
4.46347592e-06
4.733455263e-06
5.027370421e-06
5.381475223e-06
5.717680504e-06
6.087856526e-06
6.535416373e-06
7.070761596e-06
7.747889917e-06
8.562620303e-06
9.454497357e-06
1.006106649e-05
7.348744764e-06
5.123075605e-06
3.540546617e-06
8.369353623e-07
)


100
(
1.089710609e-06
1.596881234e-06
1.844642111e-06
1.957458747e-06
1.997876026e-06
1.994032863e-06
1.964918874e-06
1.920979859e-06
1.873071228e-06
1.818912489e-06
1.767370724e-06
1.722651497e-06
1.671497764e-06
1.629630813e-06
1.602238061e-06
1.568371689e-06
1.545149496e-06
1.533894894e-06
1.533221055e-06
1.525394748e-06
1.527771956e-06
1.535864291e-06
1.554367363e-06
1.547974116e-06
1.550209776e-06
1.555727559e-06
1.566080839e-06
1.572476342e-06
1.573169494e-06
1.590726391e-06
1.59393583e-06
1.586409707e-06
1.598260045e-06
1.616201574e-06
1.609568598e-06
1.589361684e-06
1.59783091e-06
1.608544322e-06
1.613916144e-06
1.607459791e-06
1.626245214e-06
1.650113843e-06
1.683663718e-06
1.70630244e-06
1.724309757e-06
1.748695092e-06
1.777774069e-06
1.817549536e-06
1.86416505e-06
1.897136248e-06
1.936869381e-06
1.979592647e-06
2.026034392e-06
2.076320967e-06
2.126982367e-06
2.164634938e-06
2.218186819e-06
2.279153071e-06
2.345531949e-06
2.41997095e-06
2.48857127e-06
2.543884192e-06
2.605040609e-06
2.685242213e-06
2.777965204e-06
2.866848166e-06
2.952465649e-06
3.056411805e-06
3.169269758e-06
3.297760958e-06
3.433690327e-06
3.5581445e-06
3.695848385e-06
3.853453789e-06
4.020392324e-06
4.183459722e-06
4.371676749e-06
4.576773419e-06
4.79005336e-06
5.014847429e-06
5.264592456e-06
5.55791373e-06
5.862795014e-06
6.189137284e-06
6.543626472e-06
6.94701718e-06
7.414599746e-06
7.902509734e-06
8.405431693e-06
9.000217291e-06
9.671985105e-06
1.053504993e-05
1.146760514e-05
1.270162082e-05
1.399638191e-05
1.428975494e-05
1.027618103e-05
7.477174695e-06
5.339167336e-06
1.081395789e-06
)


100
(
1.03369147e-06
1.545292612e-06
1.806006448e-06
1.933684534e-06
1.989894357e-06
2.000652181e-06
1.985304907e-06
1.954043352e-06
1.916838248e-06
1.879162029e-06
1.837654251e-06
1.804663927e-06
1.778274332e-06
1.746931062e-06
1.727902105e-06
1.728249141e-06
1.71491516e-06
1.713570937e-06
1.723411756e-06
1.744773183e-06
1.748212072e-06
1.761856144e-06
1.778625444e-06
1.803743753e-06
1.811786457e-06
1.818350408e-06
1.828299241e-06
1.841225099e-06
1.860755671e-06
1.866205151e-06
1.882324069e-06
1.883135312e-06
1.890862421e-06
1.91302721e-06
1.937937639e-06
1.934382749e-06
1.937296074e-06
1.955270816e-06
1.980885939e-06
2.008240979e-06
2.034047761e-06
2.066965634e-06
2.107800847e-06
2.153406527e-06
2.213204019e-06
2.255383196e-06
2.293186748e-06
2.335993512e-06
2.3903308e-06
2.451527958e-06
2.522662883e-06
2.572529088e-06
2.632025941e-06
2.699649282e-06
2.774172524e-06
2.856888867e-06
2.956080894e-06
3.035852762e-06
3.125753644e-06
3.220771183e-06
3.327586739e-06
3.443436523e-06
3.543027449e-06
3.638141724e-06
3.761936546e-06
3.901574724e-06
4.04758693e-06
4.205954916e-06
4.352743833e-06
4.512204453e-06
4.716124952e-06
4.9401962e-06
5.1377782e-06
5.369511278e-06
5.628222676e-06
5.907851651e-06
6.186545627e-06
6.477501027e-06
6.794024409e-06
7.148122866e-06
7.532108989e-06
7.945052555e-06
8.369777819e-06
8.814233947e-06
9.365935523e-06
9.933618987e-06
1.055360274e-05
1.121925761e-05
1.19824282e-05
1.28286233e-05
1.385614054e-05
1.503895987e-05
1.648939366e-05
1.82442563e-05
1.999202249e-05
1.909602909e-05
1.370192514e-05
1.037181971e-05
7.622498648e-06
1.38224531e-06
)


100
(
9.779663499e-07
1.489638966e-06
1.760566762e-06
1.902078987e-06
1.97490736e-06
2.001098073e-06
2.000289989e-06
1.98551248e-06
1.960535263e-06
1.938080511e-06
1.915444213e-06
1.895297565e-06
1.888788645e-06
1.886128631e-06
1.87978722e-06
1.887369378e-06
1.916321398e-06
1.922149918e-06
1.938988162e-06
1.962706769e-06
2.002499326e-06
2.013821489e-06
2.034604673e-06
2.058077909e-06
2.087013358e-06
2.11200545e-06
2.121628826e-06
2.136582051e-06
2.154220855e-06
2.177295163e-06
2.202308884e-06
2.224972735e-06
2.216332716e-06
2.253026942e-06
2.288347184e-06
2.330636703e-06
2.353535047e-06
2.384201871e-06
2.417511517e-06
2.459608758e-06
2.517889485e-06
2.570978535e-06
2.621807697e-06
2.682458625e-06
2.746879863e-06
2.821609592e-06
2.903397983e-06
2.965939792e-06
3.02238425e-06
3.099642853e-06
3.183348319e-06
3.277599742e-06
3.385242824e-06
3.481389316e-06
3.580657667e-06
3.69097186e-06
3.805104019e-06
3.949069583e-06
4.097775361e-06
4.213733619e-06
4.345048984e-06
4.499230807e-06
4.6668091e-06
4.848719007e-06
5.031476053e-06
5.208582881e-06
5.396270385e-06
5.618565847e-06
5.866019682e-06
6.065219589e-06
6.333305197e-06
6.637966261e-06
6.976184693e-06
7.326835441e-06
7.687295737e-06
8.076601837e-06
8.49193584e-06
8.921879359e-06
9.39718701e-06
9.899180876e-06
1.042122591e-05
1.098211435e-05
1.161379478e-05
1.228451377e-05
1.299333339e-05
1.374322886e-05
1.463594843e-05
1.557852222e-05
1.659744972e-05
1.787627619e-05
1.928625067e-05
2.095976662e-05
2.297106846e-05
2.528578074e-05
2.749724642e-05
2.444925045e-05
1.771981466e-05
1.389733625e-05
1.044137411e-05
1.779043275e-06
)


100
(
9.225622823e-07
1.43060135e-06
1.7084187e-06
1.864832573e-06
1.952734464e-06
1.995382058e-06
2.009982615e-06
2.011074857e-06
2.004391232e-06
1.996163013e-06
1.998344638e-06
1.996143241e-06
2.004528855e-06
2.03025625e-06
2.053549929e-06
2.072389397e-06
2.103281358e-06
2.154784347e-06
2.177731585e-06
2.206168442e-06
2.239681518e-06
2.285918644e-06
2.312271155e-06
2.337883489e-06
2.367778903e-06
2.401301932e-06
2.443352662e-06
2.461631898e-06
2.483036958e-06
2.50970918e-06
2.541421429e-06
2.587667862e-06
2.622166801e-06
2.648375613e-06
2.70460893e-06
2.76179406e-06
2.819906048e-06
2.890373899e-06
2.933443611e-06
2.989294951e-06
3.052234118e-06
3.129665278e-06
3.221758486e-06
3.294536599e-06
3.368663275e-06
3.45382314e-06
3.549870519e-06
3.653523226e-06
3.772264027e-06
3.87675714e-06
3.986569664e-06
4.103929021e-06
4.231199714e-06
4.374272605e-06
4.554926446e-06
4.689004778e-06
4.829582598e-06
4.99351818e-06
5.180259484e-06
5.385419111e-06
5.61052668e-06
5.809252382e-06
6.025607247e-06
6.255419835e-06
6.523520433e-06
6.823061492e-06
7.052291143e-06
7.323747201e-06
7.639779389e-06
7.991003034e-06
8.380765154e-06
8.785148536e-06
9.213813466e-06
9.673769885e-06
1.015420108e-05
1.066504272e-05
1.127506171e-05
1.194047653e-05
1.258772732e-05
1.324742599e-05
1.396159653e-05
1.475219636e-05
1.559908753e-05
1.647457712e-05
1.741540917e-05
1.852731457e-05
1.964729569e-05
2.083305707e-05
2.236122215e-05
2.410542323e-05
2.606063625e-05
2.817119018e-05
3.076571919e-05
3.375247393e-05
3.602990982e-05
3.040044489e-05
2.284361273e-05
1.819107142e-05
1.397050696e-05
2.221638575e-06
)


100
(
8.671571402e-07
1.367633428e-06
1.651748953e-06
1.820841463e-06
1.923507526e-06
1.983033168e-06
2.014516685e-06
2.031432313e-06
2.047088982e-06
2.056107945e-06
2.073949119e-06
2.109062167e-06
2.131697666e-06
2.170989669e-06
2.227784558e-06
2.273652239e-06
2.313374109e-06
2.361487655e-06
2.428472133e-06
2.466947491e-06
2.502442938e-06
2.54380009e-06
2.595046565e-06
2.639230984e-06
2.669585763e-06
2.707468846e-06
2.749419949e-06
2.79931976e-06
2.847352638e-06
2.879164523e-06
2.921600477e-06
2.972217633e-06
3.035986969e-06
3.119394862e-06
3.178002249e-06
3.246505181e-06
3.324803331e-06
3.407326621e-06
3.509823764e-06
3.598968407e-06
3.669189944e-06
3.748624621e-06
3.846405078e-06
3.954108346e-06
4.077967119e-06
4.181750996e-06
4.29591843e-06
4.429372483e-06
4.575834593e-06
4.730049249e-06
4.912160056e-06
5.068415002e-06
5.220357317e-06
5.38279891e-06
5.57783232e-06
5.794921733e-06
6.038098167e-06
6.225990117e-06
6.469982588e-06
6.735307607e-06
7.003773419e-06
7.320859735e-06
7.640552844e-06
7.918691594e-06
8.225690385e-06
8.592506908e-06
8.991040896e-06
9.392415831e-06
9.81943016e-06
1.02818721e-05
1.07814187e-05
1.130909259e-05
1.185066708e-05
1.243336167e-05
1.30811718e-05
1.382553348e-05
1.461976622e-05
1.543194389e-05
1.627305336e-05
1.712877988e-05
1.811916681e-05
1.917280878e-05
2.025264447e-05
2.14141995e-05
2.269341584e-05
2.403400404e-05
2.543842841e-05
2.712924257e-05
2.917288517e-05
3.125141817e-05
3.373672147e-05
3.646159379e-05
3.991291856e-05
4.350316826e-05
4.530790127e-05
3.740778799e-05
2.911384843e-05
2.363550446e-05
1.85051953e-05
3.028080229e-06
)


100
(
8.117589313e-07
1.302100883e-06
1.590676898e-06
1.770446705e-06
1.888213644e-06
1.963519335e-06
2.012692776e-06
2.046927195e-06
2.08013094e-06
2.118817303e-06
2.153101984e-06
2.204331823e-06
2.270087038e-06
2.321961458e-06
2.388143548e-06
2.470747044e-06
2.534781684e-06
2.589898303e-06
2.651808928e-06
2.727920421e-06
2.782773494e-06
2.824285557e-06
2.87398671e-06
2.931080353e-06
2.998872932e-06
3.036114217e-06
3.085372419e-06
3.141913826e-06
3.207110196e-06
3.28760708e-06
3.34981454e-06
3.41530719e-06
3.493095553e-06
3.58242689e-06
3.689145186e-06
3.804500561e-06
3.891029444e-06
3.990732363e-06
4.094550681e-06
4.215681293e-06
4.346605174e-06
4.455467358e-06
4.55277486e-06
4.680637906e-06
4.820661192e-06
4.978492899e-06
5.159331816e-06
5.329866272e-06
5.502504306e-06
5.693250938e-06
5.887847833e-06
6.11492479e-06
6.362030591e-06
6.547084083e-06
6.753488603e-06
7.021464252e-06
7.312134302e-06
7.635621937e-06
7.989662885e-06
8.292354097e-06
8.621495973e-06
8.96317767e-06
9.388948141e-06
9.842920708e-06
1.020217575e-05
1.065837116e-05
1.116611841e-05
1.172603185e-05
1.231906903e-05
1.29103429e-05
1.353142165e-05
1.42046344e-05
1.492403824e-05
1.568699444e-05
1.651694741e-05
1.740435038e-05
1.83409527e-05
1.934426777e-05
2.044015116e-05
2.166529349e-05
2.292344404e-05
2.416820316e-05
2.548964957e-05
2.700527973e-05
2.863704873e-05
3.032224634e-05
3.211030878e-05
3.416798087e-05
3.645855437e-05
3.915849788e-05
4.212708172e-05
4.560444939e-05
4.981226947e-05
5.425998271e-05
5.548130059e-05
4.564164495e-05
3.657155455e-05
3.022662968e-05
2.419327514e-05
3.859607077e-06
)


100
(
7.563752297e-07
1.23488113e-06
1.525419943e-06
1.714069557e-06
1.847012834e-06
1.937114007e-06
2.003180406e-06
2.058511959e-06
2.108957243e-06
2.170135168e-06
2.236115611e-06
2.303651578e-06
2.388631424e-06
2.482043879e-06
2.558716975e-06
2.645557356e-06
2.746975959e-06
2.827709613e-06
2.894392293e-06
2.967831191e-06
3.050770991e-06
3.125981308e-06
3.174853074e-06
3.235396829e-06
3.303046011e-06
3.38302691e-06
3.453202855e-06
3.519725417e-06
3.599892642e-06
3.691716705e-06
3.796979977e-06
3.92039961e-06
4.009110867e-06
4.113987782e-06
4.228378816e-06
4.357570789e-06
4.51063136e-06
4.636008225e-06
4.750915603e-06
4.878361644e-06
5.024257419e-06
5.179767015e-06
5.35775128e-06
5.510323503e-06
5.682959339e-06
5.871946878e-06
6.0765556e-06
6.295351485e-06
6.575398368e-06
6.789522893e-06
7.014807477e-06
7.255396901e-06
7.532751864e-06
7.830070669e-06
8.157251278e-06
8.460125149e-06
8.81435481e-06
9.193421051e-06
9.581607245e-06
1.006365766e-05
1.048001804e-05
1.086148419e-05
1.13334354e-05
1.186019279e-05
1.244169519e-05
1.307415384e-05
1.37139502e-05
1.437982183e-05
1.508966123e-05
1.583413299e-05
1.658383353e-05
1.738687868e-05
1.833890453e-05
1.935402852e-05
2.038144819e-05
2.145803883e-05
2.262587383e-05
2.385154306e-05
2.520732152e-05
2.663966491e-05
2.811970205e-05
2.96752169e-05
3.146623203e-05
3.331336204e-05
3.517377675e-05
3.724328399e-05
3.954976242e-05
4.209334034e-05
4.494643648e-05
4.782696647e-05
5.151671481e-05
5.554778414e-05
6.036522471e-05
6.54124925e-05
6.58334879e-05
5.489386747e-05
4.499103506e-05
3.786408944e-05
3.090199887e-05
4.95197007e-06
)


100
(
7.051268994e-07
1.166575148e-06
1.456487897e-06
1.653986576e-06
1.798994022e-06
1.90421872e-06
1.986339667e-06
2.060740169e-06
2.134304385e-06
2.214161767e-06
2.311654457e-06
2.405917664e-06
2.50543774e-06
2.620677627e-06
2.735689992e-06
2.831836496e-06
2.934222602e-06
3.049778986e-06
3.148364397e-06
3.225082423e-06
3.309678754e-06
3.400735941e-06
3.502624498e-06
3.563107764e-06
3.639281638e-06
3.725311647e-06
3.824701401e-06
3.945157967e-06
4.037712077e-06
4.147937177e-06
4.272807224e-06
4.407314911e-06
4.567779918e-06
4.707473448e-06
4.830819448e-06
4.965713417e-06
5.118726689e-06
5.287677033e-06
5.475289475e-06
5.624874826e-06
5.783534822e-06
5.97109243e-06
6.175608952e-06
6.400225146e-06
6.655353529e-06
6.891633052e-06
7.128200742e-06
7.382663719e-06
7.656673336e-06
7.970997453e-06
8.309167368e-06
8.572407393e-06
8.887118032e-06
9.252254634e-06
9.651846641e-06
1.006389626e-05
1.055279214e-05
1.097940488e-05
1.143340495e-05
1.193036681e-05
1.248038642e-05
1.306971887e-05
1.357718526e-05
1.421759108e-05
1.492333079e-05
1.569077556e-05
1.649433534e-05
1.730262015e-05
1.815312735e-05
1.906309792e-05
2.005843273e-05
2.1167206e-05
2.226699622e-05
2.342717487e-05
2.463605739e-05
2.589796713e-05
2.730021105e-05
2.885319206e-05
3.050273754e-05
3.224371633e-05
3.399809876e-05
3.58863265e-05
3.789375382e-05
4.005533624e-05
4.24080788e-05
4.519707838e-05
4.792899783e-05
5.075208175e-05
5.40753818e-05
5.764966023e-05
6.182888543e-05
6.729850895e-05
7.238192099e-05
7.805759152e-05
7.653733106e-05
6.466965432e-05
5.427239607e-05
4.633077916e-05
3.846858752e-05
6.416732278e-06
)


100
(
6.566793565e-07
1.097972387e-06
1.385076274e-06
1.589819702e-06
1.744694358e-06
1.864765951e-06
1.962922148e-06
2.05451139e-06
2.154243512e-06
2.254942939e-06
2.370418077e-06
2.506664699e-06
2.623609031e-06
2.749545174e-06
2.889282359e-06
3.021725198e-06
3.13333105e-06
3.250454696e-06
3.376443363e-06
3.496468865e-06
3.583770798e-06
3.682042051e-06
3.786756359e-06
3.903802324e-06
4.004756788e-06
4.104150006e-06
4.219579585e-06
4.350886244e-06
4.499926402e-06
4.659106873e-06
4.797841134e-06
4.953429853e-06
5.113901229e-06
5.296293828e-06
5.4967193e-06
5.640219976e-06
5.794338856e-06
5.97851569e-06
6.178574821e-06
6.398820224e-06
6.651833654e-06
6.869613143e-06
7.108090526e-06
7.36743517e-06
7.640909313e-06
7.959774274e-06
8.33092684e-06
8.602477916e-06
8.896757047e-06
9.240091744e-06
9.616400327e-06
1.003029282e-05
1.048201874e-05
1.090071765e-05
1.135448704e-05
1.183773482e-05
1.237995711e-05
1.300798256e-05
1.352850308e-05
1.404490724e-05
1.468936313e-05
1.537480501e-05
1.61353035e-05
1.694592987e-05
1.780042878e-05
1.866682007e-05
1.959000478e-05
2.056836959e-05
2.155972439e-05
2.264934771e-05
2.389100923e-05
2.519822157e-05
2.65249307e-05
2.78989628e-05
2.937085957e-05
3.102060187e-05
3.267873452e-05
3.440703018e-05
3.622524893e-05
3.81994808e-05
4.040499458e-05
4.278492344e-05
4.509361105e-05
4.747231617e-05
5.033681505e-05
5.342174592e-05
5.664429099e-05
6.01359873e-05
6.396190491e-05
6.815094003e-05
7.288808285e-05
7.862398078e-05
8.49351386e-05
9.083253777e-05
8.819857963e-05
7.474218375e-05
6.388955086e-05
5.545304738e-05
4.677653357e-05
8.099944536e-06
)


100
(
6.082436092e-07
1.02998416e-06
1.3129426e-06
1.521456541e-06
1.685035243e-06
1.81786336e-06
1.93233104e-06
2.040937358e-06
2.158936105e-06
2.293061699e-06
2.425467608e-06
2.574385207e-06
2.7412475e-06
2.87884452e-06
3.024952175e-06
3.18355202e-06
3.333428426e-06
3.458486245e-06
3.589837037e-06
3.726792133e-06
3.873869142e-06
3.975756471e-06
4.093035488e-06
4.219915404e-06
4.361358204e-06
4.520438197e-06
4.651602721e-06