/*--------------------------------*- C++ -*----------------------------------*\
| =========                 |                                                 |
| \\      /  F ield         | OpenFOAM: The Open Source CFD Toolbox           |
|  \\    /   O peration     | Version:  2.3.1                                 |
|   \\  /    A nd           | Web:      www.OpenFOAM.org                      |
|    \\/     M anipulation  |                                                 |
\*---------------------------------------------------------------------------*/
FoamFile
{
    version     2.0;
    format      ascii;
    class       dictionary;
    location    "constant";
    object      He;
}
// * * * * * * * * * * * * * * * * * * * * * * * * * * * * * * * * * * * * * //

He_table
100
(

100
(
-2288887.718
-2220171.695
-2170784.53
-2130618.601
-2094698.646
-2062675.737
-2032521.176
-2004293.279
-1977196.174
-1951696.246
-1926278.509
-1902948.334
-1879461.607
-1856298.268
-1834517.244
-1812513.157
-1790456.082
-1769850.894
-1749028.008
-1727992.821
-1708022.742
-1688277.16
-1668347.664
-1648611.382
-1629707.419
-1610614.122
-1591322.727
-1572453.997
-1554219.66
-1535791.31
-1517175.539
-1499063.228
-1481171.389
-1463090.529
-1444810.407
-1426776.941
-1409456.699
-1391918.423
-1374173.423
-1356572.264
-1339497.653
-1322217.249
-1304724.646
-1287303.413
-1270226.072
-1252943.744
-1235455.422
-1217826.527
-1201083.664
-1184138.203
-1167012.819
-1149878.918
-1133262.185
-1116477.286
-1099513.691
-1082608.469
-1065844.535
-1048886.981
-1031728.958
-1014685.467
-997961.2635
-981030.7311
-963881.5125
-946910.6408
-930132.2687
-913129.5743
-895890.261
-879050.4913
-862121.787
-844950.1569
-827797.5086
-810864.9994
-793680.6023
-776345.1488
-759329.335
-742048.0789
-724629.2406
-707447.1438
-689979.8738
-672528.5873
-655072.4683
-637335.4054
-619810.3847
-601942.0472
-584196.1175
-566150.0468
-548187.2379
-529947.377
-511682.8133
-493250.2738
-474623.8587
-455841.6359
-436922.7885
-417845.9031
-398605.1282
-379147.2996
-359625.5981
-340024.217
-320394.1546
-302299.9858
)


100
(
-2296680.327
-2227716.52
-2178069.678
-2137297.633
-2101349.492
-2069279.883
-2038280.082
-2010523.486
-1982883.471
-1957427.256
-1932299.522
-1908079.477
-1885039.41
-1861803.428
-1839344.301
-1817763.931
-1795943.743
-1774206.92
-1753805.465
-1733192.384
-1712418.056
-1692500.163
-1672997.103
-1653308.455
-1633437.74
-1614756.187
-1595891.582
-1576841.308
-1557601.599
-1539554.628
-1521358.745
-1502982.389
-1484436.057
-1466764.546
-1448902.139
-1430848.316
-1412593.375
-1394809.81
-1377468.81
-1359923.538
-1342164.408
-1324505.755
-1307407.681
-1290107.457
-1272601.83
-1254968.72
-1237881.178
-1220601.699
-1203141.233
-1185487.965
-1168242.092
-1151336.454
-1134273.384
-1117033.728
-1099985.898
-1083227.158
-1066294.374
-1049169.473
-1032115.4
-1015183.864
-998229.1205
-980488.682
-963200.0003
-946489.4489
-929477.2672
-911483.6807
-894141.7429
-877533.0244
-859854.9242
-841911.9196
-824735.954
-807690.4643
-789232.9103
-771667.2032
-754761.0158
-736821.6095
-718178.5947
-701015.6642
-683006.6381
-664041.4137
-646647.6579
-627696.7676
-609244.3309
-591424.8732
-571273.9044
-553207.3106
-534050.4144
-514422.696
-495752.4645
-475605.013
-456447.8358
-436450.5651
-417163.1657
-397196.0687
-377896.7071
-357871.8966
-338771.6039
-321546.4928
-318349.4343
-315278.9487
)


100
(
-2304323.213
-2234733.704
-2184863.305
-2143522.82
-2108074.644
-2075191.46
-2044658.723
-2015903.29
-1988667.216
-1962083.8
-1937399.398
-1912623.913
-1889276.808
-1866420.08
-1843402.354
-1821381.913
-1799937.62
-1778297.473
-1756672.132
-1736418.55
-1715993.406
-1695413.526
-1675371.196
-1656024.802
-1636503.142
-1616811.396
-1597806.636
-1579088.002
-1560195.118
-1541131.904
-1522503.881
-1504451.625
-1486229.95
-1467834.229
-1449572.458
-1431838.768
-1413922.395
-1395820.601
-1377526.084
-1359735.475
-1342295.929
-1324667.579
-1306844.652
-1288922.538
-1271729.187
-1254355.397
-1236798.85
-1219067.189
-1201637.299
-1184315.389
-1166834.987
-1149205.934
-1131462.34
-1114465.907
-1097438.249
-1080255.882
-1062395.827
-1045593.029
-1028652.957
-1011535.281
-993721.1548
-976884.0677
-959023.8625
-941261.223
-924235.2599
-907093.7028
-888890.0449
-870742.7226
-853831.9349
-835873.2367
-817469.4923
-799191.9093
-781653.0218
-763352.6258
-744879.1053
-727117.545
-709334.4555
-690731.572
-671672.3358
-653406.3477
-634721.5918
-616062.2836
-596859.0747
-578440.8814
-559318.8059
-539699.9049
-520758.9227
-501137.7816
-481415.8623
-461924.8026
-442313.1484
-422598.0224
-402842.7822
-383384.3535
-363452.6733
-343840.5614
-324953.1581
-314137.1832
-316134.0842
-316580.0157
)


100
(
-2311820.515
-2241719.496
-2191319.218
-2150663.463
-2114489.299
-2080560.732
-2050481.76
-2020730.774
-1993757.765
-1966935.901
-1941602.784
-1917144.451
-1892607.823
-1869942.781
-1847227.789
-1824363.203
-1802608.063
-1781260.271
-1759744.409
-1738104.322
-1717958.457
-1697663.55
-1677220.598
-1656914.648
-1637662.827
-1618247.116
-1598671.254
-1579220.481
-1560588.371
-1541794.897
-1522845.871
-1503742.564
-1485548.949
-1467414.627
-1449113.279
-1430644.097
-1412472.758
-1394621.961
-1376593.981
-1358389.382
-1340017.039
-1322063.091
-1304546.8
-1286868.143
-1269031.549
-1250748.731
-1233452.245
-1216028.561
-1198453.264
-1179842.049
-1162635.386
-1145293.85
-1127827.763
-1109399.229
-1092084.944
-1075100.17
-1057755.336
-1039007.321
-1021577.478
-1004691.149
-986913.3395
-968545.9414
-951311.8167
-933517.4299
-915505.5478
-897701.8758
-880130.146
-861983.8776
-843634.8531
-825316.7612
-807438.9077
-789378.3195
-771132.4724
-752442.2348
-733957.1928
-715842.3414
-697383.1858
-678367.9825
-659589.4251
-640873.8527
-622170.9637
-602900.5607
-583740.5341
-564687.5709
-545160.5161
-525621.8371
-506245.6771
-486739.3729
-467189.445
-447568.5959
-427686.1702
-407914.4252
-388214.8364
-368105.8966
-348207.5689
-328413.6244
-309759.3749
-305708.2306
-309741.3608
-312517.8268
)


100
(
-2319176.37
-2249574.807
-2198826.592
-2157518.34
-2120455.849
-2086861.244
-2055851.107
-2026407.155
-1998280.987
-1971768.132
-1945294.22
-1920978.119
-1896714.888
-1872665.421
-1850212.75
-1827608.019
-1804868.83
-1783231.224
-1761958.961
-1740545.003
-1719011.854
-1698720.327
-1678511.728
-1658164.903
-1637678.884
-1618290.494
-1598939.594
-1579440.427
-1559797.907
-1540872.419
-1522134.1
-1503253.875
-1484241.961
-1465258.355
-1447210.025
-1429012.396
-1410664.64
-1391673.388
-1373853.998
-1355896.25
-1337781.411
-1319370.96
-1300744.117
-1283209
-1265556.795
-1247356.078
-1228069.996
-1210809.481
-1193428.524
-1175310.067
-1156183.281
-1138759.084
-1121490.257
-1103403.143
-1084754.014
-1067226.845
-1050104.467
-1031599.712
-1012871.892
-994838.3637
-977240.4439
-959128.1561
-940861.6173
-922852.9356
-905129.698
-887244.0351
-869170.257
-850711.7081
-832646.7943
-814496.5522
-796151.7768
-777605.1466
-759160.2886
-740941.2285
-722237.3107
-703400.7948
-684327.7418
-665237.8659
-646564.0456
-627292.4461
-607760.8907
-588599.5115
-569503.6711
-550168.8821
-530605.1747
-511153.8642
-491378.6863
-471540.196
-451997.5827
-432171.0433
-412406.9208
-392142.8494
-372327.1646
-351915.0463
-331660.6396
-311569.1514
-294493.9217
-296092.4158
-301340.494
-305753.3039
)


100
(
-2326394.446
-2257079.628
-2206081.335
-2164148.957
-2126295.582
-2092979.13
-2060870.757
-2031785.468
-2002940.483
-1976228.553
-1950015.689
-1924367.878
-1900366.187
-1876288.267
-1852681.581
-1830311.178
-1807806.937
-1785184.549
-1763554.683
-1742359.871
-1721048.751
-1699628.274
-1679076.267
-1658937.252
-1638666.173
-1618267.773
-1598389.548
-1579086.222
-1559713.492
-1540226.451
-1520711.221
-1502054.553
-1483281.434
-1464396.383
-1444766.71
-1426709.147
-1408538.233
-1390247.317
-1370186.913
-1352328.505
-1334391.379
-1316332.245
-1296981.55
-1278385.744
-1260875.202
-1243224.601
-1223827.285
-1204242.195
-1187041.394
-1169383.942
-1150482.447
-1131396.339
-1113645.368
-1095815.182
-1077358.744
-1058757.167
-1040700.525
-1022471.06
-1004281.239
-985941.1702
-967381.1314
-949019.825
-931065.4568
-913001.8684
-894619.1737
-875992.4263
-857713.7112
-839598.2456
-821183.2155
-802589.1586
-783939.1821
-765483.1761
-747021.3382
-728422.8135
-709500.6254
-690400.2099
-671717.6306
-652297.1018
-632926.8779
-613594.4735
-594497.1302
-575062.7471
-555153.2508
-535712.0253
-515985.1545
-496179.6537
-476428.4833
-456824.3525
-436578.1531
-416826.3146
-396811.0198
-376334.8557
-356191.2647
-335413.24
-314843.3527
-294336.5167
-281864.8702
-285764.3454
-292000.5238
-297475.2005
)


100
(
-2333769.471
-2264429.119
-2213171.677
-2170493.77
-2133113.723
-2098947.44
-2066856.404
-2036981.64
-2008408.433
-1980478.41
-1954560.136
-1928673.056
-1903809.286
-1879980.342
-1856085.3
-1832794.27
-1810519.823
-1788128.666
-1765634.316
-1743934.591
-1722841.237
-1701643.056
-1680338.562
-1659425.055
-1639299.872
-1619032.43
-1598642.472
-1578870.519
-1559670.493
-1540363.821
-1520653.987
-1500686.334
-1482085.556
-1463375.467
-1444079.355
-1424140.853
-1406124.849
-1387999.872
-1368842.73
-1348607.581
-1330657.851
-1312765.252
-1294043.021
-1274444.222
-1255848.208
-1238408.457
-1219507.882
-1200109.295
-1180565.635
-1163020.552
-1144319.359
-1125472.647
-1106532.882
-1087988.259
-1069887.673
-1051670.112
-1033325.569
-1014682.243
-996160.7815
-978011.3653
-959711.5723
-941107.9275
-922259.7897
-903336.2395
-885048.1638
-866632.5458
-848082.7829
-829368.8588
-810409.0608
-791855.626
-773321.5162
-754535.983
-735390.76
-716531.5209
-697749.3196
-678780.1641
-659538.183
-640158.1573
-621007.7352
-601563.7458
-581766.8374
-562327.4386
-542461.8015
-522569.1845
-502676.8008
-482842.6095
-462838.1392
-442860.7702
-422785.2664
-402458.2374
-382132.2623
-361887.3802
-341049.8453
-320111.805
-298994.9074
-278287.232
-269920.876
-275399.65
-281646.5015
-288169.337
)


100
(
-2341205.776
-2271469.141
-2219987.077
-2177420.377
-2139840.642
-2104697.236
-2072986.527
-2041994.997
-2013750.681
-1985677.42
-1958937.007
-1933316.921
-1907734.172
-1883506.316
-1859855.321
-1836145.672
-1813058.116
-1790897.886
-1768637.557
-1746285.505
-1724412.708
-1703355.789
-1682181.904
-1660894.578
-1639514.362
-1619466.25
-1599280.891
-1578984.787
-1559467.821
-1540338.617
-1521130.358
-1500433.878
-1480694.468
-1462162.386
-1443549.71
-1423306.602
-1403503.62
-1385542.815
-1367238.273
-1347249.544
-1327056.738
-1308963.756
-1290844.16
-1271458.638
-1251912.781
-1233259.504
-1214871.853
-1195696.654
-1176394.838
-1157162.216
-1138383.697
-1119968.871
-1101435.819
-1082790.098
-1063786.81
-1044703.978
-1026481.835
-1008183.46
-989579.7424
-970762.6123
-951822.5604
-933512.3019
-914901.865
-896159.213
-877242.6826
-858195.1113
-839198.7043
-820613.3104
-801912.9324
-782690.5884
-763304.6658
-744369.1183
-725464.946
-706429.979
-687189.8165
-667891.3397
-648823.0608
-629359.1945
-609583.0755
-590143.95
-570330.6629
-550517.3764
-530670.3897
-510836.7781
-490846.3333
-470448.2351
-450284.1292
-430365.9703
-410115.5853
-389502.3043
-368846.9114
-347958.384
-327105.5047
-305820.8766
-284282.5642
-263409.9214
-259092.8807
-264847.1658
-271393.7051
-278050.2237
)


100
(
-2348516.387
-2278653.776
-2227180.231
-2184614.176
-2146377.595
-2111203.789
-2078953.184
-2048111.888
-2018875.301
-1991086.53
-1963468.987
-1937733.939
-1912401.742
-1887106.921
-1863366.436
-1839894.544
-1816367.082
-1793374.45
-1771283.792
-1749056.268
-1726733.761
-1704554.322
-1683605.008
-1662538.158
-1641366.99
-1619909.086
-1599545.615
-1579442.092
-1559234.747
-1539936.898
-1520888.341
-1501328.959
-1480067.654
-1460513.824
-1442062.434
-1422765.135
-1402326.565
-1382618.713
-1364741.343
-1345348.67
-1325386.01
-1305263.089
-1286994.702
-1267889.266
-1248562.257
-1229108.447
-1209854.485
-1191153.107
-1172300.303
-1153326.043
-1134275.1
-1114835.133
-1095841.117
-1077359.926
-1058767.264
-1039752.085
-1020575.097
-1001323.91
-982724.1228
-964125.4151
-945452.4778
-926550.8777
-907384.2303
-888363.2788
-869618.1096
-850794.5213
-831543.9801
-812110.6622
-792954.2333
-774012.4971
-754863.1194
-735484.7786
-715855.2493
-696593.7803
-677534.7576
-657943.0982
-638154.4515
-618692.759
-598879.0485
-579066.567
-559260.9607
-539462.4842
-519683.3182
-499230.8203
-478964.1255
-458859.2756
-438769.4027
-418193.5672
-397561.9262
-376910.3771
-355909.3535
-335214.669
-313487.0314
-291800.3802
-270249.1806
-249890.7266
-248681.3271
-254360.2661
-261089.338
-268014.0152
)


100
(
-2355705.433
-2286324.622
-2234665.47
-2191716.703
-2152649.545
-2117866.727
-2084645.387
-2054145.652
-2024052.714
-1996232.693
-1968869.056
-1941832.636
-1916750.93
-1891697.373
-1866669.408
-1843275.703
-1819921.024
-1796447.131
-1773297.282
-1751295.898
-1729199.046
-1707018.335
-1684541.193
-1663658.616
-1642691.02
-1621626.5
-1600244.515
-1579322.511
-1559296.118
-1539169.649
-1520059.453
-1501122.527
-1480521.681
-1459322.822
-1439903.326
-1421456.669
-1401242.008
-1380861.989
-1361200.293
-1342586.831
-1322836.331
-1302946.01
-1282967.08
-1263681.603
-1244740.484
-1225675
-1206494.111
-1186969.693
-1167359.97
-1148572.674
-1129676.127
-1110620.635
-1091257.61
-1071816.944
-1052587.483
-1033961.292
-1014980.224
-995901.1371
-976664.2211
-957269.7321
-938028.5396
-919265.2535
-900426.9505
-881127.4564
-861543.5695
-842334.6391
-823423.0884
-804192.9857
-784824.9913
-765179.9852
-745546.5269
-726296.8098
-706853.4742
-686959.2198
-667158.6684
-647627.885
-627710.6691
-607820.6271
-587987.3105
-568168.5392
-548361.2087
-528050.3422
-507790.9833
-487685.2284
-467640.2318
-447246.0635
-426480.7018
-405851.3614
-385226.3983
-364121.6582
-343286.155
-321441.6614
-300230.9468
-278029.274
-255257.3147
-237093.0485
-238768.7105
-244222.9868
-251007.0502
-258256.0667
)


100
(
-2362776.902
-2293786.766
-2242031.261
-2198555.337
-2159644.953
-2124358.914
-2090949.595
-2059925.374
-2030085.718
-2001062.275
-1973961.911
-1947003.487
-1920738.717
-1895914.389
-1871094.262
-1846135.459
-1822876.169
-1799623.781
-1776302.86
-1753001.245
-1731116.77
-1709140.504
-1687076.731
-1664696.117
-1643399.634
-1622516.395
-1601536.982
-1580232.049
-1558835.911
-1538704.922
-1518653.279
-1499715.06
-1480138.022
-1459167.813
-1438045.521
-1418720.41
-1399240.37
-1379063.403
-1358755.601
-1338848.78
-1319472.024
-1300016.832
-1280432.817
-1260753.752
-1240641.008
-1221278.136
-1202238.69
-1183096.052
-1163570.394
-1143820.775
-1123971.598
-1105139.22
-1086076.827
-1066786.929
-1047442.812
-1027973.608
-1008190.169
-989146.869
-970031.0576
-950851.9559
-931239.7242
-911454.0605
-892211.6238
-873218.9447
-853854.9497
-834452.6261
-814822.5079
-795122.1655
-775870.837
-756517.5498
-736456.4502
-716257.5357
-696789.8032
-676944.7759
-656780.4997
-636700.7435
-616699.7555
-596758.8964
-576871.1839
-556722.9815
-536406.4855
-516178.0403
-496001.5477
-475932.7932
-455177.4166
-434347.4424
-413943.4436
-392964.3904
-371705.4138
-350723.6859
-328892.3932
-307481.3038
-285212.5994
-262288.2731
-240220.7746
-225578.7709
-229594.2124
-234772.1351
-241550.8698
-248654.5003
)


100
(
-2369898.181
-2301125.705
-2249214.518
-2205351.802
-2166720.06
-2130617.072
-2097538.439
-2065481.367
-2035940.394
-2006694.379
-1978825.517
-1952109.001
-1925529.332
-1899794.242
-1875108.308
-1850421.069
-1825580.287
-1802472.322
-1779368.528
-1756197.342
-1732690.214
-1710896.206
-1689035.454
-1667049.898
-1644797.582
-1622999.373
-1602201.307
-1581276.505
-1560072.698
-1538779.267
-1517908.773
-1497910.973
-1479165.381
-1458467.533
-1437554.768
-1416526.434
-1396661.701
-1376731.247
-1356850.78
-1336856.2
-1316534.146
-1296732.606
-1277316.089
-1257781.484
-1238100.623
-1217997.63
-1197818.721
-1178414.88
-1159297.209
-1139743.014
-1120077.31
-1100336.765
-1080574.795
-1061120.715
-1041811.364
-1022433.553
-1002968.541
-982868.8429
-962832.929
-943750.7186
-924492.1517
-904807.3004
-885100.4737
-865383.9763
-845665.1003
-826262.8463
-806864.4219
-786816.0744
-766507.5716
-747210.2735
-727439.9397
-707345.5723
-686920.9697
-666663.0164
-646482.5273
-626288.3047
-606254.5454
-586244.6537
-565738.5798
-545347.3352
-525004.2242
-504734.8022
-484224.5494
-463283.5657
-442722.4601
-422188.1901
-401259.4548
-379848.3953
-358909.4387
-336971.2784
-315348.4172
-292910.0755
-270301.6519
-247511.2663
-225287.6296
-215407.7715
-221070.3237
-225793.7273
-232489.2646
-239672.076
)


100
(
-2377097.446
-2308253.725
-2256227.96
-2212868.303
-2173737.789
-2137323.237
-2104050.462
-2072040.236
-2041681.364
-2012698.379
-1983993.489
-1957116.505
-1930705.168
-1904346.702
-1878999.855
-1854544.061
-1830083.257
-1805384.332
-1782311.739
-1759364.422
-1736302.78
-1712975.242
-1690873.601
-1669132.601
-1647236.245
-1625122.605
-1602938.324
-1582046.226
-1561192.08
-1540093.611
-1518917.319
-1497660.767
-1477359.516
-1457632.622
-1436918.278
-1416220.146
-1395595.822
-1374837.701
-1355118.227
-1335292.706
-1315366.386
-1295050.165
-1274455.302
-1254757.622
-1235284.757
-1215571.264
-1195537.552
-1175425.896
-1155248.558
-1135674.709
-1116230.246
-1096576.206
-1076861.966
-1056895.436
-1036400.909
-1016991.54
-997667.1801
-978001.4909
-957975.2965
-937865.2649
-917888.6645
-898461.9821
-878837.0717
-859184.5462
-839021.5221
-818555.3012
-799153.6685
-779424.0539
-759271.2268
-739046.6699
-718483.3977
-698177.0404
-678027.7526
-657860.7387
-637744.4273
-617714.0566
-597024.4542
-576364.0937
-555702.3932
-535165.1125
-514804.8361
-494013.1798
-473165.2231
-452339.3888
-431764.7438
-410428.3438
-389330.7534
-368319.7517
-346455.3589
-324251.4815
-301805.6955
-279774.3737
-257158.0158
-234120.6177
-211297.5605
-207061.7459
-212577.8807
-217313.7334
-223738.3938
-230657.5195
)


100
(
-2384191.204
-2315601.628
-2263838.277
-2220331.939
-2180612.606
-2144580.974
-2110477.476
-2078802.029
-2047678.668
-2018698.632
-1990261.875
-1962030.694
-1935839.716
-1909743.677
-1883669.035
-1858697.372
-1834479.234
-1810256.774
-1785720.04
-1762591.756
-1739818.762
-1716893.827
-1693755.353
-1671275.253
-1649672.97
-1627886.675
-1605925.762
-1583894.746
-1562333.097
-1541578.098
-1520601.885
-1499559.827
-1478451.394
-1457164.657
-1436876.965
-1416516.356
-1396068.195
-1375554.119
-1354523.949
-1334045.589
-1314288.493
-1294436.698
-1274149.095
-1253664.056
-1233079.044
-1213379.249
-1193687.66
-1173762.918
-1153784.261
-1133653.721
-1113123.116
-1093255.689
-1073725.206
-1054117.089
-1033990.629
-1013555.827
-993062.8891
-973732.329
-953965.8565
-934122.5504
-914150.6215
-893766.3814
-873514.4986
-853943.4114
-834179.7335
-813731.473
-793211.5994
-773158.5184
-752779.4171
-732392.2543
-712002.4987
-691630.9355
-671381.0452
-651194.3285
-630803.4385
-609764.3405
-588859.8264
-568290.0421
-547909.6493
-527413.3554
-506220.11
-485231.0374
-464199.3087
-443463.1238
-422086.9738
-400880.2262
-379762.6926
-357725.9244
-335198.8444
-313520.3522
-290817.701
-268514.5855
-244631.7087
-220859.0658
-200513.8979
-199543.4496
-204524.3866
-209095.209
-215149.963
-222114.3935
)


100
(
-2391183.415
-2323185.997
-2271445.672
-2227707.678
-2187899.142
-2151820.932
-2117440.587
-2085522.936
-2054690.647
-2024647.073
-1996493.141
-1968460.807
-1940940.472
-1915117.731
-1889380.537
-1863544.591
-1838875.552
-1814901.597
-1790871.968
-1766569.434
-1743297.84
-1720712.426
-1697943.885
-1675009.959
-1652072.337
-1630625.76
-1608973.468
-1587176.206
-1565318.574
-1543403.666
-1522408.087
-1501584.549
-1480561.618
-1459474.725
-1438169.668
-1416957.096
-1396709.608
-1376378.277
-1355951.079
-1335003.196
-1313977.18
-1293759.39
-1273997.48
-1253757.096
-1233402.458
-1212971.623
-1192491.095
-1172339.641
-1152450.88
-1132504.474
-1112545.778
-1091881.61
-1071048.394
-1051555.092
-1031972.199
-1011757.84
-991454.2316
-971174.366
-950570.6686
-930848.5575
-911128.1922
-891292.8952
-870485.484
-849609.1036
-829956.2955
-809814.1798
-789330.544
-768570.0964
-747935.069
-727456.084
-706974.9476
-686488.0225
-666205.2933
-645586.4412
-624771.1111
-603975.2169
-583219.0398
-562595.7943
-541870.7931
-520448.0874
-499130.425
-478251.9571
-457484.7967
-435922.9339
-414460.1494
-393034.7922
-371263.6546
-349322.8251
-327664.8898
-304767.4136
-282335.0238
-258947.2618
-234680.7362
-210363.6563
-191768.8179
-192499.4666
-196979.8906
-201203.3687
-206858.8313
-213391.7478
)


100
(
-2398078.045
-2330657.099
-2278986.937
-2234923.873
-2195553.523
-2158922.182
-2124900.915
-2092122.172
-2061629.565
-2031533.484
-2002549.13
-1974817.212
-1947285.462
-1920379.806
-1894915.785
-1869526.851
-1843937.929
-1819438.034
-1795708.013
-1771867.41
-1747816.168
-1724310.238
-1701918.203
-1679314.927
-1656589.25
-1633814.607
-1611845.932
-1590339.718
-1568710.915
-1547038.722
-1525261.508
-1503306.995
-1482497.936
-1461620.629
-1440683.552
-1419454.58
-1397842.509
-1377131.433
-1356919.362
-1336539.833
-1315727.107
-1294842.218
-1273889.063
-1253779.107
-1233655.683
-1213393.252
-1193026.423
-1172559.448
-1151262.922
-1131356.355
-1111560.397
-1091590.947
-1070957.841
-1050264.546
-1029671.772
-1009971.667
-989928.8521
-969802.3404
-949748.553
-928517.0043
-908259.1201
-888647.1499
-868329.2519
-847631.0379
-826974.8502
-805999.2506
-785312.223
-764797.4889
-744274.5829
-723765.7565
-703413.4572
-683137.7748
-662010.0869
-640997.6985
-620015.5484
-599095.1854
-578255.1577
-557469.757
-536143.741
-514977.611
-493775.1863
-472881.2721
-451170.1793
-429483.8145
-408150.0392
-386404.7684
-364348.1355
-341912.5982
-319190.625
-297457.0204
-274194.36
-251297.7244
-227701.7564
-203499.3237
-184721.9247
-185913.1617
-190043.1195
-193797.7904
-199067.0489
-205165.9721
)


100
(
-2405023.836
-2338013.928
-2286369.264
-2242577.928
-2203140.784
-2166163.044
-2132257.181
-2099515.8
-2068415.671
-2038604.012
-2009043.542
-1980991.425
-1953750.25
-1926628.341
-1900246.652
-1875122.697
-1850065.529
-1824720.769
-1800262.681
-1776770.051
-1753121.349
-1729319.846
-1705505.059
-1683283.179
-1660852.553
-1638330.393
-1615767.123
-1593167.347
-1571810.85
-1550255.444
-1528620.447
-1506950.699
-1484842.201
-1463450.669
-1442716.2
-1421918.53
-1400764.735
-1379319.062
-1357803.592
-1337417.995
-1317104.305
-1296424.703
-1275696.978
-1254924.015
-1233818.145
-1213346.398
-1193172.189
-1172954.717
-1152424.73
-1131301.675
-1110176.927
-1090528.841
-1070440.336
-1049949.432
-1029460.243
-1008973.472
-988023.013
-968133.3982
-948241.3664
-927769.8249
-906649.9739
-885589.9103
-865816.3895
-845313.3024
-824381.8222
-803512.8546
-782716.9358
-762050.0532
-741411.3539
-720804.4366
-700074.2372
-678646.0139
-657703.9694
-636826.4063
-616004.4988
-595216.3774
-574152.6514
-552736.3384
-531199.7867
-509693.7796
-488746.5584
-467139.871
-445711.194
-423968.4382
-402252.213
-378975.8923
-356740.3531
-335092.9076
-312539.7298
-289509.3276
-266216.9973
-240960.9355
-217856.9385
-192543.6521
-178559.4613
-179958.6036
-183548.7589
-187063.8507
-191974.2528
-197766.9721
)


100
(
-2411978.247
-2345220.121
-2293797.159
-2250325.528
-2210558.229
-2173960.299
-2139441.233
-2107040.691
-2075307.52
-2045470.039
-2016206.088
-1987134.425
-1959995.259
-1933216.395
-1906434.504
-1880469.307
-1855665.422
-1830847.7
-1805816.329
-1781276.255
-1758012.286
-1734552.283
-1710990.619
-1687412.661
-1664734.914
-1642475.234
-1620148.023
-1597798.635
-1575281.397
-1553007.632
-1531586.469
-1510118.744
-1488627.759
-1466610.207
-1444426.5
-1423721.701
-1403060.789
-1381971.955
-1360687.493
-1339337.333
-1317939.587
-1297544.407
-1276991.102
-1256340.238
-1235666.788
-1214472.482
-1192826.87
-1172787.013
-1152708.974
-1132070.013
-1111117.165
-1090116.8
-1069311.766
-1049142.167
-1028893.642
-1008646.564
-987839.3118
-966273.2466
-946163.9043
-926390.0031
-905463.7008
-884547.6872
-863441.8915
-842295.4267
-821230.0449
-800588.9161
-779933.4349
-759289.1112
-738830.2911
-718080.8758
-696790.178
-675596.978
-654389.6803
-633249.4967
-612187.0422
-590598.653
-569178.369
-548008.9055
-526777.7223
-505480.1227
-483878.0873
-461602.1235
-439862.1151
-418469.2135
-395751.6338
-373510.9731
-351351.2091
-328554.4316
-306035.9118
-282610.7531
-259470.3652
-235102.6982
-209922.4475
-186620.2151
-172366.8034
-174734.6996
-177825.0307
-180950.8639
-185592.7295
-190913.4833
)


100
(
-2418847.227
-2352726.615
-2301581.388
-2258007.602
-2217959.639
-2181667.336
-2146897.689
-2114441.748
-2083010.911
-2052168.277
-2023201.838
-1994549.409
-1966055.939
-1939545.051
-1913203.595
-1886752.605
-1861048.658
-1836548.037
-1811965.926
-1787234
-1762525.848
-1739460.599
-1716195.671
-1692867.963
-1669528.197
-1646306.002
-1624222.996
-1601965.383
-1579679.555
-1557372.98
-1534389.093
-1512970.908
-1491668.765
-1470341.516
-1448419.399
-1426413.43
-1404689.91
-1384173.887
-1363163.203
-1342026.828
-1320860.717
-1299621.328
-1277845.655
-1257399.772
-1236906.767
-1216381.289
-1195085.512
-1173568.257
-1152309.913
-1132360.724
-1111642.611
-1090876.929
-1070182.141
-1049032.45
-1027988.839
-1007882.157
-987807.8399
-966588.4889
-945212.0885
-924102.6289
-903838.3195
-882837.1037
-861814.0841
-840788.2811
-819819.3914
-798963.7934
-778133.8622
-757342.9347
-736068.5176
-714374.2323
-693175.4141
-672176.2618
-651228.4692
-630252.3495
-608837.3417
-587264.6815
-565508.1297
-543725.4245
-522087.3521
-500599.8369
-478948.5974
-457235.6671
-435202.6179
-412595.2094
-390161.1803
-368227.2038
-345460.5948
-322174.3278
-298253.8413
-275941.185
-251898.8085
-227881.0309
-203900.6871
-177783.5645
-167070.5113
-170251.1017
-172787.4307
-175536.8997
-179892.7637
-184782.5382
)


100
(
-2425634.847
-2360199.089
-2309283.967
-2265553.917
-2225932.704
-2189259.563
-2154828.402
-2121713.281
-2090581.767
-2059833.658
-2030065.154
-2001703.836
-1973616.022
-1945724.49
-1919644.72
-1893711.682
-1867588.119
-1842003.474
-1817793.687
-1793442.955
-1768991.122
-1744561.816
-1721170.313
-1698102.739
-1675002.993
-1651900.304
-1628680.52
-1605912.344
-1583837.738
-1561743.189
-1539556.757
-1516792.056
-1494467.312
-1473339.739
-1452127.125
-1430351.981
-1408536.483
-1386673.861
-1365365.998
-1344450.748
-1323421.425
-1302366.25
-1281320.48
-1259245.315
-1237895.426
-1217544.664
-1197039.008
-1175752.171
-1154406.154
-1133044.631
-1111971.615
-1091486.94
-1071012.661
-1050557.102
-1028997.782
-1007122.939
-986956.5682
-966539.7393
-945411.7265
-924232.9523
-902786.9707
-881505.1416
-860280.8356
-839113.8826
-818271.0992
-797469.5537
-776860.9547
-755591.5105
-734159.4299
-712829.9856
-691435.7901
-670074.2954
-648791.893
-626970.7835
-605011.7162
-583625.768
-562418.2525
-540731.2538
-518978.4879
-496917.178
-474398.6408
-452772.4899
-430379.4127
-407691.1695
-385336.6178
-362628.0286
-339238.1841
-316499.651
-292967.8317
-269416.9339
-244692.646
-221239.2475
-194610.2561
-172019.3014
-162783.2596
-166324.9736
-168331.2089
-170728.1996
-174749.8819
-179164.144
)


100
(
-2432345.175
-2367598.049
-2316895.943
-2273180.526
-2233839.739
-2196780.626
-2162689.206
-2129660.214
-2098046.372
-2067607.401
-2037565.995
-2008745.254
-1980957.602
-1953311.609
-1925963.95
-1900292.409
-1874683.364
-1848946.76
-1823349.708
-1799415.351
-1775297.583
-1751126.913
-1726973.877
-1703170.801
-1680322.384
-1657345.83
-1634366.284
-1611297.375
-1587817.856
-1565951.757
-1544049.689
-1521992.988
-1499451.743
-1476867.868
-1455190.127
-1434080.869
-1412481.89
-1390853.631
-1369203.067
-1347322.808
-1325807.801
-1304949.622
-1284066.861
-1262981.801
-1241067.676
-1219107.353
-1198320.061
-1177713.53
-1156575.56
-1135487.882
-1114535.193
-1092535.8
-1071731.576
-1051432.125
-1030783.753
-1009159.849
-987473.7644
-966274.9367
-945342.5249
-924112.7487
-902889.8815
-881659.3483
-860500.2309
-839464.2379
-818456.1824
-797516.2669
-775813.8434
-753994.4917
-732233.2278
-711058.2133
-689980.4829
-668857.7288
-647225.3262
-625433.6476
-603585.1594
-581543.6801
-559620.4326
-537472.8847
-515705.3103
-494071.8831
-471899.8557
-449480.5235
-426559.6395
-404080.5803
-382056.3027
-358602.3767
-335464.0612
-311418.1631
-288268.1608
-264288.7013
-240589.6608
-216013.9179
-191041.499
-166368.5619
-159383.1556
-162882.3017
-164395.7884
-166419.3213
-170133.1104
-174354.4759
)


100
(
-2439220.486
-2374898.775
-2324408.93
-2281177.134
-2241653.959
-2204974.096
-2170453.129
-2137758.465
-2105734.749
-2075286.129
-2045575.401
-2016111.857
-1988168.694
-1960919.667
-1933701.926
-1906742.997
-1881456.583
-1856162.68
-1830791.11
-1805491.333
-1781409.491
-1757526.925
-1733626.897
-1709757.763
-1685827.389
-1662636.344
-1639871.487
-1617119.03
-1594208.824
-1570799.096
-1548292.933
-1526582.15
-1504662.269
-1482337.214
-1459979.434
-1437595.869
-1416223.684
-1394814.846
-1373360.824
-1351905.48
-1330041.027
-1307491.735
-1286640.1
-1265935.096
-1244767.207
-1223044.584
-1201287.943
-1179503.534
-1158641.536
-1137854.701
-1117071.321
-1096260.482
-1073951.794
-1052133.569
-1032025.243
-1010966.852
-989528.4526
-967961.353
-946291.9434
-924779.2597
-903302.5016
-881831.9559
-860786.7764
-839784.309
-819006.2006
-797391.931
-775788.328
-754239.0904
-732677.295
-711176.998
-689777.3561
-667973.3485
-645516.155
-623801.7765
-602295.2091
-580547.5137
-558534.9832
-536494.5248
-513853.6601
-491151.9212
-469273.2037
-446105.7996
-423374.4649
-401251.1157
-377953.6571
-354366.4219
-331549.4559
-308447.3998
-284213.9365
-260621.4439
-235384.9329
-210122.736
-184637.6685
-162393.5392
-156709.3246
-159998.1967
-161023.838
-162661.1512
-165941.9186
-169663.1856
)


100
(
-2446027.188
-2382258.836
-2332238.991
-2289114.239
-2249367.274
-2213093.799
-2178346.945
-2145775.632
-2114041.725
-2082862.728
-2053446.547
-2024430.334
-1995522.978
-1968286.658
-1941545.376
-1914742.38
-1888080.215
-1863101.951
-1838115.288
-1813085.828
-1788110.597
-1763742.167
-1740106.755
-1716440.19
-1692745.201
-1668965.954
-1645202.202
-1622668.264
-1600137.828
-1577396.985
-1554239.02
-1531068.965
-1509310.707
-1487542.185
-1465418.925
-1443284.155
-1421151.463
-1398550.183
-1377301.463
-1356037.64
-1334774.456
-1312927.53
-1290602.052
-1268417.512
-1247905.337
-1226678.927
-1205127.5
-1183734.537
-1162390.504
-1139984.405