/*--------------------------------*- C++ -*----------------------------------*\
| =========                 |                                                 |
| \\      /  F ield         | OpenFOAM: The Open Source CFD Toolbox           |
|  \\    /   O peration     | Version:  2.3.1                                 |
|   \\  /    A nd           | Web:      www.OpenFOAM.org                      |
|    \\/     M anipulation  |                                                 |
\*---------------------------------------------------------------------------*/
FoamFile
{
    version     2.0;
    format      ascii;
    class       dictionary;
    location    "constant";
    object      HO2;
}
// * * * * * * * * * * * * * * * * * * * * * * * * * * * * * * * * * * * * * //

HO2_table
100
(

100
(
0.0003490687403
0.0004175780199
0.000461717259
0.0004912621762
0.0005134270702
0.0005286591689
0.0005402110093
0.0005482089567
0.0005541294625
0.000557415094
0.0005602915369
0.0005601694744
0.00055999358
0.0005592364863
0.0005566963952
0.0005542402151
0.0005517140596
0.000547594176
0.0005436001579
0.000539741114
0.000534851837
0.0005297092842
0.0005246913087
0.0005194952512
0.0005136034709
0.0005078444639
0.000502226232
0.000496271145
0.0004898163145
0.0004835007248
0.0004773198357
0.0004707990684
0.000464132477
0.0004576015901
0.0004512133892
0.000444636487
0.0004375245778
0.0004305696291
0.0004237632968
0.0004168650285
0.0004096111917
0.0004025054756
0.0003955520584
0.0003885716204
0.0003813910026
0.0003743565398
0.0003674681879
0.0003606805858
0.0003532926685
0.0003460478775
0.000338930487
0.0003318337996
0.0003244267637
0.0003171361949
0.000309972724
0.0003027803891
0.0002954909863
0.0002883642077
0.0002814537967
0.0002744731843
0.000267175279
0.0002600967611
0.0002532571433
0.0002462017733
0.0002389054273
0.000231859145
0.0002250737558
0.0002177829422
0.0002105567542
0.0002036243479
0.0001966267986
0.0001892720397
0.0001822333926
0.0001753584317
0.000167956013
0.0001608926848
0.0001539855853
0.0001466074141
0.0001396321856
0.0001325382415
0.0001253574328
0.0001185833965
0.0001113104036
0.0001045600237
9.745620009e-05
9.079210044e-05
8.383224846e-05
7.725625389e-05
7.053472834e-05
6.389404056e-05
5.738015901e-05
5.096260049e-05
4.467741095e-05
3.838760347e-05
3.228834244e-05
2.639974724e-05
2.085623383e-05
1.516057673e-05
8.77099982e-06
2.278954391e-11
)


100
(
0.0003417768693
0.0004101075027
0.0004550571979
0.0004859830712
0.0005089783336
0.0005255857429
0.0005381846581
0.0005470751022
0.0005538373388
0.0005581194232
0.0005612873437
0.0005625974726
0.0005627548656
0.0005624220468
0.0005609894378
0.0005588357718
0.0005565294509
0.0005535842423
0.000549871115
0.0005461236058
0.0005420837575
0.0005374648125
0.0005326069636
0.0005277143783
0.0005226380375
0.000517065275
0.0005115461995
0.0005060310681
0.000500439743
0.0004942867337
0.0004882000653
0.0004821304431
0.0004760430472
0.0004696397377
0.0004633236498
0.0004570844677
0.000450888527
0.0004444213111
0.0004377156738
0.0004311189037
0.0004246114068
0.0004180496912
0.000411197294
0.0004044497508
0.0003977902138
0.0003912097784
0.0003843933569
0.0003777009846
0.0003711109951
0.0003646621181
0.0003580396704
0.0003512439723
0.00034453497
0.0003379044036
0.0003311990779
0.0003243012392
0.0003175011451
0.0003110108215
0.0003053717686
0.0003019022511
0.0003003573695
0.000293832836
0.000283860888
0.0002783693699
0.000276375344
0.0002700329276
0.0002606554462
0.0002569498984
0.0002544726938
0.0002467271915
0.0002390679342
0.000236870318
0.0002326667944
0.0002233023486
0.0002221250133
0.0002194507687
0.0002096303002
0.0002071943034
0.0002043888096
0.0001949277224
0.0001939039829
0.0001887666429
0.0001835806464
0.0001835098243
0.000174631695
0.0001746326624
0.0001688988964
0.0001676696998
0.0001653921894
0.000163958758
0.0001631231275
0.0001634787426
0.0001635172201
0.000163988039
0.0001646516809
0.0001654165305
0.0001651726808
0.0001569782085
0.0001040734307
6.113158046e-05
)


100
(
0.0003344859303
0.0004028299971
0.0004481533903
0.0004798562544
0.0005035671321
0.0005213350452
0.0005346186209
0.0005445086795
0.0005519163656
0.0005571251538
0.000560811501
0.0005629278389
0.0005637518286
0.0005637816001
0.0005630027455
0.0005614399863
0.0005594069809
0.0005569600316
0.0005540274227
0.0005505680726
0.0005468717613
0.0005429053329
0.0005385940015
0.0005339587001
0.0005291996373
0.000524315802
0.0005191690351
0.0005138750415
0.0005085467344
0.0005031825037
0.0004976120501
0.0004917820538
0.0004859651513
0.000480169362
0.0004743279078
0.0004683023959
0.0004623085953
0.0004563613186
0.0004505330294
0.000444503397
0.0004382971809
0.0004321944736
0.0004262271076
0.0004204173042
0.0004141364242
0.000407834425
0.0004015944701
0.0003955961052
0.0003894801376
0.0003831948363
0.0003770922484
0.0003715509648
0.0003667891985
0.0003612429499
0.0003557071005
0.0003504820057
0.0003464866206
0.0003409312986
0.0003356821764
0.0003318920098
0.0003325014888
0.0003335017538
0.0003305946747
0.0003235411179
0.0003170064633
0.0003141693648
0.000310765886
0.0003056944016
0.0003001946393
0.0002965305227
0.0002921289346
0.0002870336131
0.0002828281806
0.0002789654184
0.0002762413254
0.0002759096211
0.0002762491473
0.000272114039
0.000268143834
0.0002675405239
0.0002640344599
0.0002620149589
0.0002627616359
0.0002610051361
0.0002608818919
0.0002624222659
0.0002622024892
0.0002639572055
0.0002663470688
0.000268042605
0.0002703979773
0.0002732130533
0.0002769552436
0.0002790719146
0.0002844496523
0.0002889750845
0.000291784687
0.00025510543
0.0001929502193
0.0001383038785
)


100
(
0.0003271967773
0.0003953395988
0.0004408066317
0.0004728452279
0.000497373876
0.0005158476631
0.0005299913081
0.0005404968645
0.0005487028995
0.0005546615565
0.0005589724761
0.0005618326179
0.0005633088857
0.0005638672132
0.0005636334379
0.0005626771723
0.0005611384059
0.0005591336866
0.0005567389724
0.0005539901116
0.0005507286789
0.000547200506
0.0005434643796
0.0005395071306
0.0005351229812
0.0005306070455
0.0005260313616
0.0005213778128
0.0005164201655
0.0005113880141
0.0005063302663
0.0005013550813
0.0004960334397
0.0004906462596
0.0004853071234
0.0004801077022
0.0004748573725
0.0004693558783
0.0004638407052
0.000458512199
0.0004536150444
0.0004487059203
0.0004434815347
0.0004385582781
0.000434052673
0.0004303812259
0.0004254614296
0.0004206465218
0.0004161648768
0.0004133320234
0.0004086325281
0.0004040685772
0.0003998412204
0.000397184631
0.000392803162
0.0003878687301
0.0003837268172
0.0003819998433
0.0003780443956
0.000373027115
0.0003700766846
0.0003697000195
0.0003690247615
0.0003664462748
0.0003619394527
0.000356879063
0.0003531802836
0.0003499527741
0.0003469768752
0.0003448938463
0.0003424957259
0.0003405087024
0.000339049247
0.0003385145784
0.0003383064933
0.0003369275183
0.0003348246725
0.0003365562632
0.0003383422239
0.0003358156399
0.0003365952759
0.0003387436765
0.0003395094525
0.0003410357024
0.0003437685214
0.0003463445128
0.0003484578108
0.0003508120018
0.0003538158668
0.0003566839268
0.0003607033061
0.0003649185368
0.0003685423875
0.0003756924887
0.0003819156354
0.0003886962239
0.0003941537648
0.0003347193133
0.0002739092537
0.0002151837904
)


100
(
0.0003199102301
0.0003873000763
0.0004328315087
0.0004653424207
0.0004903058969
0.0005095053321
0.0005242877134
0.0005356248306
0.000544349014
0.0005511833347
0.0005560501192
0.0005596712394
0.000561934692
0.0005630645303
0.0005634282368
0.0005630839911
0.0005621510169
0.00056070693
0.0005588288129
0.0005566222813
0.0005541251869
0.0005511646658
0.0005479323592
0.0005445267132
0.0005409934952
0.0005369966573
0.0005328448708
0.0005287287844
0.0005247426396
0.0005204962234
0.0005160099232
0.0005114910471
0.0005071715693
0.000503148245
0.000498516827
0.0004940331038
0.000489870078
0.0004866210444
0.0004823906359
0.000478193984
0.0004742700361
0.0004709480972
0.0004679518859
0.0004636703153
0.0004596507312
0.0004566673682
0.0004553894791
0.0004511290243
0.0004470346994
0.0004442278585
0.0004429689589
0.0004393093535
0.0004353829453
0.0004327158606
0.0004309143335
0.0004273881274
0.0004233149181
0.0004216822479
0.000420409645
0.0004180369756
0.000414760084
0.0004124026515
0.0004107872338
0.0004089762345
0.0004065374592
0.000404197959
0.000402419279
0.000401796603
0.0004003806234
0.0003991471349
0.0003984696379
0.0003983277081
0.000398101012
0.0003963581029
0.0003948621
0.0003969571051
0.0003995499009
0.0003993623808
0.0004002607883
0.0004029363969
0.0004061636527
0.0004083943665
0.0004087774102
0.0004102786117
0.0004132100927
0.0004157957453
0.0004203489326
0.0004237401378
0.0004262218359
0.0004271121131
0.000432856934
0.000439744502
0.0004432288511
0.0004512318641
0.0004589263883
0.0004677353915
0.0004691010305
0.0004009257183
0.0003414950989
0.0002836801322
)


100
(
0.0003126261665
0.0003793730773
0.0004246358346
0.0004572803221
0.0004824262939
0.0005023902482
0.0005175870764
0.0005298396684
0.00053915069
0.0005467638569
0.0005525429419
0.000556703894
0.0005597765352
0.0005616707975
0.0005626367388
0.0005629302264
0.0005626349346
0.0005618602578
0.0005606315875
0.0005590094881
0.0005571136434
0.0005550233378
0.0005525887127
0.0005498532248
0.0005469730128
0.0005440089306
0.0005407629992
0.000537227917
0.0005338466709
0.0005307777518
0.0005279324372
0.0005244091113
0.000520911883
0.000517701958
0.0005153923813
0.0005116388416
0.0005080416716
0.0005048169434
0.0005038683261
0.0005005574921
0.0004972379633
0.0004942384196
0.000492861567
0.0004906411167
0.0004869714099
0.0004836846426
0.0004831001166
0.0004828288921
0.0004790691409
0.0004760233101
0.0004749244774
0.0004741358975
0.00047149942
0.0004689095223
0.0004672429063
0.0004658659364
0.0004637828884
0.0004622717461
0.0004605678395
0.0004592502383
0.0004585746022
0.0004576773803
0.0004558246305
0.0004543140811
0.0004538063816
0.000453968696
0.0004533186069
0.0004522963491
0.0004522067185
0.00045252593
0.0004530411124
0.0004524200807
0.0004517365755
0.0004514799389
0.0004527308523
0.0004524610211
0.000454527674
0.0004573996711
0.0004603255183
0.0004613893414
0.0004615108233
0.0004633537996
0.0004678904632
0.0004702230556
0.0004731635414
0.000475400857
0.0004785638007
0.0004814510672
0.000483226748
0.0004876977108
0.0004926658489
0.0004971528916
0.0005032036763
0.0005109179509
0.0005195918047
0.000529941762
0.0005155648518
0.000453316751
0.0003977754676
0.000343076585
)


100
(
0.0003059344889
0.0003714762466
0.0004161964424
0.000448647085
0.0004742598191
0.0004945140315
0.0005104495052
0.0005232277771
0.000533499586
0.0005415553096
0.0005482666438
0.0005532513371
0.0005569706131
0.0005596822985
0.0005613960511
0.0005623498699
0.0005627270046
0.0005626416234
0.0005622073505
0.0005614073
0.0005602419645
0.0005588846179
0.0005574806719
0.0005559675253
0.0005540184632
0.0005519657302
0.0005498540982
0.0005473058455
0.0005444353381
0.0005419223235
0.0005400875383
0.000538656178
0.000535961471
0.0005333692205
0.0005315694628
0.0005304985492
0.0005274353133
0.0005245486118
0.0005231808036
0.0005231986352
0.0005206380263
0.0005179509107
0.0005163688094
0.0005159125777
0.0005142841385
0.0005111569006
0.0005102989998
0.0005102416987
0.0005104010358
0.0005077574097
0.0005067899468
0.0005061280566
0.0005057035639
0.0005046160103
0.0005028049278
0.0005012073941
0.0004999234124
0.0004993358987
0.0004987694035
0.0004976671964
0.000496864401
0.0004969188681
0.0004976400832
0.0004985498608
0.0004980072959
0.0004980518985
0.0004984418984
0.0004984822922
0.0004989492273
0.0004984831103
0.0004980009591
0.0004984433707
0.0005001387074
0.0005011056144
0.0005021070432
0.0005038297925
0.0005044216236
0.0005055336269
0.0005060134361
0.0005078304378
0.0005111391083
0.0005135427219
0.0005157433683
0.0005176706878
0.0005202639282
0.0005232710155
0.0005261424379
0.0005283237368
0.0005300218173
0.0005341664943
0.0005395866248
0.0005443497592
0.0005508368606
0.0005586533814
0.0005685672478
0.0005806999589
0.0005535554878
0.0004968891744
0.0004465603855
0.0003956759745
)


100
(
0.0002996318467
0.0003637230904
0.0004075312822
0.0004397223076
0.0004655748724
0.0004859303786
0.0005027365681
0.0005158786193
0.0005271015347
0.0005359945944
0.0005432835946
0.0005492128109
0.0005536608439
0.0005571205829
0.0005596650378
0.0005613933223
0.000562520486
0.0005631839355
0.0005635420583
0.000563690597
0.0005636293602
0.0005631713343
0.0005626171382
0.0005621502215
0.0005618727822
0.0005608077925
0.0005595721878
0.0005581659586
0.0005560739267
0.0005538375934
0.0005521065226
0.0005520477167
0.0005512427648
0.0005491900101
0.0005473115407
0.0005471730193
0.000546696181
0.0005442301218
0.0005423068338
0.0005425903626
0.0005431895621
0.0005414164148
0.0005396426276
0.0005393686241
0.0005394166526
0.0005383940397
0.0005372425325
0.0005372153041
0.0005374503244
0.0005375632823
0.0005369317296
0.0005357968321
0.0005348408682
0.0005341960993
0.0005344488001
0.0005350124184
0.0005340456337
0.0005332807805
0.0005332781225
0.000533799532
0.0005344768768
0.0005342351985
0.0005347289
0.0005354048213
0.0005356331869
0.0005360386412
0.0005364216535
0.000535976105
0.0005358965787
0.0005376468056
0.0005398096189
0.0005408181603
0.0005420831344
0.0005426623679
0.0005429608734
0.0005438104236
0.0005438264445
0.0005456586618
0.0005485320102
0.0005506437367
0.0005518448868
0.0005531137709
0.0005549201498
0.0005572288052
0.0005596602999
0.0005623695278
0.0005647148189
0.0005673361587
0.0005698380751
0.000574187062
0.0005793437193
0.0005847981831
0.0005910651641
0.0005995693249
0.0006109504084
0.0006228452092
0.0005862618856
0.0005353264122
0.0004882911506
0.0004422105971
)


100
(
0.0002933308727
0.0003559421802
0.0003987326719
0.000430657617
0.0004563784105
0.0004771696363
0.0004943654525
0.0005083763369
0.0005200149749
0.0005298754883
0.0005377325273
0.0005444656548
0.0005498696238
0.0005540357517
0.0005574157592
0.0005600110638
0.0005619880573
0.0005635046849
0.0005647540469
0.0005657609377
0.0005667146197
0.0005676448805
0.0005679896289
0.000568257613
0.0005686505272
0.0005693438196
0.0005693042487
0.0005687345487
0.0005678465076
0.0005660974419
0.0005644367099
0.0005638306784
0.0005650430117
0.0005647622503
0.0005633155463
0.000562798986
0.000563533443
0.000563589202
0.0005617055463
0.0005617137815
0.0005625533077
0.0005636004405
0.0005626162345
0.0005624001102
0.0005625425161
0.0005628865729
0.0005629203782
0.0005623905606
0.0005620051982
0.000561824997
0.0005619852057
0.0005627773359
0.0005630926213
0.0005626410691
0.0005624392446
0.0005633030589
0.0005645709182
0.0005659153716
0.0005661612948
0.0005664929207
0.0005669312313
0.0005669138391
0.0005671951876
0.0005675414725
0.0005674351897
0.0005675842986
0.0005688039768
0.0005706148326
0.000571852865
0.0005728757289
0.0005742803618
0.000574787273
0.0005758762754
0.0005761391385
0.0005760672168
0.0005780454718
0.000580497374
0.0005820658609
0.0005830554942
0.0005841007631
0.0005854209118
0.0005871487413
0.0005890953985
0.0005911131125
0.000593076519
0.0005950268554
0.0005979072499
0.0006008325372
0.0006045702287
0.0006087089336
0.0006136890041
0.0006192376556
0.000627271071
0.0006370302794
0.0006485678144
0.0006589692353
0.0006166274729
0.0005696862647
0.0005250968706
0.0004819705005
)


100
(
0.0002870322212
0.0003481120939
0.0003899599845
0.0004213216347
0.0004467163211
0.0004680887176
0.000485385756
0.0005002766973
0.0005123831977
0.0005230400768
0.0005318637935
0.0005390263286
0.0005453435842
0.000550482913
0.0005546353602
0.0005581424364
0.0005610401552
0.000563544411
0.0005658359712
0.0005677001278
0.0005694007413
0.0005711389931
0.0005730478891
0.0005741385106
0.0005750959148
0.0005761698082
0.0005775750977
0.000578630763
0.0005786516791
0.0005782459287
0.0005768914008
0.000575835412
0.0005768823719
0.000578728672
0.0005789592566
0.0005782075791
0.0005791726649
0.0005804522396
0.0005810060262
0.0005805835215
0.0005814543087
0.0005825733358
0.0005837845099
0.0005839767524
0.0005837044432
0.0005835745416
0.0005836900295
0.0005844327085
0.0005854368043
0.000585543312
0.0005857510941
0.0005863712408
0.0005876270706
0.0005891208232
0.0005902626457
0.0005905880518
0.0005916009711
0.0005926595341
0.0005933745041
0.000594097436
0.0005945527286
0.0005942768673
0.0005941927913
0.0005952626778
0.0005969346078
0.0005980586609
0.0005988551966
0.0006002521914
0.0006011588458
0.0006019354188
0.0006028261814
0.0006029858652
0.0006038157951
0.0006058112826
0.0006077776316
0.0006090333423
0.0006100793969
0.0006111323754
0.0006123229429
0.0006137528436
0.0006153766329
0.0006171899721
0.0006187933501
0.0006204199191
0.00062262925
0.0006252381638
0.0006284483833
0.000632218346
0.0006360775517
0.0006408861658
0.0006459853394
0.0006532728505
0.0006608535262
0.0006721564296
0.0006848836585
0.0006911628304
0.0006434906998
0.0006006684636
0.0005577813251
0.0005164485991
)


100
(
0.000280736222
0.0003404340636
0.0003811285532
0.0004117145855
0.0004371155058
0.0004585282357
0.0004762698707
0.0004915390431
0.0005045490911
0.0005155222719
0.0005252398319
0.0005332943799
0.0005400985017
0.0005461492259
0.0005512942861
0.0005556931947
0.0005595370127
0.0005629324737
0.0005661262136
0.0005691980093
0.0005716941234
0.0005740244501
0.0005764322722
0.000579023539
0.0005809895955
0.0005825396623
0.0005841888592
0.0005861982092
0.0005882161617
0.0005889655642
0.0005891180798
0.0005882760455
0.0005885567846
0.00059059609
0.0005929469366
0.0005936702074
0.0005944000701
0.0005957986386
0.0005973451804
0.0005984671862
0.0005990361105
0.0005995273156
0.0006001553662
0.0006010223736
0.0006024209012
0.0006030948867
0.0006033668344
0.0006038649219
0.0006051786828
0.0006069701251
0.0006088231669
0.0006095570346
0.0006105445631
0.0006118675671
0.0006132539685
0.0006144280943
0.000615549286
0.0006157848999
0.0006159757023
0.000616362229
0.0006175766499
0.0006192351141
0.0006201412003
0.0006207924057
0.0006222847371
0.0006237469972
0.0006244395128
0.0006251413481
0.0006251960244
0.0006254939899
0.0006273653275
0.0006295011653
0.0006305687884
0.0006321085035
0.000633423932
0.0006347254087
0.0006360039732
0.0006374040218
0.0006389467122
0.0006405752929
0.0006420935232
0.0006437560795
0.00064568849
0.0006479046173
0.0006505801544
0.0006538537995
0.0006568113358
0.0006609402306
0.0006655647869
0.000670572679
0.0006772015226
0.0006845370994
0.0006941015733
0.0007064403855
0.0007199811154
0.0007166566283
0.0006672219985
0.0006280195637
0.0005867977739
0.0005470310969
)


100
(
0.0002749426061
0.0003328875168
0.0003722653749
0.0004019512888
0.0004273535565
0.0004485306361
0.0004668885262
0.0004822096304
0.0004960260879
0.0005076954586
0.0005178883297
0.0005268230864
0.0005343757546
0.0005410406705
0.0005470890963
0.0005524720319
0.0005572762182
0.0005615725166
0.0005655319505
0.00056937793
0.0005731649023
0.000576242856
0.0005791273792
0.00058211052
0.0005852795138
0.0005881075767
0.0005902211058
0.0005924062083
0.0005949151296
0.000597447722
0.0005993178741
0.0006001306391
0.0005999121262
0.0006018299383
0.0006043065159
0.0006068911685
0.0006083903296
0.0006097164447
0.0006108252386
0.0006120142253
0.0006134904082
0.0006146075098
0.0006153463531
0.0006161829692
0.0006174214969
0.0006193495595
0.0006214704217
0.0006227373217
0.0006237141171
0.0006254238507
0.0006273819367
0.0006293238365
0.0006310377742
0.0006318782359
0.0006323577699
0.0006328064653
0.0006335172197
0.0006351577641
0.0006367892726
0.0006374051279
0.0006383240036
0.0006399299844
0.000641652335
0.0006430474927
0.0006438356022
0.0006441264946
0.0006444531018
0.0006457921384
0.0006475349959
0.0006480412869
0.0006496772142
0.0006515443431
0.0006530654456
0.0006545672373
0.0006561308136
0.0006577971153
0.0006593773104
0.0006608253601
0.0006624302444
0.0006641841166
0.0006662064699
0.0006684445539
0.0006709439318
0.0006738787514
0.000676559233
0.0006798643981
0.0006834656713
0.0006884092826
0.0006931399642
0.0006995179444
0.0007065104977
0.0007151001892
0.0007255272427
0.0007381994965
0.0007526425714
0.000736968543
0.000688980722
0.0006534947443
0.0006137562688
0.00057545076
)


100
(
0.0002697244155
0.0003255599381
0.0003633841187
0.0003925045934
0.0004173398977
0.0004384532678
0.0004570252533
0.000472882403
0.0004868490671
0.0004993267828
0.0005099387294
0.0005195484012
0.0005279731504
0.0005352994717
0.0005420092634
0.0005482237135
0.0005539431236
0.0005591938366
0.0005639798707
0.0005684720336
0.0005728909058
0.0005772143746
0.0005809448735
0.0005843455985
0.000587839536
0.0005915127888
0.0005950921909
0.0005978523381
0.0006005323756
0.0006034389507
0.0006063730636
0.0006090488411
0.0006107481601
0.0006120786141
0.0006142793988
0.0006165390151
0.0006186756289
0.0006207606865
0.0006220275367
0.0006232518412
0.0006246217894
0.0006265156116
0.0006287463169
0.0006303007776
0.0006316370257
0.0006333487166
0.0006356143166
0.0006380522671
0.0006403985133
0.0006420233593
0.0006433986872
0.0006444594189
0.0006454502518
0.0006467162148
0.0006484883806
0.0006492653814
0.0006499359833
0.0006512177581
0.0006531927123
0.0006552709832
0.0006570813741
0.0006579882848
0.0006586174577
0.0006592573262
0.0006605893522
0.0006623288988
0.0006629135123
0.0006640838666
0.000665981784
0.0006678869051
0.0006695737847
0.0006710762158
0.0006724371435
0.0006738771387
0.0006754510551
0.0006771731413
0.0006792106095
0.0006813559979
0.0006835975735
0.0006859941605
0.0006884291456
0.0006908739523
0.0006935822521
0.0006967234087
0.0007001421772
0.0007041929325
0.000708232042
0.0007130332465
0.0007190358908
0.000725945311
0.0007338666336
0.0007423471188
0.0007530997987
0.0007663914558
0.0007792887574
0.0007543926708
0.0007123591382
0.0006780367506
0.0006403869189
0.000603997357
)


100
(
0.0002645082716
0.0003183532982
0.0003547468761
0.0003830004785
0.0004071117096
0.0004284094923
0.0004467369667
0.0004631391032
0.0004771899353
0.0004902115756
0.0005016255426
0.0005114590885
0.0005206775042
0.0005288353484
0.0005361289911
0.0005429916846
0.0005494448578
0.0005555130391
0.0005611951677
0.0005664666571
0.0005714460554
0.0005763527816
0.0005811672941
0.0005855496345
0.0005894449837
0.0005933873264
0.0005974664359
0.0006014726905
0.0006050503963
0.0006081220342
0.0006112560957
0.0006143385701
0.0006172105637
0.0006198594932
0.0006218551979
0.0006238463773
0.0006258598318
0.0006280235386
0.0006305683461
0.0006327858782
0.0006344585444
0.0006362473574
0.0006386247441
0.0006413448159
0.0006440740437
0.0006460829845
0.0006480390232
0.000650126337
0.0006520919313
0.0006537933781
0.0006555390121
0.0006567155402
0.0006575368067
0.0006584722331
0.0006601911238
0.0006623872754
0.0006645604532
0.0006657243848
0.000667314124
0.0006688109094
0.0006699961558
0.0006714734194
0.0006727966122
0.0006734743133
0.0006745335451
0.000676602707
0.0006788360437
0.0006806573379
0.0006822710666
0.0006838922113
0.0006855403939
0.0006872351062
0.0006889087133
0.0006906660477
0.0006925953001
0.0006949020408
0.000697446482
0.0006996900838
0.0007020114468
0.0007044705908
0.0007072200519
0.0007101793992
0.0007137051504
0.0007172947458
0.0007207857685
0.000724739081
0.0007297252821
0.0007353986625
0.0007419127829
0.0007482159613
0.0007560639787
0.0007648302129
0.0007765557913
0.0007898353482
0.0007995411738
0.0007715789639
0.0007353809138
0.0007030298645
0.0006676532129
0.000632830152
)


100
(
0.0002592941142
0.0003112846127
0.0003462601338
0.0003734604411
0.0003970116972
0.0004181027649
0.0004363855173
0.0004528927067
0.0004674932802
0.0004803943295
0.0004924725495
0.0005030860842
0.0005124853853
0.0005213746398
0.0005294480385
0.0005368303351
0.0005438947375
0.0005506107124
0.0005570167751
0.0005631171061
0.0005688605809
0.000574283386
0.0005796234967
0.0005848883628
0.0005898920376
0.000594249956
0.0005985547434
0.0006028915546
0.0006071380861
0.0006111461947
0.000614563054
0.0006177196983
0.0006207147813
0.000623585766
0.0006264676367
0.0006292479017
0.0006315072029
0.0006337319612
0.0006361923392
0.0006391789447
0.0006423011789
0.0006448663018
0.000647116794
0.0006497836924
0.0006526014395
0.0006553282563
0.000657773228
0.0006596002258
0.000661048959
0.0006623408664
0.0006637397454
0.0006656852591
0.0006677892994
0.0006690757902
0.0006704579385
0.0006725249699
0.0006747565351
0.0006768197156
0.0006785298297
0.0006795489297
0.0006804383675
0.0006815759944
0.0006837022023
0.0006859763987
0.000687297987
0.0006892256402
0.000691318134
0.0006933152554
0.0006952622636
0.0006972000187
0.0006992441122
0.000701339644
0.0007033324887
0.0007052417738
0.0007073236918
0.0007095749932
0.0007120828474
0.0007146888816
0.0007173976262
0.0007204735915
0.0007239127402
0.0007268227117
0.0007301551732
0.0007337353614
0.0007379748559
0.0007430182146
0.0007480690982
0.0007535335406
0.0007592233771
0.0007660203101
0.0007734241226
0.0007827804962
0.0007938685655
0.0008076442851
0.0008146699322
0.00078732112
0.0007564627884
0.0007269067782
0.0006945754495
0.0006627903597
)


100
(
0.0002540818821
0.0003044172815
0.0003378989588
0.000363923643
0.0003871149179
0.0004075766013
0.0004260315066
0.0004421912638
0.000457209416
0.0004704483101
0.000482552284
0.0004938015315
0.0005038247875
0.0005129417213
0.0005216756247
0.0005297837223
0.0005373304476
0.0005446127415
0.000551608949
0.0005583499647
0.0005648601167
0.0005710444272
0.0005768726772
0.0005825829536
0.0005882075632
0.000593578221
0.0005984430624
0.0006029610069
0.0006073434499
0.0006115521831
0.0006155426216
0.0006192806665
0.0006224835662
0.0006254838369
0.0006284572004
0.000631675986
0.0006351149731
0.0006381385789
0.0006408418869
0.0006437216272
0.0006470437183
0.0006505033664
0.0006538195772
0.000656491748
0.0006589931603
0.0006612697656
0.000663346029
0.0006653677675
0.0006675987957
0.0006691910689
0.0006706229093
0.000672312629
0.0006746276448
0.0006770936174
0.0006793345856
0.0006810222519
0.0006826843868
0.0006841712155
0.0006856971836
0.0006877720228
0.0006894103862
0.000690694592
0.0006926405738
0.0006951157118
0.0006975843684
0.0006998725809
0.0007019442524
0.0007038963611
0.0007058541056
0.0007078921539
0.0007099658855
0.0007121126521
0.0007144017652
0.0007167603477
0.0007193493591
0.0007220990631
0.000724842692
0.0007273359783
0.0007301494557
0.0007331162048
0.0007365062771
0.0007398712706
0.000743402041
0.0007475754749
0.000751701628
0.000756788653
0.0007619435616
0.0007674518844
0.0007733013197
0.000779066089
0.0007865850441
0.0007956694055
0.0008050773198
0.000818012353
0.0008232063913
0.0007998625721
0.0007737544746
0.0007479824479
0.0007190384576
0.0006909219049
)


100
(
0.0002494493763
0.0002977723996
0.0003296756248
0.0003547092584
0.0003771794904
0.0003970498544
0.0004153890501
0.0004315933545
0.000446383701
0.0004600433063
0.0004721935144
0.0004836577819
0.0004942912435
0.0005039121042
0.0005128891113
0.0005215836563
0.0005297985886
0.0005375581122
0.0005450628884
0.000552351833
0.0005594208173
0.0005663075488
0.0005728669008
0.0005790546219
0.0005850313918
0.0005908432922
0.0005963682721
0.0006014704435
0.0006060224358
0.0006103043525
0.0006143537357
0.0006182878903
0.0006221927007
0.0006258192756
0.0006291209655
0.000632416014
0.0006360467641
0.0006399760123
0.0006438611958
0.0006471758067
0.0006503706356
0.0006536951067
0.0006569582628
0.000659979352
0.0006627154608
0.0006649750083
0.0006668909098
0.0006687311735
0.0006708865019
0.0006734521232
0.0006759890626
0.0006779079366
0.0006799851941
0.0006822796598
0.0006844955732
0.0006864601402
0.0006884323261
0.0006899227217
0.0006913742801
0.0006933560151
0.0006959150037
0.0006984516143
0.0007003853546
0.0007026890347
0.0007049876502
0.0007071974055
0.0007094009872
0.0007116241752
0.0007139234075
0.0007162460693
0.0007186376977
0.0007212264936
0.0007236124368
0.0007260306794
0.0007285918448
0.0007312713548
0.0007338823906
0.0007364799723
0.0007398279667
0.0007433840879
0.0007464341318
0.0007496008967
0.0007527423592
0.0007572738202
0.0007619991678
0.0007672385962
0.0007720299699
0.0007768723086
0.0007821719584
0.0007878645906
0.0007944842519
0.0008030634601
0.000812466043
0.000824728789
0.0008265039371
0.0008077848816
0.0007868462523
0.000764654837
0.000739477754
0.0007150030092
)


100
(
0.0002452104104
0.0002913965106
0.0003216609908
0.0003457225526
0.0003672389438
0.0003868376126
0.0004045118441
0.0004207942585
0.0004352200643
0.0004490107012
0.0004615775687
0.0004727967394
0.0004838291731
0.0004940533536
0.0005034272708
0.0005123543114
0.0005210876256
0.0005294429214
0.0005374521586
0.0005451618882
0.0005527416746
0.0005600894156
0.0005672530404
0.000574062845
0.0005804690235
0.0005865268014
0.0005922738002
0.0005976734696
0.0006027220425
0.0006073495671
0.0006116075196
0.00061563524
0.0006196855326
0.000623929773
0.0006281677746
0.0006320140601
0.0006357508123
0.0006397234144
0.0006439184451
0.0006480392431
0.0006518137598
0.0006549959407
0.0006579074134
0.0006605661506
0.0006631202935
0.0006657737541
0.0006684366817
0.0006706496295
0.0006728066745
0.0006753173543
0.0006781536105
0.0006809390351
0.0006834013238
0.0006854421883
0.0006872971959
0.0006890938704
0.0006912295868
0.0006937227079
0.0006957627833
0.000697722032
0.0007002774552
0.0007030088502
0.0007056395898
0.0007081524867
0.0007105930869
0.0007128296039
0.0007150293317
0.000717282995
0.0007195647522
0.0007219426151
0.0007243580717
0.000726839923
0.0007295341279
0.0007323606389
0.0007351453903
0.0007379552997
0.0007405251022
0.0007430970492
0.000746109821
0.0007493637615
0.0007522953384
0.0007558556705
0.0007595249215
0.0007635814842
0.000768092062
0.0007724322717
0.0007768329688
0.0007815912777
0.0007862591561
0.0007913328957
0.000796828511
0.0008038403856
0.0008131908613
0.0008232175241
0.000825241246
0.000810601601
0.0007945606799
0.0007765868913
0.0007552514369
0.0007355838257
)


100
(
0.0002409730321
0.0002852065177
0.0003139690929
0.0003368783512
0.0003574111788
0.0003765757952
0.000393702747
0.0004096903402
0.000424198546
0.0004374117939
0.0004502374098
0.0004619336362
0.0004725234842
0.0004831897966
0.0004931625863
0.0005024193215
0.000511327151
0.0005201524103
0.0005286683633
0.0005369165927
0.0005447782535
0.0005526049855
0.0005601194998
0.0005673695151
0.0005742157499
0.0005805306619
0.000586485228