/*--------------------------------*- C++ -*----------------------------------*\
| =========                 |                                                 |
| \\      /  F ield         | OpenFOAM: The Open Source CFD Toolbox           |
|  \\    /   O peration     | Version:  2.3.1                                 |
|   \\  /    A nd           | Web:      www.OpenFOAM.org                      |
|    \\/     M anipulation  |                                                 |
\*---------------------------------------------------------------------------*/
FoamFile
{
    version     2.0;
    format      ascii;
    class       dictionary;
    location    "constant";
    object      la_i21;
}
// * * * * * * * * * * * * * * * * * * * * * * * * * * * * * * * * * * * * * //

la_i21_table
100
(

100
(
34.44363468
-0.03275029037
-2.395730827
-25.24106052
-94.46259112
627.8695315
-538.9283284
-15.53485768
279.3793345
-25.34677775
-105.9691757
-138.5495816
313.691273
-145.3476786
15.75265448
-54.80740523
162.3909285
-297.781982
276.3260795
-216.3883965
198.477948
-159.1259991
101.0733728
2.853805825
-183.7437893
171.8211472
-34.22136991
-125.1299294
93.50174353
33.33170073
9.801488683
84.25614596
-187.7508297
66.49203584
188.5095881
-303.3174021
134.6678772
-92.83157321
-431.5798963
710.9939508
-220.4959083
277.9818045
-385.4781966
-289.4839034
447.2482929
411.3860707
-1282.447541
786.0179132
-42.91708003
-364.7868533
368.2002011
-514.034349
371.5774324
-201.813104
-165.9263096
703.1790617
-860.6779811
507.0667147
-428.6688664
157.277238
27.16749438
18.77595607
14.84375453
-20.28349827
55.23280334
58.00472211
-21.76031097
-142.8673054
35.80580697
93.09511945
-42.83385021
-73.95299471
0.7880228407
2.854282965
28.17118371
-15.77863294
-26.65725625
-13.96669237
4.070823778
-7.795793751
-15.44687621
-8.027636777
31.67420494
-29.21472269
4.344822914
-15.82490041
-1.202278361
15.46321941
-11.56226151
48.86564521
-70.50368546
-31.79463417
11.25068097
-10.92356836
-6.158276056
-1.195424495
-15.69987289
-30.24594975
-26.3540144
0.02135482667
)


100
(
33.02424477
-330.4468348
-569.356597
-659.9264322
-637.1540435
-682.9588856
-680.3487314
-709.3913167
-686.3129135
-728.474996
-733.1260828
-608.8641451
-711.7391637
-858.4669664
-726.6781851
-691.6178594
-778.1420152
-766.3727105
-713.0084058
-693.4674993
-715.4345344
-769.689467
-770.5424374
-641.1681675
-453.1541366
-503.3676908
-682.460025
-959.8388524
-1320.793562
-1234.060474
-949.0000041
-584.3129853
-299.6467115
-459.6083352
-690.0563787
-1038.434022
-1743.434903
-1870.292567
-1158.006024
-649.8388166
-946.9033189
-1434.957075
-1261.245095
-1008.780316
-809.6034336
-813.7127432
-735.8423894
-663.2869359
-1054.881837
-2198.995228
-2245.626625
-1276.590906
-969.7823139
-1407.522968
-1729.880106
-1411.551825
-1148.47413
-852.9190047
-879.2508601
-848.2238749
1141.408891
-1244.494205
-4614.475801
-141.1791726
2924.791348
-1892.265174
-5314.30016
3290.670588
897.7347887
-2841.51794
-1768.027641
3360.45069
-1566.015374
-4538.819121
2959.519428
1943.335863
-6142.397234
2235.953919
2237.743658
-5713.625464
3658.19538
-1392.95997
-2452.126989
3769.707602
-4508.402374
1377.308746
-3.809511532
-1655.16745
1278.72001
-1304.081339
338.7820876
-401.1553333
353.3126474
-141.9494425
143.7921857
-60.69698128
127.0160208
77.28493224
35.10422367
-3.587084897
)


100
(
29.04732115
-140.9309781
-384.1699953
-525.57227
-535.5762013
-517.1858862
-555.9930833
-594.5116814
-572.5885787
-566.3526787
-691.1986516
-447.8838037
-386.8228832
-801.6191186
-799.5924387
-591.8869644
-685.1102175
-786.1907463
-757.9138214
-703.0212077
-671.5496372
-736.3975427
-855.5120976
-863.4959278
-674.9858248
-503.2973472
-474.587679
-569.4878733
-940.2636111
-1379.911819
-1546.825261
-1290.236985
-865.3211509
-591.691667
-443.5211025
-498.452322
-773.0714774
-1396.921261
-2157.332061
-2075.392099
-1379.656668
-1095.370551
-1437.373879
-2030.693393
-1813.910429
-1582.535111
-1370.391813
-1242.80204
-1088.110698
-993.9142758
-1155.742007
-2045.760969
-3295.95776
-1974.73932
-730.2746509
-204.0712931
-2181.024512
-1093.992628
-79.58220369
487.9305686
-290.0250016
1928.580755
576.0926367
-1504.981441
-1057.721076
2925.740647
35.65185845
-2918.761391
1814.730907
636.1984419
-996.2799545
-2970.268092
857.2846782
-587.9775177
-3760.49395
-2374.924329
5241.712751
-647.8372805
-4051.603055
1926.241434
-3091.193217
2402.960012
-4526.350781
2429.611279
-103.1563265
-1976.855464
869.8245859
-455.9218683
-465.5784637
354.0906214
328.9805532
237.5366475
1.123082383
291.9343813
16.99637554
46.77974873
-218.5830207
125.469526
84.37046219
53.24092222
)


100
(
22.20287155
101.8295987
-132.2546427
-410.8011449
-446.2382677
-360.3136706
-433.8681368
-503.7559808
-510.4485085
-421.368713
-560.0853369
-461.9251444
-71.50313216
-372.8792042
-800.6176675
-653.016169
-514.1631173
-658.3824782
-773.6689733
-775.4211952
-724.4272723
-707.7458292
-802.2242358
-949.1599496
-982.7960851
-880.2193419
-706.2824838
-538.6301109
-610.6586706
-895.3304659
-1349.806939
-1840.79518
-1871.461796
-1583.913849
-1179.057194
-825.4419738
-642.2204134
-688.341776
-997.1305397
-1826.313242
-2988.34112
-3114.572236
-2028.43212
-1273.611956
-1201.674069
-1955.061082
-1180.396485
-46.40550938
388.12383
-486.4022636
-35.05710213
327.0396561
-261.579401
-1335.455362
-5.748722579
2210.643792
2588.510967
-1352.148156
-977.9853882
1304.437367
965.5854811
-586.0663417
726.0530284
35.69272448
-567.993261
-1272.546357
431.6486501
-886.1639232
-2327.141256
-2465.753
-1010.268622
-641.6409434
-518.8533038
-188.9760924
-2275.817178
-2552.623438
4720.25381
-1090.61426
-5992.114694
4322.708464
-46.01439648
-2846.754284
2186.294904
-1044.332205
-851.9181205
-369.3602547
217.3972598
404.2001537
331.2044663
207.2065312
425.8172508
263.8626905
239.8521462
-5.677896469
105.1497335
65.26991673
934.5852308
-12.59036727
153.3956931
115.932344
)


100
(
15.54221637
218.5949402
61.76152323
-284.628156
-368.6931822
-269.480009
-302.3582331
-432.9610617
-492.4568717
-382.1606305
-393.7779049
-528.5145202
-204.843533
20.28903365
-447.5205216
-793.0862329
-628.1670673
-541.7840992
-721.7323251
-885.9179474
-946.6093256
-939.4640832
-952.116542
-1049.015163
-1224.49255
-1325.985366
-1292.769521
-1086.991953
-863.7911635
-853.3661905
-1040.918661
-1500.833651
-2194.2937
-2643.863691
-2221.741562
-1453.66829
-703.6854831
-305.6966437
-270.2928278
-251.1756933
-941.5959049
-1755.982559
-1051.70584
431.1152072
1562.515677
839.5332891
-1460.03013
-167.232429
1508.976494
1168.765243
-430.9850301
-200.707091
226.5338588
-59.37365636
-702.4236505
858.2977383
2953.382709
713.4937811
-1727.55788
-2063.56757
-552.7872044
-880.9314105
-2161.733342
-1909.349412
-1010.231785
-472.663691
197.6715201
197.3034279
255.2745563
-155.3751659
-204.2217863
-243.3099064
-1496.977576
-46.46822426
4642.002846
-805.7851022
-4613.578947
2239.055754
750.5753007
-971.4735796
-1400.492706
-1762.866279
-112.5674885
237.3923278
283.3886457
908.4265177
87.37642126
482.6909458
15.01031233
1418.408633
402.3185816
1.716252432
335.2674961
158.9096507
238.4783028
339.339979
1312.195411
-13.64764387
248.9648947
208.8754636
)


100
(
15.58302494
402.9151142
291.4018947
-142.932591
-309.4485259
-228.9761789
-180.0360148
-348.7862297
-480.1487098
-424.0165976
-348.0613106
-471.9624699
-522.2207148
-183.2721285
-85.24564935
-585.4545027
-906.1014248
-787.7125336
-753.9535922
-973.04082
-1203.502632
-1359.590563
-1418.652764
-1411.90744
-1456.074271
-1585.863748
-1684.494668
-1651.669488
-1363.750125
-965.2692657
-676.2190232
-641.6429743
-859.2807698
-1287.202313
-1106.387722
-435.1176544
403.4876998
839.3703901
263.1842606
-53.687379
-396.7440607
-1111.013173
-1114.620583
-155.8426903
1597.073854
2621.332806
350.0473579
-1778.042582
104.9008876
1624.010184
562.1784786
-802.028464
-808.3015446
-243.1703726
-268.9021801
-677.9381237
-609.5974476
-2093.263775
-1802.869622
-1522.312347
-1966.654223
-1771.375175
-219.3989358
769.8541378
514.8317809
-677.6786626
-687.9621183
-45.14202836
-236.0538383
-617.7983748
-1920.321474
-782.1196078
-202.2514349
-208.6110455
-1202.676117
3625.491394
-728.1896428
-649.9477175
-2036.648641
-950.4474781
683.2161229
1189.887151
-732.5386983
231.6728613
264.9664602
510.6266761
1205.020484
950.1805316
920.9487781
-141.7070431
502.2089326
448.9844233
284.6515552
381.8837864
394.419544
-82.35870476
1219.300499
921.6273171
215.6628597
348.1772537
)


100
(
18.39211828
621.5849586
549.8142831
8.835332527
-258.6007151
-235.2420828
-117.8143078
-228.5614022
-439.1170421
-453.7055323
-407.0097624
-436.0499963
-597.2110948
-632.2895657
-316.661143
-284.0744513
-814.7807664
-1185.47882
-1148.216185
-1123.846565
-1309.427095
-1560.204748
-1716.345068
-1623.811802
-1359.460862
-1089.663146
-867.4727322
-749.7636897
-645.134948
-421.5797444
-161.37672
-96.43176446
-289.7469927
-701.551475
-888.2448321
-421.3888749
391.2683009
1174.344551
956.6270477
31.96905302
-414.9721961
-807.9889699
-892.5411238
-483.1457708
641.7477366
2259.251211
1630.049888
-422.9771976
-1952.490487
-532.3859789
-478.499696
-1557.011105
-2881.280609
-2672.155799
-1504.081374
-624.5961322
53.79089236
368.7796153
515.038171
587.7238131
669.2046674
320.6041802
-599.8293348
-1950.157614
-859.7233453
-1008.289461
-1960.284947
-1612.790198
-1921.171327
-829.2403584
200.9874128
596.6034306
-0.3521093184
-128.7839888
-361.4229857
-1309.768052
45.08708288
289.7651946
477.4078943
559.3215406
484.4105434
559.9336061
946.3088298
777.3154719
1121.797007
944.2956495
427.5118255
892.2698985
1222.313363
690.7723508
528.7228594
673.1772017
802.0576074
826.8432284
921.6533589
2167.609142
906.9546956
590.8316053
1364.111416
298.6432313
)


100
(
14.6626607
893.0789961
823.4859962
165.4666651
-196.6187416
-263.4636373
-137.6198362
-115.4666136
-352.2896268
-463.6193725
-453.0320289
-506.8470411
-586.6598612
-789.8282932
-853.3465418
-566.2252775
-575.7315079
-1121.256671
-1505.995167
-1404.46058
-1154.021294
-1108.890958
-1204.044804
-1129.744772
-712.0941705
-373.8980988
-175.5028734
-94.40840105
-95.59368093
-64.27365663
77.05067202
203.555686
51.88141037
-393.4501996
-796.0232149
-556.6963558
108.8260323
987.6753844
1409.521153
633.3697309
-369.5236911
-975.8828673
-1063.728897
-560.4489928
-43.33629099
812.6819302
793.8209287
-592.8231441
-2435.027252
-3339.756519
-2463.239621
-1144.245153
-260.7475102
152.3420312
-391.9389765
-1263.506903
-606.2511999
-8.290266837
303.4877415
441.5454594
521.3235838
378.601866
-433.6545561
-1481.665591
-1588.566255
-1867.95411
-1113.436688
300.7079958
1365.331917
256.8556364
-1240.381609
-1074.965276
-1275.415932
-748.0435461
-141.359512
-276.4498803
940.7287376
865.7367672
76.97519889
-207.9244274
937.0338279
1303.637538
1527.406352
1321.900667
828.8164313
1063.537919
882.7230256
317.3941654
887.6849162
602.3957653
98.88826659
440.9266591
450.5194233
666.6099334
783.3884051
2239.4996
935.5303197
900.0428824
718.5230932
896.0051641
)


100
(
8.520589392
1128.906266
1055.193646
323.5633323
-114.8197915
-261.867739
-215.1045639
-97.16768436
-229.0000631
-458.6257661
-498.698481
-580.9407703
-708.7210408
-802.7733891
-1050.425167
-1137.195827
-829.9669281
-737.9213777
-1132.193317
-1370.412129
-1019.016822
-415.5494365
-281.0725745
-497.5023985
-497.883292
-90.61035679
262.5238431
325.6897186
219.0076361
118.8009647
113.8447439
189.8837653
206.852973
-102.7153108
-603.9817098
-661.8164646
-173.7001062
532.2838386
1200.816047
915.5614501
-88.69829793
-1288.606644
-1784.294479
-1220.802711
-751.3857813
-558.3200276
-321.5105567
-357.6820252
-501.4904958
-863.5620366
-1254.846816
-887.1458755
-303.9612627
469.9252763
1079.624725
562.6273547
-448.1202102
-1586.791183
-1709.388294
-1617.082332
-1746.684469
-655.4978039
283.4999966
332.4849029
209.960045
-191.5254274
-229.7075187
-473.8339963
-196.001997
-35.48222348
-928.1656908
-646.8702895
-1014.603753
-11.66338616
1168.565459
469.2591978
-575.5985621
-546.9516559
626.1111645
1033.554692
1123.139938
1034.467257
324.3045316
1137.092097
1507.621789
1239.585101
706.991979
677.7792074
813.9991447
1011.743203
1451.330126
1159.823116
1151.657852
980.0716428
835.6742932
1964.705248
1147.818554
610.5982007
560.1799076
1094.752255
)


100
(
5.031755638
1248.353458
1240.018671
460.4912132
-29.75234332
-223.0398673
-272.0658894
-183.985339
-170.5524441
-405.6137388
-586.3491677
-653.9272465
-850.8273974
-956.7827842
-965.0398019
-1162.319988
-1193.694843
-708.0961912
-277.8156884
-502.5093536
-783.0721646
-431.2145982
252.9800452
320.2285748
-106.5757731
-297.2491799
94.13642726
554.3853959
602.9631565
378.242455
218.4880797
182.1602995
257.2144785
93.31615175
-435.0668422
-827.9953581
-510.6295013
26.21833745
478.821403
435.9803969
-411.7147699
-1592.535478
-2610.288689
-2176.450958
-1029.816552
-143.524999
406.190752
666.486222
657.5067828
333.301881
-210.1969037
-527.0150979
-331.1595223
-266.6491182
-155.112795
173.7102285
-277.9708384
-1095.264862
-1577.823005
-1847.774761
-1179.278722
-60.99622024
834.7769078
807.8404932
410.0544185
-130.0871393
-562.0774975
-793.3165733
-421.3201197
-29.41341615
-146.943555
322.9345215
328.6383037
-42.36362744
-787.5853873
-267.2701867
717.5018149
973.5395565
1090.392731
1066.813093
470.1468711
939.7554767
1851.738563
1940.400581
1353.172302
1065.763132
1183.013305
574.1533382
578.8256755
769.5566307
586.8278487
1009.473201
1247.152508
1818.165235
1081.749441
3803.411825
858.0057381
1333.841587
757.3712644
75.94099542
)


100
(
4.651363283
1362.958411
1384.288289
552.060579
52.90262391
-161.9083054
-263.2168164
-286.7709563
-239.43808
-336.2176336
-646.8988381
-797.2438573
-895.3057536
-1077.939115
-1003.267593
-725.3880638
-816.4527351
-805.0372452
-176.4389013
446.1553978
179.2175061
-358.9417024
-193.4139082
421.4107175
542.5454956
49.34256289
-263.9854687
151.1880458
754.4629941
793.2804249
-116.0146446
-421.3660364
-182.5922743
-42.03176855
-327.7083696
-842.7700946
-879.1427292
-537.6062012
-301.8986454
-367.395639
-663.8767993
-836.9969517
-1080.719867
-1253.744559
-991.8500305
-458.0271102
112.0703157
559.1800584
626.3572977
536.8271262
263.1073852
-430.4997263
-730.0324973
-619.9708769
-800.2064427
-773.1131049
-458.4419264
-129.0744598
-48.32851099
-315.6462751
-404.4660539
-613.9382053
-376.265733
58.4626948
-483.8771745
-1369.410965
-827.7729497
-120.0830668
654.919518
1261.148067
284.199602
-996.0295374
-1006.331332
-444.2592928
347.8105762
318.9660073
947.4844094
1059.402481
504.6831007
631.2472877
1525.923539
1662.572809
1674.044326
1300.363119
1565.375621
1892.321131
1515.923626
1701.196339
1902.821064
1680.136986
2031.733467
1871.792286
1913.593339
1517.003708
2844.089269
4984.52629
3461.398103
877.4966357
1108.420236
1076.972294
)


100
(
6.103746272
1451.389097
1471.784133
597.9113954
105.4509103
-104.921623
-224.2955682
-318.1004357
-384.0554014
-369.0915078
-555.0945807
-889.4828701
-947.6169821
-904.1620223
-952.0909776
-636.7455496
-174.3130153
-273.4059078
-362.9014062
234.0202303
883.0475317
552.446361
-142.4135785
-166.8398176
417.7363993
674.8782237
200.0355556
-233.1606205
0.6773716116
464.6133302
415.6683136
52.26166534
-582.0753382
-635.320896
-653.8824859
-992.6787919
-1241.894982
-1024.468772
-551.6243372
-76.0911327
323.2499908
424.0616388
216.8679065
-147.7466843
-405.0303771
-385.6363029
-388.4991677
-221.4156975
-9.092327406
-181.4854271
-573.0030867
-1176.557068
-1706.801028
-1184.459629
-456.2115975
77.9565288
307.8584725
227.666241
-20.51556333
-293.2461504
-489.1553393
-443.7804173
-979.1607659
-1463.153989
-874.6285839
-167.841033
245.9741722
334.5107359
172.9463843
682.3252392
-188.745187
-777.3799289
-144.392603
272.7598088
457.0813281
11.93545109
-704.0010759
-294.2764255
1195.212646
1727.119669
1868.739471
1553.748616
1111.161255
1699.079607
1688.396335
1549.29077
1651.60871
1648.491586
1513.254759
1831.82988
1800.682561
2078.803048
2191.027432
2243.151956
4285.483294
2916.286969
6001.285462
830.3869652
1499.489926
1213.857374
)


100
(
4.976802698
1510.036226
1482.249667
646.6298659
125.4940447
-61.08976268
-192.6688468
-303.2179752
-466.3801328
-520.0909881
-457.044658
-668.8868728
-929.5074275
-733.5825789
-530.4880795
-527.4416074
-198.4657584
228.4060259
80.38288729
-147.3126831
317.2119016
895.0625725
697.488253
24.57021371
-164.5106759
340.0785264
674.8285031
285.533501
-213.7311394
-268.4970845
-145.4543316
-187.6321521
-562.3203213
-824.217665
-967.2140588
-1071.505637
-1044.113913
-696.347586
-328.0655772
-129.3718558
77.10485387
475.6527486
845.2709725
686.184285
180.9341943
-151.93909
-284.8401203
-607.1920215
-1149.352359
-1577.732246
-1714.26982
-1126.964327
-587.6120679
-314.3441771
-409.6371241
-164.6062368
179.2080602
270.8254445
-167.9423152
-956.6411762
-1865.94173
-1441.262951
-391.5752671
180.1732147
33.32923409
-568.9951889
-195.57738
-12.79525124
-224.0129291
-378.8836436
748.6543721
1640.171637
1818.735884
1466.081511
1093.665194
887.4157475
1073.260029
686.7985055
1488.653958
1672.807556
1261.986404
1814.532464
1990.435279
1956.674927
1563.16473
1567.484962
1669.996461
1420.923062
1514.920388
1650.11291
1800.726384
1749.193621
2370.359723
3550.614201
5190.460132
2081.325301
1175.632982
5078.611169
2813.635527
2143.359089
)


100
(
2.885768811
1505.183898
1467.911625
646.1159052
117.4909319
-36.24998692
-164.637523
-301.9477111
-472.9952373
-644.9286664
-545.2291551
-342.0136803
-555.1481813
-649.7857807
-265.5834793
-57.06679489
-183.9248421
6.738341621
384.6378768
258.0992716
-49.21514842
213.4471474
796.7328019
857.8237861
255.5459999
-151.6663365
97.68662648
355.0168111
111.7557752
-374.9331149
-698.2663278
-773.1461872
-745.268504
-576.0954582
-445.4559942
-493.4463526
-681.3831409
-682.472134
-255.7714022
111.9184553
108.4723748
27.51908247
203.800987
495.3634127
514.5581672
54.66285544
-394.9672601
-710.8898217
-1111.351157
-1260.545522
-932.9931761
-286.3840149
219.2882764
517.2295381
318.3123812
-187.408833
-739.3363176
-854.2286734
-1119.362802
-1266.223022
-972.58317
-787.1379895
-424.4539197
295.4655005
623.6728259
-64.86824238
-1055.868052
-1580.933275
-539.7123199
248.2073627
582.3282402
739.7035547
1067.831502
1007.779829
990.3566632
1871.954274
2337.651013
1923.787541
925.4960674
1449.882498
2067.043284
2252.284695
2213.800724
1539.356523
2011.913715
1882.873487
1762.690326
1977.098262
2060.305086
2083.771095
2509.504876
1769.625679
2782.27948
3163.377338
6181.457617
3793.424677
2608.100055
1895.264439
3482.898924
1956.581599
)


100
(
2.310313498
1445.303315
1410.893149
611.7758124
108.9795392
-40.96544431
-135.6097077
-302.4882691
-467.4648977
-630.374434
-683.9441476
-362.0382866
-92.49490645
-289.3166191
-311.273253
122.1347562
265.3981854
-17.70402661
41.9869757
423.9033957
407.1243468
45.3693011
100.2316292
686.342924
955.2894606
436.9540315
-150.8085355
-296.0905768
-253.1990716
-408.1917543
-709.1209729
-936.5209041
-950.9544365
-675.7722761
-175.3646996
216.6906112
116.8654926
-317.3573447
-509.2573779
-156.7992428
197.6495379
123.7952257
-151.4125538
-308.3916517
-349.6063536
-470.7523883
-529.5711333
-259.211594
-183.445321
-533.7386666
-813.005431
-260.0134251
472.9065854
736.9529872
651.6489304
150.7112158
-656.4432162
-1357.42652
-1039.917459
-299.4331464
104.8014095
195.0654805
-89.70025385
-592.6293755
-405.6476413
-560.4351476
-532.3069728
-248.5238694
-82.44788052
317.1502714
306.0485677
-272.5416157
-856.1649115
111.2376694
1206.812228
1840.064657
2026.19013
1781.502331
1292.092849
1657.793284
2111.483644
2109.724916
2037.95923
2050.324953
2146.469296
2024.591343
2498.211824
2973.714798
3153.907517
2911.232102
2900.683254
-7477.773651
3567.787929
3986.854821
6349.151256
4112.011865
3773.256264
2639.655481
1686.748775
3084.106444
)


100
(
2.237030644
1360.206046
1318.878057
553.1818922
104.0775555
-64.6264217
-128.9191173
-271.5905544
-473.1731993
-561.8377173
-589.3460484
-496.9034632
-84.48745802
181.2070491
-90.85581934
-150.5307061
300.2399878
441.03382
66.70120825
15.73831759
440.2407075
578.4755936
167.0635221
-44.48412527
337.354842
612.4762148
324.7496321
-258.4794834
-724.5695752
-892.119077
-799.4141032
-482.6647844
-307.3483412
-339.5630911
-304.9160758
61.80639843
488.759364
424.8961598
-97.47106904
-452.8798566
-306.2124878
-122.4672374
-274.5588629
-604.5348738
-830.5259202
-850.1396611
-709.8867744
-214.0168736
605.8182421
614.9271649
-94.9506362
-533.4692863
-76.42228423
462.5408022
625.8734505
324.5888868
-131.4818505
-753.8943792
-1073.31075
-74.31744808
611.5083697
642.7442796
325.0665497
-391.7606808
-1033.539526
-632.241205
220.8328695
720.5547807
610.0241228
194.7368548
176.6578124
90.11060643
420.4760726
549.5136906
1245.624552
1479.144249
1254.723041
1495.652774
2191.397009
2321.430617
2489.892725
2194.527553
2037.279795
2180.205568
2075.545328
2462.522742
2649.432101
2958.011592
3626.273024
4104.86833
4984.35145
137.8396262
3925.921382
6801.109018
7609.390705
4131.822065
4604.318827
4173.549957
3158.5149
3276.513422
)


100
(
2.233995184
1254.208125
1191.404793
519.5276285
96.60038424
-79.52898491
-160.0701794
-240.0210888
-414.3053661
-525.9341994
-387.4710428
-306.6576459
-240.6007076
186.1884771
389.9798319
-25.15576725
-154.6915194
354.7218991
568.2017212
153.5185492
-22.24984274
410.0656123
659.7488804
236.394047
-216.9468123
-213.9457084
16.68475192
58.5619453
-230.0793996
-662.1322368
-969.9641289
-806.7515551
-136.2570106
373.0988566
267.5778989
-54.48059841
16.33502403
353.5516942
393.3986413
-82.10591668
-543.4995225
-662.1632696
-690.3420132
-732.9902253
-541.4992922
-317.0705471
-304.5732115
-378.7491678
-7.935852551
686.7887668
829.5199066
121.6640347
-245.70003
-16.5011731
180.8506562
408.5463167
777.1661096
362.9792323
-543.5623851
-482.6162914
393.0456668
735.9757083
462.8257868
288.8414886
615.6510395
687.1889488
643.7055109
900.720447
867.8967737
377.6342396
6.040238256
791.8123492
1494.578531
1477.282148
1266.616219
1634.367159
1925.518524
2170.537604
2760.191888
2897.644275
2530.775462
2925.44814
2727.287584
2735.690042
2553.759209
3231.99365
3603.0452
3475.112077
3568.663702
4279.136758
5313.016466
16298.57417
5645.259931
7888.444233
8210.819806
6818.600434
3505.569221
4235.402239
4257.865155
1487.256366
)


100
(
1.713058695
1129.228854
1052.475025
478.0106422
95.42275505
-70.89032623
-191.1892214
-264.6581782
-317.0688611
-429.3432701
-332.2379395
14.55985939
-16.54776448
-53.04771455
379.5963136
529.5793575
-4.326604976
-190.8023993
381.6460689
711.7788415
267.428472
-98.03429601
169.7389235
393.0907734
97.95494774
-449.6766767
-779.9113692
-643.301235
-209.7853983
170.5460361
-9.856213399
-607.9451736
-761.0548418
-44.28886769
747.2501142
697.3665944
181.0807399
-89.46322672
-37.46153952
-92.23782432
-392.0997426
-616.4182801
-586.7906259
-568.2374414
-475.8051418
-86.16829718
278.2775138
83.93811621
-279.7137176
-154.4436888
250.1289567
269.9872079
32.52105399
2.252988766
-42.60041235
-95.18468578
432.6309853
1064.801021
410.4977835
-497.587827
-46.03815517
500.219905
771.8368049
1500.746136
2429.086121
2500.637444
1902.636974
1134.185103
1034.178831
1206.951181
1291.623329
1177.724596
1651.052412
1931.233475
1772.726992
2106.905654
3015.951591
3321.484261
3551.843613
3605.176498
2567.490936
3346.567451
3843.020437
3821.868997
4341.142745
4476.905689
4469.604851
4904.784365
5000.022789
5185.301676
6250.388482
8118.728853
7401.343306
9970.52642
10788.29983
8901.674614
5535.567594
3719.381817
4120.075621
5082.852255
)


100
(
1.462738476
998.7333317
933.6555536
422.2764464
99.2594173
-55.91678963
-187.8476177
-306.5622498
-300.7982031
-245.4146578
-292.9594472
-13.03834251
325.663769
125.3091032
3.637440704
470.5280966
639.4883032
51.98197197
-206.9649272
382.9997462
782.0587434
342.7778328
-188.9323609
-229.5025019
-50.81446375
-82.30253383
-415.8258646
-772.6476504
-780.0109843
-163.872299
703.9222846
682.1346217
-174.9209255
-758.2541684
-256.4230446
589.799683
817.1773732
394.9952461
-87.3232397
-412.4778544
-675.3025702
-675.26947
-121.9621731
230.947493
44.07387697
-174.8153389
53.72249925
305.8851275
82.86256746
-346.8229948
-363.7513063
-251.1105922
-181.5708155
12.50216175
154.6577195
-144.5176444
-382.4392486
190.5003746
600.4259584
336.0287952
268.1110003
705.7539005
956.7587717
965.4681257
1067.390758
1404.724685
1525.311051
1276.148966
1358.209698
2469.200194
3007.664283
2602.148414
2028.317764
2351.000175
2507.797909
2134.223018
2775.971505
4052.206174
4656.477703
4245.187973
3306.640814
3003.349442
4212.167758
4479.346735
4765.272523
4581.055182
4760.978952
5091.128194
5584.947696
6017.786071
6271.382448
7646.886044
8189.056857
10145.07177
11263.4902
10671.584
8970.047015
6287.54334
5160.495973
1897.877745
)


100
(
1.673394881
864.7808721
807.4943599
360.8686975
107.8381875
-38.13203693
-169.787273
-287.3354341
-337.1661108
-171.2688982
-99.49073628
-137.270736
186.4351364
475.8802212
147.87158
-28.16614776
510.9324728
773.3783764
193.9245738
-129.4383966
249.1029212
590.1577213
286.4334976
-292.7535665
-616.9074081
-510.0109989
-183.3864171
17.20943442
-244.6794484
-603.1303407
-215.3456046
711.7570382
1025.402369
262.3783515
-543.475086
-434.2948521
198.1230824
562.2058769
488.18535
181.6012765
-311.6926283
-894.9366072
-869.15853
98.90167336
791.5504952
560.0613014
134.9293956
129.9004651
159.1855175
-91.11908499
-211.8136269
-28.97530438
-107.8516825
-210.4428899
65.36813111
155.9165885
-294.993416
-465.3407537
-111.9625207
119.5713326
359.9749354
912.4045921
1445.406515
1511.149213
929.4794259
244.5149729
339.6857268
862.1773878
1172.466834
1324.569884
1963.75269
2459.051674
2530.39211
2886.002241
3602.019018
3281.828135
2679.851706
4007.775226
4340.16841
4051.046261
4318.789697
3586.540999
4509.578634
5083.041524
5113.839052
4940.754941
5550.79813
5914.946523
6140.371796
6781.846091
7001.702291
8092.433093
9116.68059
12501.98461
11393.34548
10394.20456
10060.27811
9637.782644
7131.794069
10083.88036
)


100
(
0.8271385317
739.147279
683.4264891
307.4763483
99.34881051
-18.21058777
-164.7963147
-241.3200105
-279.6833261
-198.1574908
43.93313014
50.16872538
-74.89576645
281.3177439
583.3929259
176.1410668
-53.65974077
524.560935
874.1329535
338.4809436
-186.9464799
-66.73980211
238.787691
205.1530161
-200.4199339
-623.1407248
-646.5088967
-79.99363194
574.1975335
371.4751378
-305.4731303
-376.196927
388.0228723
959.2606344
598.4617855
-93.89814332
-324.3533661
-138.964308
145.9780549
526.583814
734.5696031
226.9016259
-730.7099632
-870.6604443
132.6237272
1034.576756
1037.520517
681.2590265
361.0137981
-130.5426883
-498.3153708
16.69373424
504.3107881
223.074834
-78.68105452
-34.38485769
-212.5885378
-524.0462637
-232.7024354
328.47275
642.4372291
727.4287718
765.2469967
808.4820678
590.1011403
167.8725147
199.2585911
986.9649628
1658.022987
1481.853905
1050.865903
1359.149514
1909.381876
2162.399433
2711.835791
3598.961643
3904.243415
4221.719546
4313.063248
4040.238209
4589.786201
4821.292897
5025.602425
5344.557651
5486.7979
5936.997588
6215.512445
6702.254448
7176.325119
7853.668041
8854.752987
9784.078735
11572.30127
14972.11887
12193.78288
9420.266972
9334.221778
9544.688847
8306.22128
1655.678525
)


100
(
0.1226751487
622.3894694
564.0590893
270.3717331
81.28692473
-2.057709852
-149.9568499
-239.1150853
-165.4947534
-132.7430626
-0.1511397402
281.3995537
148.4407875
-72.9695073
347.6632473
705.948893
246.156812
-93.08929008
386.0498037
750.8995465
376.4007371
-195.1082358
-378.5988532
-149.6787016
152.8400277
156.4860976
-254.0158693
-592.9764835
-155.9129975
645.7611303
747.2244384
69.41107387
-375.5771831
-4.29417221
571.3074504
706.2010301
448.8007535
134.3142218
-221.2742037
-273.2967555
358.4426914
1121.748881
754.8969898
-302.0995468
-612.7345722
185.8715153
1042.861746
1377.021149
1175.853311
481.1780472
-675.3191583
-1027.622273
81.74562806
876.6177736
547.3254143
151.3179628
37.40449879
-56.76181205
1.739721925
508.9538423
1049.722301
1194.546606
806.0694113
275.4418004
201.2323135
629.6912039
882.5486678
914.4839917
1286.625916
1529.161407
1316.451764
1130.089391
1773.569459
2134.31138
2210.763459
3014.742093
3799.527934
3443.664027
4057.889973
4977.494652
5365.27499
6284.558452
6609.729422
6183.227313
6129.48175
6796.717385
7140.633664
7459.889943
7968.933153
8695.769915
9333.784275
10963.73833
12851.79436
17215.12146
14281.92689
11167.04352
8370.323476
8355.72047
8618.51441
12080.72976
)


100
(
0.413433749
521.1498796
469.6180467
232.3488086
67.55158097
-8.089290194
-115.1195814
-242.8087182
-152.8729476
23.95284766
-6.526055112
180.6879174
469.5558761
193.3729594
-104.3637516
374.8511516
779.252816
321.8133822
-124.7719683
118.443815
488.6240191
405.4375156
-71.94436589
-485.7139494
-415.2687543
141.4375535
609.2559635
252.1963423
-439.5666278
-401.5635644
440.9933087
929.624706
541.563559
-37.65411639
-168.9896329
69.09835217
411.1342937
790.1630582
702.1898589
27.99607786
-511.5335714
-33.22577648
880.3598998
1008.218383
333.5839629
93.00835502
411.7432824
648.166294
889.4665556
1212.38545
530.3272072
-773.9357093
-848.7308661
347.6250059
1095.837443
1058.099913
1084.215433
1302.635414
1258.472526
1016.879391
959.7146056
1029.683421
895.0056626
526.4106499
389.4882515
1157.427925
1922.159598
1831.531729
1470.625138
1611.257563
2028.087421
1909.396236
1883.208978
2457.57022
2851.02485
2900.645264
3524.999334
3392.376561
3600.609512
5007.605982
5406.029899
5780.556745
6095.418061
6098.747352
6613.066859
7021.211018
7856.175323
8558.263899
9342.006961
10296.31446
11352.8972
12814.54171
14968.14199
18908.11687
17115.97096
14429.98247
10844.10117
9106.937689
8344.644444
9010.424796
)


100
(
0.7883075031
434.8881818
382.9160415
193.8504039
69.41846954
-19.72171816
-95.42632155
-181.6889432
-191.1156141
26.21883378
128.8357103
37.77098897
288.4814832
582.0134923
210.1061415
-141.7540866
299.5651128
711.3098086
389.5870245
-115.9154479
-164.625215
177.2703345
421.8870731
213.7552154
-291.751128
-522.3988947
41.15174308
807.0997677
591.8651067
-66.07336798
-362.560019
113.7553876
768.9319246
891.4242052
526.8657367
77.05749171
-287.7582612
-162.8928736
549.6560877