/*--------------------------------*- C++ -*----------------------------------*\
| =========                 |                                                 |
| \\      /  F ield         | OpenFOAM: The Open Source CFD Toolbox           |
|  \\    /   O peration     | Version:  2.3.1                                 |
|   \\  /    A nd           | Web:      www.OpenFOAM.org                      |
|    \\/     M anipulation  |                                                 |
\*---------------------------------------------------------------------------*/
FoamFile
{
    version     2.0;
    format      ascii;
    class       dictionary;
    location    "constant";
    object      la_i14;
}
// * * * * * * * * * * * * * * * * * * * * * * * * * * * * * * * * * * * * * //

la_i14_table
100
(

100
(
7.529658881
-0.003904211203
-0.5874625432
-5.132689102
2.337865852
74.20335172
-51.68259254
-0.9221668482
21.46187839
-1.629146106
-5.528971456
-5.997785837
11.99956647
-4.363845742
0.4270378359
-1.281359357
3.198275599
-4.187876687
3.185809559
-2.231578328
1.021484218
-0.3412814997
0.07604665801
0.004776959772
0.9729314268
-1.29676491
0.2950015716
1.229237736
-1.300243635
-0.5211015429
-0.172571406
-1.693395677
4.020246802
-1.487581969
-4.418427181
7.973568924
-3.765536969
2.707625396
12.4684892
-21.03080467
8.116623632
-10.21632602
14.42641702
10.05731919
-17.07192876
-17.38348285
53.41997215
-29.89036642
2.660507818
17.05529688
-17.85253931
24.49687253
-18.40505634
10.60018738
8.523293966
-38.81680618
47.88633966
-28.45643947
23.98465577
-8.683719951
-1.698773744
-1.287654404
-1.074325542
-0.3703606503
-3.780862795
-3.177327228
1.377034206
9.55720862
-2.814501679
-7.026847367
3.058121313
2.758851192
-4.923127185
0.4200475911
2.698306408
0.9635748712
-1.942484241
-3.080271384
0.5428880218
2.434389735
-2.296100942
-1.241489375
5.923713173
-2.731226653
1.446261667
-1.611376003
-0.1255247158
2.238632542
-0.3573502907
5.046778288
-1.047688494
-2.472302584
0.9417836703
-0.3578003903
-0.3586113471
-0.01109486832
-1.369120812
-0.1048430044
3.660160649
-0.002506499591
)


100
(
7.565219958
-313.2766028
-285.7577384
-263.2731467
-249.6456223
-231.7942944
-208.6302391
-200.5474343
-181.9293853
-164.1137047
-148.6606847
-131.4560854
-115.8354518
-99.39482384
-98.95970785
-84.40954219
-64.60072734
-79.00699426
-82.47168529
-45.11940705
-40.32295233
-64.61296793
-51.76316584
-36.99326427
-65.3566296
-67.81805502
-20.8624824
-10.39971264
-56.97526651
-61.94559488
-14.47093889
-10.29862693
-64.03037456
-60.54936506
5.740612585
36.12015335
-18.81502617
-58.27406016
-19.82563324
26.84760735
-6.296044165
-53.01329264
-19.22519178
29.69636502
-1.084923134
-69.20768525
-29.18421632
40.23106476
39.37864067
-34.08122836
-47.80606635
7.070223225
23.40346884
-25.52900719
-39.08577021
8.800346976
17.61744137
-26.46038143
-28.46959804
42.94851817
67.58082101
-62.86538126
-26.09067738
76.5549836
48.66179084
-77.84065303
-18.16457947
95.79363223
-10.39302937
-53.65027443
33.36563969
60.70229609
-61.34446551
12.51419529
60.88090708
-54.10213846
28.40983013
35.47686364
-47.79936527
48.93625431
-14.90124533
-0.9671924766
34.29076268
-38.5493298
37.72929387
-6.511161905
-12.31531226
25.06620363
-23.3848817
18.91327493
-4.640183419
8.32972185
-4.442568333
5.607204599
-1.179368831
5.362877743
3.100931226
0.9736693448
-9.905352355
6.760653445
)


100
(
7.709598016
-307.1904604
-270.1020529
-234.7542061
-218.6742277
-191.2078638
-170.7131034
-154.0535466
-142.7341902
-118.841338
-97.16168968
-82.75004521
-68.19034562
-37.28678405
-40.49377279
-46.46827436
-5.54322425
-8.667653418
-57.23996768
-34.41252636
17.17657362
-9.118065762
-42.67941866
-11.79933715
-3.888663307
-51.12343896
-49.78935981
13.52886761
24.16718522
-35.665809
-52.92503377
-0.9783422366
12.6535368
-43.93181287
-70.26243233
-10.20435673
42.82878339
9.047088904
-64.47866387
-64.34348332
-6.908091883
11.71956026
-34.97091526
-76.0446607
-32.64142406
6.588518243
-4.466851583
-56.40799163
-56.26038537
-0.6675664846
38.4868694
-4.522387644
-75.71703988
-30.89817272
54.86626519
41.13223568
-94.03352225
-25.53693773
80.29584962
87.55190956
-15.55514508
95.5582634
-21.30376245
-96.92379469
46.4685503
110.9805649
-19.86048583
-92.32392656
80.09130306
57.30336289
-18.1896679
-40.50376581
48.13143901
39.69297041
23.0181226
8.297003
-36.81902889
13.76538523
2.394601535
-12.72058103
49.98273336
-42.5088442
47.62593247
-44.92857238
8.747158549
15.10896005
-5.88480252
13.53456196
11.98258307
6.073967642
6.498909534
13.76854568
14.79754469
3.607721886
15.54705021
16.64278395
17.37737853
-24.1518258
17.30105781
4.196792521
)


100
(
8.083571409
-304.8040928
-258.2578631
-219.2391833
-189.4065148
-152.6723734
-132.251264
-108.3820743
-103.0805507
-88.6623427
-62.23987277
-48.37729764
-47.09178954
-15.56980547
4.514250732
-24.33292089
-11.33994966
34.09732602
0.3280803504
-50.12318721
-9.882996539
35.04309645
-7.227299703
-51.00232476
-24.14978011
-8.927072817
-56.085637
-80.34449355
-26.88318267
12.78793626
-27.85522286
-81.08507791
-61.11839338
-14.47328767
-17.64719944
-71.13220247
-89.84496605
-32.6821857
21.63972618
-14.20587995
-93.77737568
-104.0835891
-17.63767068
52.29265048
3.974314605
-89.36223292
-8.780673265
119.6419897
69.98806323
-121.0367893
-38.73758114
148.1166938
150.2501851
-69.26254496
-46.24768215
147.4769405
155.3577793
-77.48642527
-38.25258834
149.5311615
91.99695438
-64.94048144
37.77366137
30.53910952
-45.14384233
-26.76716579
58.2229884
55.37362542
20.24904797
-44.02096488
4.702287465
38.11671263
39.91347655
-61.44452341
-4.990440024
63.060067
-92.30941481
-2.353650392
64.48231516
-80.48168073
11.70736266
35.22985018
-61.30394726
35.76971662
30.77364271
0.4452357767
7.999698561
-0.6496806773
29.95253611
23.50496457
6.602236029
13.45934371
12.78781885
25.22446045
21.44875944
27.01800456
35.30385429
-24.54847293
19.91136032
9.856481838
)


100
(
8.579301004
-303.8995838
-255.2567083
-204.0556017
-162.6785014
-128.8988112
-98.93838562
-76.65072525
-64.40779722
-62.81779759
-42.69603341
-23.4442634
-30.6937294
-24.80153549
13.32348935
11.83401924
-21.19971195
3.051371839
44.21963803
10.64771565
-29.66819345
5.229918592
42.0969611
-3.716235656
-68.61512788
-65.34599826
-41.31353481
-70.62294411
-115.3876754
-92.33553349
-27.34303598
-11.2403839
-74.62992649
-126.0503711
-63.08703639
30.88604615
-14.5493331
-137.007788
-87.90374191
92.37653398
147.9707517
18.47451366
-84.79250752
65.08216005
220.8914246
91.65016668
-138.0124791
7.646375506
232.7865498
120.0826698
-138.0340709
-21.20422916
212.8756806
139.7126504
-87.75335142
-21.62972395
174.9866919
96.12074035
-58.27440911
-40.78486837
59.39858335
35.93180475
-35.47358864
-54.89721806
4.042702275
35.66826183
10.51316653
-90.35315511
-39.16220643
22.49105313
27.0154336
-11.05644469
-19.96286417
9.420118485
-90.70958909
22.56019761
37.23968222
-85.05881939
14.24745349
34.27333616
-20.13793504
17.01244236
33.15793338
3.336232511
-20.30967568
33.60158704
22.29993322
6.375301609
28.00992476
-36.24114826
20.25976819
9.762870383
11.46263623
13.29762234
12.56063252
27.14287506
-33.23426991
33.32747688
16.93033428
13.34144936
)


100
(
8.50136937
-304.0126027
-252.1112412
-190.8858262
-141.1300897
-108.4316154
-74.76972649
-51.8605656
-35.09087844
-36.92147384
-31.80960785
-11.25705289
-7.164285758
-20.11416472
-6.939393479
27.25327298
18.74418515
-11.89177105
10.84333516
54.48228376
41.7888369
8.367719173
20.64489781
44.99929541
5.687996969
-72.83051489
-92.83589969
-43.59236771
-28.99484938
-85.67120579
-106.893374
-2.678996116
100.8062212
27.13641703
-92.98656991
8.035668037
191.6883317
113.7797039
-123.891363
-64.25570145
198.2974677
249.0803191
-4.11017587
-94.92189939
153.7264402
306.3345347
43.69930424
-181.5446248
37.30390451
245.5779393
84.86050806
-103.5973787
3.758544195
137.8198176
58.6432324
-72.26085848
-53.50636869
-3.856836938
21.93132283
1.148295319
-75.86519997
-109.6006278
-31.08900834
31.26022492
-2.97243763
-93.8163084
-69.72287474
17.80883429
34.78022961
17.45063842
-22.83173832
0.3643919369
38.1196948
60.76835565
-60.11902675
-115.0962399
54.82558174
36.97863983
8.150648272
-44.81855425
30.53470719
35.54413524
-84.93666734
32.47697524
12.4659825
-30.0715988
-5.080197449
24.79680349
-64.51415606
8.318206699
13.42381259
-49.84483359
-12.42753203
-39.3874532
-38.94601619
0.8662147516
-65.92309064
-3.637396702
14.75047366
4.872746046
)


100
(
8.24862799
-305.7681169
-250.7440338
-179.3079194
-129.9762164
-91.21872833
-63.16015533
-37.8116182
-19.10714683
-16.21991513
-19.932255
-9.003273987
4.848809043
3.811175586
-6.152724654
8.235522573
41.79903456
38.64425082
8.837227888
18.85487211
64.07451908
74.46293283
36.96303664
8.02041371
9.323586278
-17.86506847
-75.53480473
-49.64683035
66.48527458
104.3083363
-15.32970031
-81.56928343
80.55932923
220.4749551
76.55525525
-88.20824887
75.77109172
279.7914167
115.026153
-148.2456279
-23.82541228
260.8458972
224.6179254
-49.52192356
-58.48589416
190.7954634
219.9749602
-16.77478244
-138.2198513
30.13952985
107.7439184
13.03262369
-105.1873238
-124.6106333
-60.19865376
-4.491294009
-4.640129646
-94.34393573
-138.4704507
-49.83287102
44.11094449
37.62840331
-55.90752519
-133.8879693
-42.28163346
34.92044917
64.61465172
36.46226424
-90.1089191
-49.36857261
36.9056246
31.58546622
-92.15706656
-71.74005059
16.19909328
17.96054303
1.006174574
-73.14799857
33.04100007
29.23801071
-90.29622485
11.94793009
-6.512308117
-52.0707269
-37.10719677
1.944835709
-45.99038474
-45.93652529
-45.31918249
-60.10663935
-69.65601362
-31.86568012
-79.40648926
-91.59420961
-111.4081719
-140.202782
-184.0506465
-49.71363548
-36.66828402
-1.56907898
)


100
(
8.352872003
-309.2139836
-249.8899709
-173.4970121
-119.5185751
-77.42947324
-54.45876707
-32.96138275
-12.95823313
-5.96768483
-10.27015085
-7.289307347
2.425835111
13.23237595
17.08333228
8.510098365
18.15043419
53.88752589
61.44061137
22.42790184
4.525445419
44.28747625
72.91799986
24.2317124
-51.98639533
-83.96155697
-104.55518
-99.43960604
27.24994679
208.7293437
201.5680481
-14.47870673
-70.14554413
165.3532666
281.4804159
53.0671908
-81.73542201
143.008338
301.9667382
76.59601854
-135.6097628
27.41673647
244.796513
139.3548626
-78.38028599
-72.33695843
59.14182029
59.97070813
-64.67744065
-156.7281033
-150.3273937
-73.94469332
10.87286976
22.22586125
-84.51986975
-180.0578925
-91.90664169
22.19568152
17.98007145
-82.77050134
-152.5634082
-50.30684799
34.89905577
63.48790094
44.82245226
-49.95448811
-124.5667339
-10.07326795
88.21010129
-18.09324481
-144.5900042
-72.77307078
-17.48607543
11.77528906
-31.18454289
-110.413874
49.44854775
10.32930188
-112.6241117
-46.3675973
-53.2776114
-80.17187384
-76.35450704
-43.61407499
-43.49650886
-139.9700421
-137.2794297
-121.7921789
-61.19916699
-136.6541882
-214.9495844
-222.7742432
-228.9151908
-225.5332048
-277.4607976
-296.160515
-211.2243608
-109.1766212
-65.89692896
-37.76004177
)


100
(
8.683879966
-312.9533303
-250.9912002
-169.7006377
-110.7072701
-70.32354095
-46.41638981
-33.32812947
-14.97358869
-2.591187242
-4.641260109
-4.885189911
0.4030322942
3.719400362
17.66162121
29.15110526
14.52530243
7.424793504
47.25955937
61.42972225
4.389942839
-48.7684455
-11.81645766
45.67936571
12.91985738
-85.59547928
-165.213425
-191.3896593
-106.6282028
130.4643283
334.6315902
228.5316196
-53.99134565
-46.70252382
219.1018581
251.8442723
-6.941639989
-69.00212126
155.3224038
225.0751424
12.46490965
-126.6592828
-12.12024636
76.59066384
-15.28788443
-161.5951491
-208.3295247
-139.2951187
-36.4868069
26.70447464
-13.37034299
-139.5765841
-176.3569233
-59.72392816
58.56220456
30.0305594
-80.63804753
-149.4417571
-83.56577767
-2.347050405
27.49791391
10.42089154
-86.43244459
-128.5092569
-20.15694751
80.59521043
-1.583094447
-154.1427131
-153.7000676
-52.02487283
-21.62295987
8.79371968
-151.493624
-98.27866221
98.02941745
-24.78635348
-176.2476012
-116.4449684
-101.7126222
-111.1768047
-115.368604
-102.2822947
-101.3877921
-187.8999528
-193.0524479
-146.0284896
-151.3471749
-133.377683
-238.8108605
-223.9513483
-208.1100608
-237.4277944
-293.5974896
-357.3573005
-332.2393363
-392.1995368
-294.6168486
-193.8611255
-119.0480356
-91.44593512
)


100
(
8.990128035
-314.7200461
-252.3870805
-164.5498954
-103.2650052
-65.44070348
-40.44486993
-32.20932285
-21.34448069
-5.959819228
-1.494498444
-2.585447754
3.165174215
1.19404822
-5.235075356
13.38097238
30.64626081
1.152337471
-24.25725912
11.8402979
38.45347052
-25.26275412
-102.181786
-69.84375437
17.04010985
23.24848999
-83.06436086
-215.5688345
-251.1330191
-85.98151368
235.3355767
407.1186421
199.7138479
-79.17523313
-4.628060164
226.011552
171.2108017
-68.28677001
-107.7355445
34.59926233
56.67863753
-81.51107759
-199.4143144
-194.6308318
-117.3431366
-42.19147428
-43.73000787
-135.590468
-207.8330782
-132.6360614
12.98782494
66.42744356
-33.27499907
-159.1400775
-169.6821943
-63.08175916
11.23642154
29.71417405
-0.5971799168
-91.69915237
-148.31588
-37.13017435
69.19423712
-24.58074265
-191.8256013
-184.5633496
-71.35236397
-71.69287065
-65.22339561
-122.5315325
-184.2843633
1.947951887
66.93732867
-120.708005
-248.058845
-166.4893149
-146.3073865
-151.0877787
-157.9967022
-165.1527055
-187.8057195
-269.4193909
-246.7927006
-195.0665684
-208.0183346
-201.125163
-277.5705562
-438.2259866
-387.9426098
-429.6330555
-436.995821
-474.094768
-468.0140177
-549.0368461
-342.3424981
-675.5413361
-333.7657073
-291.0655484
-233.1689664
-108.157675
)


100
(
8.860666986
-315.7844781
-251.8321148
-156.5669489
-99.19826314
-62.0677202
-39.22169841
-30.4803264
-27.1782514
-15.95917769
-3.042437117
-0.004615311446
4.020334804
8.545619761
-8.468853889
-28.87878637
-6.499208337
13.21352634
-31.33401161
-77.87635351
-36.59157858
16.54975847
-31.39658748
-118.2546681
-108.9687923
-10.00069733
37.47319899
-61.87074144
-227.5116943
-270.2418707
-63.40531219
279.421889
376.3085933
117.3426336
-116.3551648
-49.62454323
76.60430698
2.024946171
-165.5106518
-224.1462192
-156.3199725
-64.74330467
-32.33872404
-88.15659602
-186.0023303
-186.8522917
-65.89743455
37.52720326
-13.62431975
-158.0702785
-226.0399109
-126.6015218
-16.27199944
4.869243591
-39.65358601
-113.1990082
-193.1671344
-134.6951933
10.8762602
93.58435563
-36.24209976
-221.974415
-199.6769613
-79.94267293
-99.38844461
-153.6752442
-157.0554024
-214.313468
-35.99938654
130.3416887
-102.9537665
-318.6358506
-187.4948361
-191.7628694
-198.5270233
-210.6233333
-228.8773448
-266.7448952
-323.8073134
-360.5940757
-288.4458473
-239.5682122
-251.7991925
-315.7633888
-332.2420793
-491.8713825
-385.5283992
-414.2605431
-468.9053294
-494.3253157
-520.833171
-559.5221211
-612.8372384
-567.5503739
-639.0577639
-842.6358424
-438.2319569
-400.6559923
-304.8886267
-287.6522066
)


100
(
8.476996683
-315.2060457
-248.3401057
-147.3513897
-92.93470539
-60.37924175
-40.61883039
-31.2189408
-29.94005817
-27.7017096
-15.82705353
-2.274273705
1.648680412
4.782829393
3.182899784
-29.26329243
-59.55461004
-33.73019646
-9.927038054
-62.52552928
-119.6068706
-75.72701679
-1.283824786
-22.06280478
-115.7465407
-143.0054363
-51.20643705
33.59172401
-26.53233808
-188.2221621
-255.1762174
-82.39701373
215.9184324
210.2211172
-16.31433501
-203.5756145
-204.2093812
-135.3117649
-105.6352104
-148.4417466
-219.3139394
-220.8931911
-110.715901
24.44184374
34.11989576
-97.36395546
-211.9925664
-167.054463
-43.53610131
-0.6049659974
-58.97633974
-137.5797372
-190.0177148
-169.9248081
-69.13148906
56.96664286
48.26990584
-147.1137968
-280.3350302
-157.439085
-42.16329061
-104.6306485
-224.2669604
-292.7681254
-269.6911808
-86.64233408
91.70581519
-109.5005544
-353.8116247
-124.389355
-139.064862
-247.2175423
-261.177194
-303.0371053
-367.183117
-443.6443199
-455.5860778
-389.5744205
-313.6044659
-258.3140527
-309.1590614
-414.7628014
-470.0748411
-550.8773486
-425.549262
-507.0683381
-428.738004
-644.6924889
-598.2484235
-679.4884895
-792.2277388
-811.5352289
-866.588162
-882.422002
-1095.773336
-992.3226115
-577.5293086
-574.0635248
-419.680593
-189.8867077
)


100
(
8.393102435
-312.4571652
-240.968948
-141.3028168
-84.37205238
-60.10459856
-44.19334624
-35.79460854
-32.12788337
-34.28263862
-34.07969107
-19.89615463
-5.874400164
-8.160932839
-9.018111294
-12.33706537
-48.36761363
-80.42146551
-54.04055767
-24.8797668
-70.49297291
-129.389047
-101.7888247
-22.30118146
-13.64529321
-101.5008931
-161.7591579
-100.9814112
-0.4821457499
0.6258948383
-115.0400125
-205.8976789
-142.3202336
-17.20811882
-5.374777191
-104.1869936
-213.922349
-258.5742619
-199.552251
-79.2274941
-28.50366214
-111.5018381
-219.7872004
-192.0561939
-55.55843863
27.22885266
-35.23594552
-158.2582839
-228.1376821
-205.1533732
-131.734356
-30.12477146
14.69006802
-84.10810773
-248.9709622
-204.9180958
-34.24764228
3.107573434
-161.341736
-338.6909163
-420.1885876
-337.7868797
-144.8030344
4.126161217
-135.9884216
-353.642877
-150.7591295
-66.69855933
-256.4265829
-409.7178844
-476.8429791
-483.2215288
-423.2998625
-377.245565
-349.823891
-342.4854618
-331.1688719
-320.327302
-432.1262483
-580.1676388
-688.5691879
-578.4231035
-449.8640014
-499.9590769
-703.3983259
-786.8961518
-643.5543064
-689.4537186
-807.2208447
-917.6352389
-1021.893888
-1139.629471
-1310.927644
-1403.425403
-1491.256548
-1080.942749
-715.857295
-762.6741806
-560.5859994
-837.2036369
)


100
(
8.525092047
-307.0707764
-234.9836352
-132.0490266
-74.85971338
-58.66864205
-49.73941767
-42.82802395
-37.36774546
-35.90200917
-42.83313634
-43.78507134
-26.67779202
-18.51221653
-30.51263433
-32.03180578
-27.3045226
-55.4938009
-88.74321914
-69.96514806
-35.58051698
-62.63309033
-126.765482
-130.5949769
-58.27686064
-15.92495147
-71.3821329
-146.1211321
-137.6701032
-56.32331128
-3.886024518
-44.91674037
-130.2560668
-178.6297238
-157.9319399
-96.79701292
-50.18144988
-88.81367206
-186.1407517
-209.909067
-105.5177343
3.06245673
-31.21020385
-167.9896417
-253.9206626
-212.234045
-128.5290028
-84.05628404
-86.75576904
-131.7563465
-216.8865373
-215.2291929
-61.53737081
79.71691289
-22.52867091
-263.4449828
-401.6156678
-334.9690225
-287.5327793
-240.0606258
-190.3217722
-267.0291013
-314.3629041
-87.52882876
57.70587071
-195.6809207
-443.5275301
-510.6681996
-468.4860747
-416.257564
-380.6974304
-380.6032516
-412.6156304
-458.6881503
-496.9663679
-556.655153
-703.2514354
-649.3266637
-606.0976079
-639.0798469
-538.6443877
-540.5546837
-805.333271
-1028.915947
-785.7599285
-582.8744277
-896.7507989
-1026.183658
-1093.421815
-1114.825427
-1176.350126
-1310.424013
-1403.460889
-1348.325986
-1737.838932
-1300.760031
-1088.180376
-840.7253815
-723.3870438
-139.6587316
)


100
(
8.669264526
-300.1291649
-226.6884065
-120.9660233
-67.0313912
-54.97794395
-55.70090949
-52.50631628
-46.29607801
-39.87481319
-41.70285673
-51.89879487
-50.78204742
-34.43450103
-33.91446598
-54.08461571
-54.6176915
-37.63657004
-54.42920368
-93.83959431
-91.25851289
-51.90250642
-56.46016338
-123.1037965
-159.9197495
-108.4177619
-41.85631189
-46.33054503
-108.6935382
-147.5891404
-115.0806345
-43.56038316
-1.208182061
-39.56824363
-135.9495824
-195.1334591
-137.2381904
-17.99826339
8.044106891
-104.1416512
-219.4027224
-201.9625595
-105.6620976
-70.64857269
-135.8248717
-227.4311645
-281.5878977
-261.6030864
-151.2239958
5.527065261
31.6868961
-147.1030776
-318.0027952
-247.5936822
-123.4738458
-177.5995575
-350.1063895
-475.6858962
-494.7500342
-344.3338457
-44.9229468
80.48256689
-198.0235638
-438.5384496
-326.2358659
-351.2613996
-444.7535711
-446.363216
-437.6658854
-487.5819076
-578.317527
-680.2125924
-717.4586638
-654.4711187
-577.4842707
-515.3215286
-581.5961916
-681.6269989
-729.4008408
-759.7277536
-975.0242473
-880.1100668
-1002.980858
-797.2134076
-880.4704467
-1239.063072
-1281.962007
-1322.058585
-1377.232715
-1436.035711
-1513.524035
-1608.173689
-1648.134441
-1884.094843
-2035.903021
-1430.323202
-1337.117795
-1072.765712
-864.4771937
-759.8655897
)


100
(
8.41496931
-291.1426749
-215.3414773
-108.8210787
-59.77360723
-51.10628484
-59.41996698
-63.57730506
-57.87324288
-49.57159718
-44.52540983
-47.70039417
-56.63575439
-55.08882574
-39.08768065
-42.44595426
-70.80165094
-74.75442808
-47.86157997
-53.63970318
-102.9388092
-121.391511
-79.86110187
-57.6191599
-108.0789656
-165.2850487
-152.4864674
-85.44582597
-38.23094367
-57.42300547
-118.3343426
-153.5679152
-109.6859762
-17.37554435
15.9961074
-72.17054267
-194.3031475
-201.7245098
-91.75791657
-13.91966626
-78.16764084
-215.5793401
-298.2782917
-280.8060529
-215.2551929
-136.1522476
-94.43149627
-154.7403051
-271.5429662
-238.5460339
-63.63693424
7.859242501
-180.644298
-430.6801546
-541.7005282
-491.1182381
-369.1516519
-186.1388942
-137.5623949
-309.6040006
-312.7218971
-96.80892675
-112.1308087
-405.1413509
-618.2418289
-698.0265497
-703.1932277
-638.3019635
-571.0835592
-545.0554141
-579.5625253
-629.1888069
-581.2355274
-544.9698987
-681.4526221
-876.2503447
-1035.431646
-963.7260738
-851.5982469
-745.1630175
-941.3973889
-1138.272677
-1107.174062
-1161.540512
-1092.696833
-1341.544654
-1411.791319
-1495.767903
-1618.477251
-1759.803312
-1940.841616
-61.45234862
-2279.348814
-2414.64841
-2180.982008
-1594.576689
-1456.765705
-1355.88507
-1140.600883
-1194.356582
)


100
(
8.053962207
-279.8848972
-199.914593
-99.95976854
-52.25970648
-48.82872856
-61.2672136
-72.54158357
-70.25565226
-60.8298261
-55.36268921
-51.60523413
-50.54112231
-59.88132841
-60.05397509
-40.34681511
-43.83044389
-83.26559049
-96.99412391
-63.99881453
-57.69954375
-112.9367881
-152.8309933
-120.5744225
-77.18403178
-93.69025064
-152.6228717
-180.9498956
-139.3046728
-59.81927475
-14.90615221
-57.06515309
-146.8624502
-169.9224339
-79.94340948
14.5352839
-25.71319414
-173.652843
-276.7704464
-250.1642175
-175.6907107
-157.736287
-206.6046838
-273.7757278
-321.1349992
-290.8988431
-144.7584307
5.097381001
-46.3748621
-267.1142221
-412.6844396
-360.5229103
-319.1167682
-391.0883816
-466.9946939
-481.996747
-473.201879
-279.0764038
0.560580861
-44.53789054
-383.0064454
-587.6468336
-539.9896771
-571.0309483
-577.6549664
-529.7404017
-514.4527891
-567.0214652
-660.5103557
-752.8739868
-829.9164894
-908.4621117
-855.8409655
-784.2476167
-804.0013051
-943.7865022
-941.4728879
-778.4426555
-1017.615883
-1339.397981
-1358.357513
-1223.671753
-914.1633003
-1256.483027
-1577.866426
-1661.558149
-1688.873153
-1760.440065
-1866.619542
-1990.360469
-2172.208275
-2192.974028
-2499.16393
-2721.132846
-2304.856629
-1988.370964
-1692.970296
-1580.36061
-1378.493786
-832.0845801
)


100
(
7.968738115
-266.3324628
-182.7547986
-90.57552174
-46.68559821
-47.70593981
-63.37019346
-78.08965408
-80.71241358
-70.10977767
-63.35627116
-64.44493206
-56.66950763
-51.4693857
-66.21044691
-69.62760943
-44.36387115
-46.40076201
-97.7880027
-125.1713175
-89.87019552
-68.03505873
-114.2369762
-168.4169945
-160.9253945
-108.9591394
-79.088379
-106.3772128
-159.2964711
-170.9831184
-101.1559757
-3.117633232
0.245391673
-117.341395
-222.1758044
-187.3120322
-80.41562987
-62.18055836
-176.9881759
-322.8255552
-394.4481607
-363.0972086
-263.7832944
-142.0677327
-106.6168718
-212.975239
-328.3305476
-262.4275607
-120.2590616
-151.0927503
-378.0727874
-588.6446211
-654.7200632
-573.5781788
-375.1863846
-176.7638234
-229.1132315
-422.0529799
-352.112203
-203.6849515
-353.6614224
-621.1481954
-731.1189072
-786.278175
-831.04321
-788.0555241
-730.4411768
-716.4040322
-759.8465015
-794.4526918
-727.4811961
-686.983638
-801.0273696
-1005.55262
-1175.464918
-1279.879975
-1167.948414
-1018.418628
-1141.967863
-1412.030791
-1257.974794
-1404.746093
-1476.718958
-1649.796625
-1819.08939
-1929.303374
-2083.575682
-2246.192063
-2364.639076
-2466.979941
-2652.954604
-2774.978473
-2971.482823
-3168.517463
-2921.387632
-2372.940189
-2051.157148
-1860.233447
-1616.08959
-1441.839993
)


100
(
8.058764864
-253.2351517
-167.3941804
-79.42147629
-43.81250626
-47.99890355
-66.98272393
-81.79512279
-86.95241404
-77.32303749
-64.06885836
-66.33880562
-70.95760754
-57.78223466
-52.09080508
-76.39819828
-86.63056191
-58.37896768
-57.41012191
-115.2524951
-155.1336615
-128.2806019
-93.45846602
-114.9697925
-170.2158592
-191.138408
-148.987441
-80.52378308
-56.23301195
-112.7412253
-185.6089763
-159.9537399
-44.26507375
12.50598601
-87.36043308
-246.503134
-311.5909991
-264.9080411
-217.2035171
-229.8498375
-282.7918632
-344.8330471
-370.4580948
-285.4673551
-94.35848701
4.548243896
-139.9766398
-384.7408688
-504.2310663
-483.4508248
-493.8106749
-513.2320817
-496.0385563
-500.0367299
-462.267875
-233.2372108
-38.96404319
-235.1615669
-576.083276
-746.4807044
-759.2083491
-745.3106245
-697.9472983
-647.7581802
-653.075374
-722.0838476
-820.4879481
-894.2771601
-936.8231678
-1041.352385
-1062.092348
-1006.789022
-1019.456933
-1164.564066
-1189.53376
-1068.608343
-1146.742142
-1490.736971
-1733.880815
-1612.450007
-1383.150119
-1400.366078
-1845.169036
-2034.351918
-2099.594338
-2157.090285
-2305.364068
-2488.150138
-2633.834286
-2845.308829
-3031.482736
-3261.883146
-3388.736953
-3504.234907
-3189.673796
-2688.820526
-2498.870109
-2227.433152
-1871.941516
-1560.852993
)


100
(
8.177304283
-240.6867038
-150.2217984
-67.24174316
-42.18621602
-51.0129003
-71.6171267
-86.01429774
-89.47313916
-82.43675333
-65.38114931
-55.91607864
-66.86193826
-74.30163283
-57.5488839
-53.67015232
-89.9857925
-112.0815498
-86.70238814
-82.10044668
-127.457497
-179.0708973
-172.9542233
-130.1494117
-111.5620825
-140.3716636
-180.489172
-171.9201892
-95.27336096
-23.06496334
-58.31006059
-171.4427901
-221.2121942
-150.4492005
-76.24371331
-130.2038044
-282.0501677
-408.3932346
-435.3507798
-372.2946254
-247.1395213
-133.9757523
-146.8855241
-272.1455811
-327.4743421
-226.9807056
-154.6780335
-296.4151613
-550.2136898
-724.0855405
-738.2633011
-592.5856156
-312.7275372
-146.5087169
-289.1384012
-495.9221506
-451.2739863
-424.9157673
-605.9320831
-781.7962064
-807.9096155
-818.4332415
-879.9945421
-938.7233789
-936.9461472
-934.6521069
-964.4036595
-971.6474314
-910.9617948
-876.7211778
-1010.537296
-1220.439773
-1367.757919
-1420.076245
-1470.788047
-1380.879116
-1386.005211
-1712.388603
-1675.107864
-1487.823323
-1829.681686
-1945.575016
-2241.908591
-2402.903297
-2531.569516
-2605.610082
-2719.188244
-2868.210467
-2999.95009
-3222.327619
-3367.748353
-3646.274421
-3851.333915
-3926.03116
-3314.646385
-2855.296631
-2830.934846
-2632.423662
-2183.154395
-2747.591999
)


100
(
7.817801536
-227.8204513
-131.9566574
-55.83867307
-39.33618077
-56.17616592
-78.03533297
-91.14712996
-90.72169903
-83.3225519
-70.3085386
-53.44529632
-48.07536324
-67.0987771
-79.81681961
-61.51229861
-58.70926113
-104.9049503
-141.0600397
-123.0655055
-102.1975575
-135.2400371
-193.2725269
-210.5166637
-167.6361064
-107.243244
-93.67243522
-144.0832818
-186.0218289
-138.3777306
-44.89387352
-40.01234566
-158.8251725
-286.8099195
-314.0215804
-276.4927915
-271.043704
-318.2549341
-380.6945348
-422.921358
-389.5459505
-236.9871054
-55.81974803
-56.1821104
-274.5112061
-504.7737899
-575.4428184
-571.2649789
-583.6742528
-570.3619747
-551.7134904
-549.262795
-445.8872492
-191.6746101
-111.9877178
-401.1093423
-729.7268529
-870.7287494
-895.9047448
-875.4519823
-804.9123227
-740.2424482
-751.2330677
-858.22176
-973.0759844
-1023.868146
-1014.121252
-1103.647461
-1250.544277
-1260.936243
-1284.580556
-1403.815557
-1461.935431
-1323.165284
-1368.46476
-1668.477199
-1927.823372
-2002.882692
-1789.898017
-1587.355224
-2001.584653
-2329.782097
-2485.461531
-2593.864018
-2729.247822
-2892.234565
-3078.010295
-3262.690774
-3473.000352
-3707.30571
-3919.701144
-4205.85456
-4421.974748
-4446.204073
-3526.122944
-2997.722199
-3089.781835
-2921.327641
-2459.265381
-606.6095003
)


100
(
7.534552034
-215.2505919
-113.9379124
-45.76075755
-36.91835266
-60.11476546
-85.46198523
-96.81008774
-92.4833571
-80.56522232
-70.68484066
-61.55289932
-46.38626531
-43.16288464
-70.90327905
-91.36518918
-73.54098096
-69.16519252
-119.0494287
-170.4023539
-168.1607078
-140.5904153
-142.9750722
-181.6723404
-210.9284381
-182.5209158
-101.8037653
-46.89944648
-90.56979435
-181.4572765
-202.0608875
-138.7771476
-109.5007436
-202.7115157
-361.0389596
-472.7178442
-477.7602721
-398.9017916
-280.960051
-220.1067168
-276.1581874
-360.9055528
-322.5737433
-203.8809058
-224.2354084
-459.0132231
-730.6322022
-861.8998617
-802.7759241
-585.1186974
-293.9970428
-201.4157172
-379.03258
-524.8503519
-479.7605766
-541.7252507
-755.6646716
-883.6857776
-880.3657893
-891.2452576
-965.6683583
-1048.070156
-1073.859894
-1093.09806
-1128.220328
-1125.888467
-1040.63791
-988.8108397
-1153.932051
-1379.052203
-1503.835531
-1492.868643
-1630.148651
-1651.521085
-1676.476176
-1909.788644
-2032.720362
-1775.906897
-1876.784929
-2275.533142
-2499.554791
-2723.048367
-2871.899639
-2963.078971
-3075.269007
-3245.391912
-3442.070643
-3628.591496
-3831.956167
-4083.258551
-4249.918284
-4590.412969
-4809.474742
-4682.334284
-3887.648191
-3345.567294
-3341.720849
-3169.913315
-2886.964439
-3595.519535
)


100
(
7.666208837
-203.5949336
-100.6175414
-34.63176664
-35.3619894
-63.62838361
-92.39375205
-102.1652273
-94.28809572
-77.03702074
-63.23490858
-61.54901027
-60.09489714
-44.36773546
-41.78473837
-77.91627633
-108.4796944
-97.27850922
-92.03390724
-138.1364418
-200.1520506
-218.0854992
-183.4164228
-141.3648028
-140.1392173
-175.9402116
-185.1076665
-120.9847585
-42.61416064
-62.96141036
-186.9679431
-299.3806455
-315.72845
-293.8673835
-319.8065629
-399.6974954
-480.3302397
-494.1243998
-400.6339271
-212.5668515
-83.06435132
-158.8165793
-373.1560722
-530.5704446
-561.1382461
-594.1531476
-655.598404
-683.509185
-689.9062479
-637.4041291
-443.4093815
-182.5471424
-209.4148097
-562.9997165
-878.2645914
-977.0855863
-1003.655724
-975.622659
-879.5571246
-800.9418236
-844.4881496
-996.0951303
-1136.177568
-1183.186682
-1154.190182
-1232.127673
-1369.438441
-1398.257512
-1455.891329
-1595.439093
-1657.404491
-1460.596155
-1452.38009
-1759.42333
-2088.73125
-2158.875952
-2139.085955