/*--------------------------------*- C++ -*----------------------------------*\
| =========                 |                                                 |
| \\      /  F ield         | OpenFOAM: The Open Source CFD Toolbox           |
|  \\    /   O peration     | Version:  2.3.1                                 |
|   \\  /    A nd           | Web:      www.OpenFOAM.org                      |
|    \\/     M anipulation  |                                                 |
\*---------------------------------------------------------------------------*/
FoamFile
{
    version     2.0;
    format      ascii;
    class       dictionary;
    location    "constant";
    object      la_i11;
}
// * * * * * * * * * * * * * * * * * * * * * * * * * * * * * * * * * * * * * //

la_i11_table
100
(

100
(
4.232917111
-0.03783719884
-0.1908740057
-4.029476161
-23.39502662
10.80134671
-20.54396761
-2.037611405
0.864720244
-0.6038051739
-0.41769766
0.7036668314
-0.08629997929
-0.5823441682
0.1418506639
0.02281235243
0.2672521512
0.1789073742
-0.5622396649
0.05208155889
-0.3305102103
-0.03693823378
-0.4111721426
-0.2833736529
0.04774990272
-0.7819444742
-0.2998365208
0.0185062704
-0.6513564636
-0.4635011381
-0.435095817
-0.6548495299
0.4516340918
-0.5673137942
-1.060979562
1.181125635
-0.8463988627
0.4865460802
3.313863621
-4.95807038
1.319853352
-1.771212774
2.596423386
2.485658745
-3.35347797
-2.739089673
10.04532413
-6.150772643
0.420018198
3.128233225
-2.992723807
4.736495087
-3.284314292
1.97713325
1.861706071
-6.503019533
8.406909828
-5.147788284
4.900536238
-2.08921176
-0.2545910444
0.03089265948
0.008286794627
1.537806301
-0.7015425118
-2.092176491
0.4383573128
2.762235647
-0.3330468866
-1.425975031
0.8948550403
4.283970504
6.360219678
-0.5691349986
-4.712845422
0.7296073176
3.833816647
3.674016092
-0.8364365031
-0.9555227433
3.166670284
1.519870944
-6.326003418
4.014028591
-1.129460077
2.062083705
0.1420144101
-2.116308328
0.9275391912
-5.085521607
5.158246551
2.662073092
-0.8433891336
0.678866115
0.3676776271
0.06305947729
0.7757477074
1.249030584
1.083315032
-0.0002270055667
)


100
(
4.37979588
-3789.761614
-3203.422705
-2682.416909
-2334.538611
-2087.789648
-1764.008395
-1630.030663
-1420.872479
-1310.886868
-1190.882006
-1069.634319
-991.4479521
-886.1645675
-799.4252725
-738.4936709
-658.5528684
-578.2078647
-544.5632775
-487.0749741
-425.4251301
-397.0354278
-366.343616
-322.8238343
-284.1893042
-270.5184657
-239.2397723
-205.7011092
-180.5321093
-173.7663246
-149.3814532
-123.5406772
-106.5918146
-98.67214202
-80.73659909
-64.39670508
-54.30643403
-48.88502787
-37.71632296
-20.03205263
-6.303787297
3.811931755
13.20751309
23.60801636
27.42821328
28.77580603
30.11662099
34.7224585
38.88224573
48.68090073
64.91442783
78.37769519
92.80997062
112.297313
128.4655228
140.7874785
164.1509213
242.9316044
418.0510372
405.999326
-454.2922595
-121.069375
767.8024151
361.1192526
-477.6777347
-109.8391466
798.8524499
-50.93441683
-365.9338757
136.6135616
456.3297515
-266.2745285
-201.9963434
640.2586702
-167.7949079
-332.3885994
566.8007417
-102.043832
-287.1128214
479.0750545
-230.3043926
50.2994876
202.087705
-288.4060983
316.3984982
-124.063346
66.41226112
43.19809735
-22.056618
49.36611318
7.581051954
24.8368737
11.89592122
17.06531122
14.36973542
12.69037618
0.8369995894
1.116117859
-0.8689247274
5.497492289
)


100
(
4.51004858
-3563.919785
-2882.153457
-2273.457066
-1975.195774
-1638.673979
-1374.42489
-1152.332559
-996.5171819
-827.678914
-738.2848009
-617.6808181
-538.0240677
-459.0154873
-374.1389087
-321.0858238
-266.2710444
-210.3356377
-174.2213312
-151.2860763
-109.8141879
-84.60988055
-74.19924461
-56.23878558
-34.42244669
-22.38535445
-11.79431003
8.300469499
22.88135921
26.92530757
33.68936198
48.53855462
63.07607495
71.65391372
83.88663798
98.10186744
108.7334711
111.7315692
121.6815436
141.5716972
160.3777069
175.6394966
196.581874
229.5379414
253.5647917
275.6264142
297.2047927
320.8476144
342.5752812
367.4715266
403.2920822
423.3518
371.5332184
328.462414
297.4938622
262.4409256
217.2272536
210.8537539
271.161746
446.8667072
311.2492512
-473.2466752
-368.3101776
108.5258286
381.9138567
-202.1227866
-166.4098338
104.3250403
11.65374236
-62.18975442
-33.61798666
209.8355483
1.367943055
80.03189397
267.0448809
151.2640208
-364.2373605
-2.436975472
317.0414886
-167.8842218
134.6837287
29.333331
62.52384992
-5.08986716
32.09625339
31.77777847
9.819552258
17.31540605
11.69091415
12.60824623
12.45123965
12.5568277
-0.6106781798
12.10949284
-3.565877162
-9.50988956
-3.195756542
-16.53775225
8.503573372
5.374526743
)


100
(
4.456133171
-3357.403553
-2542.752812
-2011.664943
-1617.627114
-1215.896772
-1005.66886
-746.1204975
-630.8672755
-491.50822
-391.419502
-312.2533826
-229.5016588
-180.9052388
-125.1283672
-85.31801901
-56.73174386
-19.14277391
1.421328273
12.3037166
30.31483459
56.10036289
64.17831916
70.50495771
83.08716018
99.2458077
110.3833585
129.0318002
151.4579694
173.2969336
189.5173391
216.872437
239.8993926
259.3469199
280.8329886
310.9048511
341.5514306
374.3529435
416.2050339
464.1306242
508.6433687
515.0108516
488.6991033
449.1408329
397.3285266
333.6535861
301.6769334
279.0938459
237.9297838
166.7040225
133.1558358
115.6346892
86.32716538
41.78073932
32.86933329
39.69668574
31.58672875
4.131836577
-12.58375118
12.07511276
124.9422613
168.371657
-241.0263437
-167.7531638
-17.22847951
249.6130866
43.81957967
84.46196563
180.3374135
153.534135
107.9102148
78.4247656
57.78987951
42.80013337
-12.03754407
-4.729294038
73.65859589
55.19614141
-35.52247087
32.93993148
34.09257073
13.77557453
-29.71878863
13.06914045
-14.02654614
-18.31339308
-12.76213003
-4.322646252
-17.74573973
-18.36717014
-14.15907624
-23.1054535
-18.82567547
-46.64864742
-42.64924557
-43.76691006
-75.64040497
-71.11891093
-13.29076252
-4.283000688
)


100
(
4.192914826
-3298.337101
-2360.873023
-1739.774906
-1266.1839
-936.4156689
-681.6542006
-489.6117056
-345.0977026
-259.3759386
-164.8007281
-115.6619473
-69.34318886
-28.42821466
4.013058809
30.51625329
45.67747185
67.30000286
96.26600792
110.6189966
128.566662
155.2222532
183.3446923
198.7481394
220.810557
244.8591685
275.1306259
301.7948943
330.7715615
359.5759616
400.6382761
454.124651
501.939925
515.7100306
505.7084712
491.6565952
453.088557
380.5913329
332.8692258
307.4852873
273.9875644
213.2344225
148.2961398
138.5373195
138.6893365
102.0603424
45.53598117
54.8373135
73.81179097
53.26639696
15.6407878
15.91503773
27.4432516
17.93064612
0.3448713038
4.127494727
15.79133548
15.27295466
13.87807351
7.532119739
8.402275457
47.36882363
85.7525013
100.8793136
105.706675
108.2160183
93.424769
38.48428277
28.14546879
27.23505568
12.10237113
-18.72624667
-55.00741445
-10.56174079
87.09903202
8.003574101
-58.60917437
3.749706221
24.76789013
-12.83728072
-60.58224721
-96.71155151
-19.80387418
-1.395105604
-27.85879733
-5.602679653
-58.71360632
-53.98344042
-71.79105243
25.68888557
-36.91465851
-93.3257302
-53.04683238
-78.11576267
-78.9038094
-77.53632437
-161.4270134
-64.25856807
-42.44527343
-26.08788124
)


100
(
4.269921758
-3201.834332
-2160.912613
-1463.753592
-964.1349267
-689.7427461
-426.4729027
-287.7238953
-164.1343588
-103.5511241
-50.71592875
-3.206226796
22.90658511
45.32887124
69.86430877
96.41834704
118.2797262
140.4578982
173.1845864
212.3673567
247.1354861
289.1578747
327.5049522
355.2197189
376.9507864
402.6453004
432.7891123
462.566786
469.272851
439.5926005
388.0722509
366.0923346
362.3229071
324.633905
244.6884847
225.9480166
235.4283446
201.6663387
112.526104
94.57089652
116.4945488
108.59968
47.17021191
15.12395967
43.35505331
61.92636347
21.20576306
-13.06033014
9.478913041
31.71696105
13.9633148
-4.327320662
2.576762269
14.31918508
14.19408117
14.68373286
26.01308696
35.39624321
42.77703644
47.04647064
24.34960799
-6.220468902
9.04989281
35.43641993
18.96834187
-22.72966369
-24.18734196
-4.52108403
-26.25460131
-52.83917671
-85.34558419
-56.52228089
-17.64920628
14.3494204
-65.74787593
35.16678499
-19.76313078
-73.46668674
-152.4417121
-95.90818721
-1.197701764
28.94165794
-92.83466768
-76.86147759
-92.04384322
-38.3200697
-55.52972956
-87.76877655
-16.82095775
-91.2206843
-98.2386855
-56.64163472
-90.42118962
-84.40848382
-95.85717165
-67.56836428
-112.8543088
-91.86591695
-68.6002427
-55.09729657
)


100
(
4.588129742
-3083.23401
-1946.487169
-1196.358374
-778.1316875
-480.6161457
-276.4823154
-145.0793921
-64.96872144
-10.59286765
16.20699711
48.42837244
75.1469861
95.64800238
118.294985
148.6549729
185.1640426
223.5244635
264.5558991
305.9739868
346.3196358
390.1083775
425.4657653
427.5799792
407.308195
380.2638334
347.7473859
333.2536581
339.1130608
324.0212391
255.6590792
179.9914591
182.2579596
195.9810441
137.2451992
60.77993949
75.27138286
112.7549134
73.39490475
7.065859272
17.29108597
61.19418539
52.48340075
3.297081081
-4.318127222
27.98478302
26.10202604
-7.528709337
-24.91251423
-6.730521447
-1.742435781
-9.837163093
-17.99821731
-16.56935672
-5.296006154
16.78109414
33.15811729
7.941320491
-19.3389373
-0.189876562
31.26538393
16.66358714
-33.42018562
-71.72886306
-53.20752413
-79.79228559
-120.1077999
-95.65529145
-89.13537369
-55.27050096
5.823908766
18.01251607
-56.12561326
-61.04890737
-80.53720405
-174.8395367
-102.3051172
-87.26841608
7.45452005
9.300294099
-91.20592751
-125.9150259
-98.78823259
-44.6711517
-49.08486811
-83.00190861
-87.68821068
-71.22266868
-31.33875465
-37.75767045
-64.3047016
-60.26629138
-62.19984336
-59.17152154
-53.89265602
-104.8330644
-109.1885793
-75.88790366
-91.07715405
-65.30368207
)


100
(
4.381503881
-2926.277109
-1717.285212
-1007.970023
-606.1984573
-315.9944324
-167.8763521
-56.53628213
-5.086559368
30.61509487
51.69948383
74.48617434
104.6608053
132.4721164
164.0697993
200.2913128
240.668412
283.6563192
327.004443
358.4416106
362.6881923
363.3964567
374.1611657
355.7994682
284.3676382
222.0508037
181.8229551
163.499487
178.6273681
206.709345
186.2107199
94.44311755
46.8976962
94.57473541
122.8783107
56.77130306
6.947847085
47.44513428
80.83658427
31.39188085
-19.55606153
0.7141490301
32.9228839
9.80664856
-31.22496428
-35.90435188
-26.07323621
-37.01877275
-54.66380189
-59.13724559
-53.52729341
-33.01344018
7.730051196
33.74806196
-0.4212851878
-45.74646396
-20.04818385
19.21210234
1.894283441
-53.18699491
-89.10531246
-78.43382794
-122.6406501
-172.4049243
-120.9260237
-79.46340741
-85.36942116
-19.06478464
49.09925812
-26.06791043
-108.012794
-107.7122965
-184.5008385
-161.4534791
-85.12057417
-82.82943947
20.34453345
-17.5952253
-111.1303306
-170.0481797
-103.6100019
-48.70608908
-39.6721145
-71.71234648
-76.61205697
-76.56642071
-50.14562439
-70.34994214
-48.135958
-65.51848922
-80.11217644
-79.06835049
-52.00330427
-43.18190612
-74.08279886
-94.96355131
-45.69290562
-50.39510039
-57.52185009
-69.08290445
)


100
(
3.791939856
-2799.965405
-1548.387892
-859.259387
-451.8226456
-217.0163691
-88.48363559
-17.14864922
24.897805
48.23752109
66.83234618
86.53108157
118.6788756
156.1608164
191.9919681
234.9713399
272.9255721
298.7291089
312.3205091
333.3847
318.6897564
256.0260707
222.6864952
228.9187392
205.0616522
118.8360572
41.04184378
17.60995329
50.41932974
121.6400371
171.9112061
127.1133912
23.86980444
7.16651444
74.16005837
83.96402974
13.02554715
-14.88742265
27.07642311
31.61577364
-23.62968152
-66.58650459
-56.69728449
-54.36067232
-80.95877039
-107.4958214
-106.1192111
-82.83933777
-40.65782296
8.888598826
21.60234717
-25.8824118
-51.03463485
-9.805082887
32.80622794
-3.732310483
-73.83873113
-121.0961338
-125.347604
-169.0987762
-214.4303173
-157.1688671
-110.5309304
-98.34693822
-36.04121774
28.82082837
-13.43657959
-95.76206408
-118.2253058
-154.2639899
-222.0806389
-124.4163058
-110.9125423
-60.84640054
38.52751924
-42.15657384
-133.0820011
-165.8491996
-103.0914259
-51.08762
-35.01244238
-58.44052618
-81.35649557
-62.04008236
-43.09326285
-4.256855183
-41.88211393
-21.63742871
-36.19976066
-19.54210562
-5.889468764
15.79137418
-21.10892561
-22.89633173
-2.937660619
-61.60613713
-15.30419575
-13.25079769
-21.1643818
-45.44109135
)


100
(
3.291767882
-2753.492809
-1427.794332
-714.3088299
-322.038358
-143.4129472
-37.07484971
4.750728042
31.53429148
49.33124606
67.32383308
90.66409329
122.0886762
160.8969938
194.1321833
225.3297275
261.6510337
271.2283713
238.1174197
223.1932453
234.4399258
198.6574602
105.6639404
71.4902848
107.4355422
117.9725851
42.6891283
-47.33330222
-60.12011029
15.69372121
127.4724472
172.7309537
91.1017264
-13.21494383
-8.249647569
47.71609187
23.18818887
-51.82593499
-81.35964808
-68.15328954
-86.43021083
-131.4494576
-163.1371988
-150.2648764
-110.6752701
-52.60504733
-12.88111872
-28.94245312
-64.3843893
-43.20430827
15.32635167
31.78752769
-28.90517798
-101.9843275
-129.5815091
-127.4090351
-179.5838981
-231.9582899
-196.1431887
-145.5541414
-127.3504362
-55.8283609
19.06770981
-15.57135702
-94.13431637
-110.4820572
-117.5665203
-206.446324
-195.4362843
-131.0177661
-106.5866886
-17.94912822
11.0776626
-69.44024771
-132.1663984
-149.2399905
-96.53369998
-51.80252268
-39.18137212
-51.65060267
-65.19713529
-61.87393879
-39.58779119
-9.295911364
-19.51823207
-22.93580931
-26.80623962
-49.84011939
-48.67130489
-65.64946285
-42.31973915
-75.34662113
-33.36683365
-75.79974449
65.00723554
-152.447292
46.21540628
1.455143779
5.602849786
12.71135868
)


100
(
3.214228269
-2682.409868
-1301.020468
-574.1169933
-243.0792939
-85.20508136
-14.02670162
11.36693155
22.90234163
37.17191279
57.54392188
83.86000369
115.7710157
151.4717337
178.216852
182.1161356
193.6344515
216.4584228
192.6054233
118.411323
99.53510645
134.8950407
113.7688343
23.33905423
-11.14786183
47.87165588
88.91136486
23.67124851
-76.8831497
-93.49723873
-3.215701363
114.8652716
128.0552148
16.59063535
-83.19946725
-87.17943737
-76.20172451
-116.1042716
-173.5594842
-203.4548975
-187.9775157
-134.7370022
-73.38902352
-47.55567958
-72.64008656
-76.33264451
-17.94791644
38.51052714
9.522644506
-71.03047622
-122.3808508
-110.7339092
-118.2781277
-177.6343
-246.7576151
-259.1479036
-224.1724059
-160.9124921
-66.60688037
8.70387741
-23.77062891
-97.62833602
-97.43175342
-83.01757933
-166.1027684
-246.3034398
-180.1349681
-141.0983578
-54.01762023
26.1508814
-41.88611811
-110.7391781
-95.45024221
-130.6701073
-93.45547344
-58.79943025
-53.0377341
-58.74514974
-67.15970128
-67.20800747
-44.92130178
-22.84742676
-19.70584632
-27.69855307
-26.56370803
-47.95314643
-21.58604571
-30.5427371
-31.59880551
-3.944308851
-25.18173471
-12.55358082
-44.57106045
-19.5608258
-38.99796061
-174.0940592
38.29855768
23.03926623
3.082044374
19.56577902
)


100
(
3.560236168
-2595.278697
-1163.912129
-457.2067677
-177.2551614
-45.56262909
-4.653100233
4.840670371
6.014047496
14.71439677
35.29843929
67.35333265
99.86693558
127.0650097
151.3299521
151.4811545
118.7741473
116.3852059
140.4953267
107.930213
23.77771958
17.80130161
78.61249083
78.09524488
-8.031051502
-53.2635744
6.018565077
61.9857149
13.10407456
-88.97964155
-128.6149767
-63.83536625
42.93518071
-16.04501398
-131.4541534
-220.3646372
-243.2029569
-230.966289
-183.9728005
-141.9868961
-134.5037244
-128.4361409
-70.61191172
16.18584711
41.07857562
-24.87660881
-94.62525926
-87.39515099
-56.56873088
-96.35592376
-183.9917965
-267.2423774
-316.0041241
-277.3789226
-189.3613537
-81.48852644
-23.10200912
-69.78840043
-113.8329315
-67.32702489
-45.40069959
-119.6629408
-210.2693429
-241.6257977
-191.7610575
-102.8789985
-12.37088048
-41.32886076
-96.82438273
-32.70671537
-77.06996135
-124.38998
-93.64302487
-81.133467
-83.85594605
-90.39165926
-83.27853797
-72.14654352
-51.91338284
-32.24381615
-34.80219381
-46.44237637
-48.82895873
-66.88380318
-42.13273961
-48.63877043
-37.40542984
-73.32833111
-50.49985478
-85.32876444
-88.79409455
-115.7527037
-134.5513101
-125.1893885
-286.4496584
-189.4583943
-58.73850777
12.80616793
2.212258218
-8.318542546
)


100
(
3.418980334
-2482.878684
-1028.635107
-389.9301525
-120.9434772
-25.72792746
-5.336234512
-10.93555813
-17.01707109
-11.5125907
5.386823124
36.91211921
75.85472199
98.7144748
108.5398205
121.7504669
105.4972723
54.56404262
50.0394495
85.64456423
60.26575646
-16.30606972
-21.40519468
46.1834051
60.12802857
-20.82179537
-85.40856484
-53.69602596
-7.277437035
-40.85760624
-135.5296434
-204.9775855
-199.619868
-184.0786637
-211.4709089
-230.6508971
-228.2617039
-218.01923
-174.316902
-79.02181485
-6.556261353
-25.25098283
-86.1015115
-82.74534653
-23.91698135
-8.487462292
-84.46506177
-189.5312146
-265.726414
-300.8233961
-309.9632759
-238.6954196
-148.5944565
-114.0013096
-136.7244388
-97.47011306
-16.39008705
-8.995926016
-98.91333852
-192.8756055
-251.8709095
-241.2112683
-157.674349
-70.41392517
-67.88042233
-106.9365688
-40.44148479
-25.61194193
-91.77973358
-135.8127599
-130.641431
-118.2322465
-91.26543186
-68.11248598
-57.72155773
-59.45069288
-57.46699772
-54.4336123
-69.78222647
-88.90759995
-98.98064823
-85.93412976
-63.86031657
-67.40652397
-96.11027437
-119.0526033
-100.4014619
-101.4065352
-135.4842493
-175.7365898
-221.3182235
-235.8662012
-275.4428785
-349.1828481
-442.2931756
-195.5088568
-178.0823616
-81.92806933
-33.81554596
14.71480284
)


100
(
2.932872918
-2405.665838
-957.3096651
-322.4270827
-77.72380803
-16.59450059
-15.12156527
-32.12384474
-43.99743162
-38.1825669
-21.03860642
3.509368781
40.82345279
73.72926316
74.55360325
71.02681572
88.62373823
74.11547368
18.08070931
12.51426463
56.03675129
43.52318189
-30.62374846
-53.2906781
2.864657964
24.47662544
-46.81947745
-131.9011012
-155.642778
-142.9855396
-164.7830288
-219.2791866
-263.4966495
-277.3850371
-258.6710847
-201.361846
-111.8488295
-66.56304901
-94.28085329
-109.2717285
-45.83712891
23.23058331
-5.916614413
-105.4695814
-184.3903215
-203.5330631
-226.1588994
-275.2316933
-299.4310675
-264.8728498
-232.6702324
-185.8909525
-82.15531763
13.5169037
-11.01519889
-107.3050931
-172.6140862
-163.0424506
-196.294624
-211.2037108
-162.5918382
-141.522732
-126.8782288
-40.87573417
12.80310475
-57.2471541
-128.3845036
-154.4984789
-140.6677674
-117.0807945
-91.78904325
-78.89966403
-83.12465864
-90.16889774
-90.80482215
-99.27912138
-134.411021
-125.7898754
-116.3515394
-116.5068647
-93.09095477
-93.70963854
-148.7999488
-188.7857598
-150.8257529
-104.6121099
-172.1929776
-207.9575903
-268.8948147
-261.5974689
-285.9913343
-332.2598566
-397.6280955
-353.082434
-537.7089563
-306.4439167
-246.976045
-94.05549408
-73.6344596
-35.7327276
)


100
(
2.635929597
-2365.263407
-891.1655295
-260.4993423
-51.57193553
-12.15659079
-30.83036732
-58.59737951
-72.20782093
-64.62936807
-40.98925898
-16.00560353
9.0369658
43.62641435
63.80408721
43.65730029
35.0389735
65.02710217
58.2297554
-1.336528698
-15.07689209
30.79926123
28.52153
-50.17862876
-105.6794544
-81.83278688
-69.67864068
-128.5224724
-217.4691244
-277.7599651
-286.8658889
-268.2566087
-222.2031627
-178.3113687
-171.343333
-176.5090039
-120.8086889
-12.34650898
35.22509713
-31.04649824
-118.3174746
-126.158259
-97.83645477
-135.8425972
-233.9019654
-324.3833895
-364.1450037
-333.0852866
-250.1194372
-123.3170793
-43.61038177
-74.76854646
-130.7375148
-92.75273631
-49.9849559
-106.9038857
-207.6923913
-266.0455982
-250.0846188
-181.1222375
-64.00993178
5.599056787
-60.66026422
-126.5693702
-88.40327734
-109.3155828
-138.6992668
-128.0097147
-113.6086163
-120.7770134
-138.8066877
-157.1983169
-160.3512984
-147.7515435
-130.2994352
-109.1327375
-121.0971267
-148.201869
-158.9037788
-165.8076623
-223.1482241
-198.930923
-225.3245519
-174.836315
-204.0727633
-293.7939906
-314.1200575
-331.1909482
-327.7638243
-388.9217913
-409.9639103
-806.3044183
-480.3932583
-599.9938235
-724.7167157
-404.5987032
-320.8443382
-183.9365224
-110.4323087
-81.16204919
)


100
(
2.652248654
-2312.687383
-822.7153131
-207.0444286
-33.93228472
-13.5989026
-48.28743761
-87.96600691
-102.5245307
-90.5991648
-60.10953357
-24.07570457
-0.3392311714
15.94277578
47.49444488
59.10374265
22.2054588
8.139361638
47.16620431
46.33826464
-21.15842325
-53.45313128
-15.0882762
-13.98079232
-96.79701065
-185.4108565
-215.0137983
-219.5793066
-242.3888449
-273.9669433
-293.3546284
-287.7097768
-234.9335763
-126.1022111
-32.61705694
-37.8632017
-106.3072967
-113.7183326
-41.45113294
-2.392145837
-77.10613503
-203.0055334
-295.5315679
-325.5152725
-336.6491434
-305.4952173
-236.4797327
-187.7824012
-186.954441
-141.5769859
-38.81335707
10.57060411
-71.56585975
-185.5275488
-247.7598212
-248.8237716
-222.9811548
-144.8549007
-87.8898549
-119.4042199
-108.1003051
-30.32803153
-34.2230051
-121.7544224
-183.0639719
-201.0167761
-200.2633461
-178.3727502
-152.901667
-139.1505877
-147.0924737
-158.761709
-144.1271824
-132.2145583
-170.608071
-220.5790617
-259.167292
-241.8813267
-218.01412
-187.7336255
-240.8303193
-296.569298
-289.7394221
-321.2178269
-297.4465962
-366.042993
-393.6750696
-433.8621859
-479.0639786
-499.9936999
-573.0210557
-10.24775225
-737.4828873
-786.5934016
-753.2846991
-491.2275146
-414.7745914
-321.5292385
-222.1061177
-172.3118342
)


100
(
2.830279151
-2247.382311
-750.3560272
-176.1175406
-18.35710121
-19.58699795
-67.8489898
-114.6750163
-131.5067504
-113.8435602
-78.89960492
-36.45677513
2.986356577
13.37426178
18.079777
52.99240098
60.87665341
7.394550706
-16.64456473
25.1612355
26.17670325
-53.96317134
-118.7464159
-108.710895
-118.9148711
-196.2762457
-291.0580101
-345.3073123
-335.4896671
-285.9289206
-210.2891871
-162.5077766
-166.472031
-156.2137651
-66.28659794
33.03630197
18.93935979
-94.31226245
-188.8561439
-196.3699292
-195.0283084
-250.4262097
-326.8967274
-365.0402801
-353.00308
-297.8361376
-180.2475679
-49.08746409
-24.72821252
-106.7666494
-173.0831075
-148.5288641
-149.2154001
-208.0516034
-248.4004773
-231.0781912
-215.0614156
-133.9695328
-19.50179724
-15.41521123
-115.7895589
-181.1430859
-161.9621831
-179.599982
-177.0882517
-153.247325
-142.7539104
-158.6634293
-187.3057423
-210.7476286
-228.4304368
-256.9348402
-245.4371583
-225.1393109
-227.8663598
-266.1508723
-260.2366409
-204.5819014
-284.7589365
-387.6320949
-397.6324445
-356.0204905
-255.90792
-371.5649265
-474.0096524
-516.7485089
-532.4832735
-550.2825502
-588.7533685
-628.7844108
-676.7528448
-385.5901784
-840.8014528
-933.6037174
-768.7914419
-671.8749041
-530.0381035
-444.0939945
-356.8721872
-186.1489116
)


100
(
2.676500907
-2167.99406
-691.6675373
-149.6302714
-7.9698154
-26.83090565
-88.63944204
-139.8288659
-155.2701986
-130.1450862
-89.20908543
-50.01228147
-5.921369219
27.0495015
16.9588236
11.78478273
51.83245186
55.58256513
-13.68739695
-53.24735709
-18.10008031
-22.28293079
-114.3860198
-212.1354188
-249.6013008
-265.98469
-294.6833749
-319.8742166
-324.4617109
-298.5640639
-214.5769358
-82.67593605
-11.01131999
-59.4573116
-133.5581991
-105.4347481
-31.36849624
-47.60773739
-173.6695471
-314.5725146
-399.5960079
-404.2938867
-360.2106506
-262.6634504
-173.6415257
-162.6837846
-190.1999867
-132.0591893
-40.84310483
-49.88739386
-164.8754635
-270.485808
-310.9900543
-284.5852702
-202.3529843
-97.36136026
-88.3053472
-155.9921661
-125.3387053
-64.17790475
-113.8855909
-196.7092852
-226.6500327
-242.5019313
-260.605202
-246.4632258
-224.7436675
-216.9417999
-229.8681694
-241.3534874
-218.4894874
-202.4103336
-243.8108948
-312.8663798
-365.2636064
-399.0788387
-365.5768357
-313.7211103
-346.3965868
-438.2744575
-390.4959615
-447.583332
-471.9539037
-522.8767495
-586.4310036
-628.3423958
-681.0433508
-746.2440925
-779.522543
-824.107662
-838.8127764
-872.9492928
-1006.235643
-1096.17491
-1054.555371
-853.6952315
-694.9082272
-555.2460905
-485.5334834
-420.2078627
)


100
(
2.434497962
-2131.303796
-661.4673137
-123.7277263
-3.051410942
-35.56253135
-108.0228173
-162.4483827
-173.7406228
-139.0661518
-86.66707589
-48.77464533
-20.40283201
20.91094597
43.53505222
12.21035567
-4.016497661
35.86347501
33.25968198
-49.8125499
-113.872748
-106.9147558
-128.1429729
-219.2397202
-320.8812412
-372.9301613
-357.6488122
-296.4912391
-215.1107265
-177.7185827
-186.5612321
-144.4753889
-24.91648323
49.74087239
-22.71869495
-158.2187461
-228.3862739
-220.4859765
-249.6162775
-320.07782
-371.7490341
-375.5079322
-345.9862287
-257.705039
-105.2365882
1.331775869
-46.61935702
-166.0530368
-227.6584298
-212.7232057
-239.6073865
-265.4991055
-242.8667453
-228.8319555
-211.657145
-107.3945622
-7.871264594
-72.88057523
-195.6166898
-259.0411113
-259.8311687
-255.478912
-234.0409076
-209.8224163
-207.5113177
-232.9338415
-269.5805278
-291.3040072
-300.7167064
-342.8223089
-355.8402875
-338.5172424
-341.3369874
-389.5225642
-394.169949
-345.7193999
-377.3661564
-497.4310234
-581.6129467
-545.0960844
-466.0033876
-465.3212252
-616.1340395
-682.3821627
-710.5862981
-732.1681451
-784.3125064
-850.9169211
-911.8720168
-961.576593
-1021.424789
-1078.694522
-1133.998927
-1272.550063
-1195.232075
-993.2659498
-872.8890337
-715.6094549
-605.1115184
-407.2399198
)


100
(
2.304045749
-2094.187942
-627.4577719
-101.579268
-2.525012556
-47.28195005
-125.8221167
-180.4920484
-185.7927558
-146.1215664
-82.08539821
-30.92159104
-13.13653281
-0.9435332596
38.33690861
51.09030345
-0.4255516708
-32.30001748
-2.662212395
-20.79797267
-108.9312226
-204.3500728
-243.9443851
-271.7447389
-313.6872544
-346.13025
-349.4312409
-307.8066399
-199.8829665
-69.25791967
-32.64894312
-100.0478725
-140.8619349
-79.75040202
-26.92830843
-100.3519462
-252.8575144
-376.6094859
-421.2029967
-407.0500021
-328.9858738
-211.1052573
-146.2112407
-171.6281127
-178.3759305
-96.24661349
-36.99649238
-115.1049707
-254.0469935
-347.9562166
-362.6973302
-295.8484526
-158.3033232
-56.6035777
-109.208914
-205.4690877
-173.5107637
-150.6161088
-216.3811155
-276.9677244
-281.4568656
-287.80185
-318.0131658
-344.8817593
-338.8109052
-334.4036743
-342.2072686
-345.3462317
-317.6660251
-298.3576442
-350.7072814
-433.5303771
-487.5488093
-503.2301445
-528.642018
-494.6566343
-488.268549
-600.9476179
-577.5455415
-514.4145251
-652.7034774
-691.3644748
-793.5054919
-853.1841166
-900.661344
-921.2384603
-961.6860072
-992.1306583
-1036.045266
-1098.622644
-1174.850507
-1209.148132
-1350.358412
-1419.786465
-1278.688067
-1097.495472
-990.7483209
-877.3956623
-763.2635004
-1016.055068
)


100
(
2.175064311
-2051.384958
-590.4443507
-86.83165014
-1.35918072
-60.45607125
-145.2166841
-195.3360572
-190.1847117
-145.9038159
-82.43650161
-21.79591812
12.78195777
6.262904338
3.466328166
40.43336822
43.85885118
-24.37825479
-78.35414865
-72.50698678
-97.61274811
-198.3392812
-311.8640504
-372.3056921
-365.584826
-312.375377
-245.2821668
-215.0146039
-202.8023557
-127.1418152
-8.241355291
24.74371651
-74.84601037
-196.340826
-234.2512199
-233.5423867
-283.5035583
-356.2110385
-394.7397293
-391.5357023
-340.1188747
-210.1994701
-51.61252898
-5.086970453
-109.1397843
-232.1726141
-258.6359694
-256.3918973
-282.0946555
-282.07876
-258.1957986
-260.2450018
-209.1799994
-77.77937187
-21.48882282
-143.1993971
-282.6572639
-339.8056506
-346.3205968
-337.0617424
-304.0864732
-272.5832275
-272.9336593
-315.6034552
-363.7465982
-380.9528969
-375.6850839
-415.5998771
-482.8754471
-482.8314157
-487.8958368
-531.113225
-546.5067829
-480.0405602
-492.3159699
-613.8863219
-716.969834
-749.6445043
-659.6182862
-560.099919
-708.8616483
-832.5406415
-883.3604707
-919.9710186
-955.2368686
-1016.310651
-1078.048148
-1131.646832
-1172.58516
-1244.907094
-1300.507927
-1382.219852
-1460.252785
-1580.319094
-1367.168852
-1207.798871
-1112.567403
-1007.163312
-882.6103361
-245.1123457
)


100
(
2.05678172
-1999.196922
-554.6150681
-79.73556183
-2.121236743
-70.05161294
-163.5180743
-210.7354511
-191.670193
-137.318143
-77.4809896
-25.28185237
19.5710384
37.87435288
10.53855828
-6.435309032
23.99573895
17.81878717
-65.64145056
-151.1016048
-184.6961716
-223.8314151
-295.1048285
-359.6830757
-377.6049276
-326.6502241
-209.6767339
-91.60920621
-69.05753697
-121.8983602
-126.6558273
-57.45294575
-34.8716736
-139.1319359
-298.2315719
-415.011414
-440.1085528
-405.1125603
-311.7211345
-219.2549156
-197.7908314
-223.1451505
-172.4339691
-71.75671686
-62.15557483
-191.7497809
-341.3816769
-417.7693812
-392.2038789
-288.7512022
-134.1502926
-67.97211702
-156.9778195
-228.9033028
-181.4650927
-200.2085205
-291.2660345
-342.4533413
-341.1063644
-352.6863672
-393.0418359
-432.4548875
-433.2997664
-434.6629522
-444.1486162
-443.7155503
-402.052877
-372.5555762
-437.7641782
-533.362805
-587.5940236
-580.0137596
-648.147003
-647.6075504
-638.5277087
-720.9737556
-759.6802642
-647.7109034
-699.0594464
-852.6569712
-915.9871059
-991.4276746
-1034.783485
-1056.365859
-1096.063627
-1149.569161
-1191.668477
-1225.797754
-1273.137635
-1317.470928
-1389.574625
-1494.610015
-1575.301618
-1596.342497
-1464.6103
-1340.372114
-1237.962536
-1132.9712
-1054.552689
-1268.515701
)


100
(
1.97824987
-1957.353862
-540.5004817
-70.95735401
-4.863830978
-78.81045827
-176.641047
-222.9122096
-195.6343667
-126.5146788
-62.81507996
-21.75840723
6.473964463
41.02631279
49.76323674
5.855053914
-28.71247141
-16.01764381
-39.27414799
-138.7010274
-252.2460901
-318.6132372
-335.0926806
-320.5067867
-290.553059
-264.9628581
-221.8116589
-118.3434901
-3.031785187
7.319560618
-96.49828084
-199.1773041
-213.0127243
-218.0338853
-284.0696778
-377.3063657
-434.5504615
-427.8623148
-336.533885
-173.7390804
-37.81824572
-49.09219905
-167.136573
-253.9178909
-247.1095765
-263.6217199
-306.604907
-319.8260214
-314.5827097
-310.3947841
-208.5502766
-61.92853913
-55.84591941
-217.9497195
-363.4535508
-394.5090139
-407.0347636
-394.9669193
-350.1982972
-312.8548885
-329.1867956
-393.2944406
-453.7872011
-471.7686776
-463.7403841
-505.0769979
-571.4577661
-570.8461563
-583.206672
-634.5330266
-652.3856497
-559.6378455
-542.8103099
-670.2352698
-807.1866317
-838.887401
-834.2838527
-732.1605886
-738.597713
-927.4715597
-990.0581562
-1023.113943
-1068.16851
-1102.602574
-1157.444324
-1218.128763
-1287.027122
-1334.505995
-1384.272306
-1431.842456
-1482.566597
-1522.631032
-1551.62302
-1577.982698