/*--------------------------------*- C++ -*----------------------------------*\
| =========                 |                                                 |
| \\      /  F ield         | OpenFOAM: The Open Source CFD Toolbox           |
|  \\    /   O peration     | Version:  2.3.1                                 |
|   \\  /    A nd           | Web:      www.OpenFOAM.org                      |
|    \\/     M anipulation  |                                                 |
\*---------------------------------------------------------------------------*/
FoamFile
{
    version     2.0;
    format      ascii;
    class       dictionary;
    location    "constant";
    object      la_i17;
}
// * * * * * * * * * * * * * * * * * * * * * * * * * * * * * * * * * * * * * //

la_i17_table
100
(

100
(
0.1841965776
0.0001568226969
-0.007003955462
0.2222112496
4.138790364
2.981946895
1.032998544
0.3500812536
1.682787424
0.05774287931
-0.2230191196
-0.6740968254
1.049078651
-0.1142261482
0.05700785709
-0.1233639026
0.2081715008
-0.4563888016
0.4764390786
-0.2741697457
0.1960133265
-0.1231569396
0.09379145254
0.004920938949
-0.1314759323
0.1069385729
-0.009322687139
-0.06862628522
0.01803363746
0.00179323109
-0.003222270474
-0.02252280356
0.04022871137
-0.01353474189
-0.07969616096
0.1415621881
-0.05367220336
0.03250983668
-0.02435531851
-0.1739495454
0.1724833247
-0.211537287
0.2780920677
0.1007814266
-0.2373364978
-0.3772452888
0.8881089085
-0.448563072
0.0584084374
0.2876500346
-0.3041385607
0.406506653
-0.3042359709
0.1742704202
0.1317594548
-0.6466990308
0.7871022285
-0.4650231145
0.4174432104
-0.1792213734
-0.03068697817
-0.01147671937
-0.01108602597
0.07982438821
-0.06454417777
-0.1421745805
0.03073316326
0.2125142689
-0.03468409999
-0.1177874644
0.06464766093
0.2785101387
0.3677424108
-0.03411869269
-0.3016172824
0.04719523561
0.2346889319
0.2324922609
-0.05297736792
-0.05953143751
0.1999249572
0.09542976812
-0.3962980419
0.2583161418
-0.06990072192
0.1292334328
0.009053957188
-0.1297452949
0.0572830455
-0.3081722212
0.2962075776
0.1571475553
-0.0511674913
0.03817543558
0.02136211043
0.003230704058
0.04439778288
0.06112409434
0.03351040425
-4.250822404e-05
)


100
(
0.1697353718
211.6657991
254.2143529
269.521894
283.6798626
297.0833474
275.0605379
287.2632941
267.2619349
269.1873434
261.1850454
244.0773674
238.2349359
219.4399617
200.6389555
192.5398479
176.776115
151.8247297
147.1828434
136.9470373
118.7431734
109.9160493
104.5906777
94.1123708
79.05593521
77.17352622
72.36271302
63.19144172
51.31892173
51.11069782
48.19085805
41.49316477
33.38313747
32.68924485
31.17663366
27.59812525
21.50605664
18.84697827
18.90966423
17.29833709
13.81226435
11.47475398
12.1377196
11.51611711
9.071295443
6.482278507
7.013726149
7.297931844
6.511361152
5.604537154
6.015589333
6.864570143
7.10330115
7.325354445
7.886727794
8.523136005
8.859805638
11.17979222
20.47088739
25.8020506
-27.36479041
-6.62385635
45.66027556
17.94688802
-28.70002184
-5.404205802
48.20826246
-7.816543116
-19.20769088
9.190218657
24.55678977
-17.31669345
-8.527054189
36.20883689
-11.97804957
-18.12793262
34.426345
-7.920568952
-16.50130849
29.68768574
-15.80150138
4.04412533
12.59176583
-18.13237762
19.78919032
-6.614589675
1.796352995
5.059594363
-3.318902759
4.354993798
-0.2511100144
2.162590552
0.2783202919
1.34966245
0.6679225184
1.179812216
0.6972592285
0.7119397562
0.2512651115
0.286910269
)


100
(
0.1399277816
183.2897731
206.4156889
200.3961826
215.9007251
207.1266218
193.3078584
177.6538639
166.9063122
145.873404
143.5664201
123.8597999
113.3610585
102.7339989
82.26315301
71.03153811
65.54243373
51.77087014
38.08341953
37.64885842
33.05082594
24.50085488
20.15094268
20.09510591
16.08414258
10.59582108
9.907280875
10.90359221
8.685782426
4.921364934
4.241491054
5.947119308
5.518841062
3.3093722
2.579976865
4.614270628
5.746032677
4.687976447
3.383745432
4.46555587
6.55875508
7.525305156
7.884331334
9.053139123
11.45031277
12.9788095
13.5145022
13.78397639
15.08681236
16.9014253
19.14504694
20.79902425
17.65982964
15.55198474
14.17123588
12.46374189
10.26793347
9.845147725
11.58406727
21.13246119
18.59477467
-26.95621459
-18.31068561
5.678359267
22.54071715
-13.71287028
-8.377708232
7.854342984
-1.432746731
-3.585722505
-1.721162061
12.75934567
-2.054495684
3.689770465
16.83567567
10.20137439
-24.8131353
0.2775648525
22.39181049
-12.25069285
9.507876051
-0.3863918874
8.717695146
-3.767850356
1.950925708
4.764809409
-0.9362519769
1.921602955
1.953031395
0.880909007
0.9184771532
1.146095703
1.007336994
0.7595390734
0.8916072504
0.6657959244
1.357024926
0.5088415528
1.140736509
0.7312349964
)


100
(
0.1023572933
158.5009098
162.644991
160.1322812
155.7509502
131.6583165
123.802887
95.95467122
90.05329984
72.28664578
63.09139504
53.33216074
38.27565967
34.49971011
25.90262951
14.91616647
11.91136363
10.66615978
4.663292408
-0.1543855597
1.857288289
2.850758509
0.03058919287
-1.820612927
0.1699970525
1.24239474
-0.334786308
-0.6999517096
2.333715628
4.738951837
4.165142737
3.756560373
6.149575528
8.922536578
10.03201034
10.29498724
11.85539994
15.24545897
18.54734836
20.49013605
22.2368306
22.80260115
22.49600831
21.44320276
18.59840254
13.80485746
13.55620362
13.9414083
11.70073879
5.273319377
4.859148801
5.978240972
5.469223579
1.199142165
0.2685695245
1.166349338
1.066586098
0.1927212596
-0.9756586276
-1.005230982
4.555041638
10.16505626
-15.22940404
-8.597378393
-3.195907496
12.91502861
-0.9674866286
2.941828121
8.506518785
7.097849084
4.742770153
3.109976223
1.780253241
5.30813862
-4.562765811
-4.453708779
9.832141958
3.914093951
-4.688822987
1.450722976
2.859254604
2.021158127
-4.87496625
1.196327996
-0.8894735864
-1.504818166
-1.444834824
-1.031080025
-2.107817645
-2.496831457
-1.95175124
-2.378380147
-2.515151725
-3.3486957
-3.548139267
-3.737296371
-5.526994644
-4.06782033
-0.2522631205
0.3927636651
)


100
(
0.07678358008
145.2445358
139.1442874
123.1393911
105.0468081
88.34119031
70.53658788
52.85715201
38.54385928
29.50430713
18.70764808
15.26166375
8.120565253
2.917748689
2.267360021
-0.846430291
-4.521635818
-3.512393078
-0.9616621266
-2.248181508
-3.455074216
-0.3792474078
3.1433661
2.725309116
1.84507638
4.228110726
7.509713236
8.174194688
8.272181005
11.15128234
15.77017774
19.32970161
20.69487805
20.51220191
21.73690348
23.20773875
20.27727337
13.13647172
12.19413309
14.56649557
14.34810051
9.579374697
3.169159563
5.262300745
8.534651502
5.797128498
-1.066315227
1.6246096
5.543543368
3.377911313
-2.024579607
-0.4866543448
2.870830994
1.638248417
-1.994825538
-2.483139764
-1.578929046
-2.024207035
-2.832555422
-4.046466186
-4.895410962
-3.947953741
-2.810466831
-0.04396360098
2.24724913
4.339065174
5.847629082
-1.990744996
-0.7521070318
2.372059187
0.9225383221
-5.369104831
-13.20030945
-4.81983769
17.91588264
0.2550996765
-11.3920201
-0.01851848319
2.285024772
-2.986688279
-7.611814189
-11.05914285
-2.391445763
-0.4461125407
-5.184282367
-3.342521788
-7.6205159
-8.348699311
-10.50837611
-1.491978187
-6.08425234
-13.0458108
-8.628832511
-12.1872005
-12.80600863
-13.29948952
-17.36767152
-7.958777775
-4.155084968
-1.895746716
)


100
(
0.07443791864
130.325329
116.6163004
91.59683606
66.71632117
54.48129807
34.43207042
23.82043059
12.22429543
6.587733525
1.478965069
-1.535620354
-2.927897907
-5.196482392
-5.425707754
-3.410773474
-3.177901216
-3.808829925
-0.8840206729
3.737214546
5.293130628
6.1893243
9.563216719
13.5067528
14.51935056
13.85530853
15.35740559
19.27095223
20.33004537
17.17431184
13.11889515
14.67625313
17.66728599
14.28986797
5.61288687
7.418557895
13.42939406
11.15273387
-0.2139097167
0.9239119617
8.208333821
10.00417498
1.218925282
-3.050640483
2.979109928
7.310908805
1.009740505
-5.086097832
-0.850877296
2.71504387
-1.206305145
-5.965849768
-5.264279363
-4.482038023
-7.503247871
-11.35953233
-13.60585383
-13.77657307
-7.822872884
-1.883358582
-2.206125892
-5.777948925
-1.637003328
4.048671239
1.498325138
-5.275987496
-5.066374419
-1.291073635
-6.122382184
-11.30214611
-17.70370197
-11.64735274
-4.453151701
1.760854764
-14.28856786
6.465095771
-5.302936381
-12.36202093
-23.09855091
-14.23394527
-0.8758449859
3.637736727
-14.91747906
-13.86647805
-15.51776848
-7.452343915
-13.58633563
-19.58187076
-8.430221282
-16.99140005
-21.03890089
-14.30984857
-20.01779332
-20.64252342
-23.29431423
-22.68401341
-23.78086774
-17.31880113
-10.69514074
-6.863859067
)


100
(
0.08222904364
115.8972607
96.41535364
65.61580322
46.23029426
29.80326133
16.39512361
6.712007031
0.6602099907
-3.403828868
-5.103901611
-6.05926803
-5.597265628
-4.700895865
-4.375729919
-2.419837392
1.426496593
3.632722815
4.766050271
8.306834321
13.31944934
16.52883705
17.44702536
17.39650651
17.87792395
16.37351756
11.72196208
10.42041884
14.10898133
15.69944101
9.356132717
2.370976866
7.423778726
13.37588796
6.925469345
-2.80551025
2.652934373
11.04403968
5.32072721
-5.368800516
-1.380462538
7.775811511
6.344493256
-3.119967964
-4.830376433
1.443717826
0.3581312276
-6.835581782
-12.82513933
-10.45150578
-13.10590157
-19.39793706
-25.43476667
-22.99396319
-16.23910875
-8.240350847
-1.926248228
-5.223248652
-8.75879871
-2.672842315
4.653507176
2.400493068
-6.402044583
-13.50597768
-10.262664
-16.26152989
-24.7653011
-18.0146564
-15.38326256
-10.15888484
0.7171905984
3.070991257
-11.10031486
-11.44426303
-13.8775995
-31.28842399
-17.02548072
-17.27706992
1.868721295
1.608422395
-19.51570013
-25.79259735
-21.3332531
-10.74722259
-13.87746292
-21.69232407
-21.2410931
-21.01525961
-13.17181748
-12.07760956
-20.7110943
-23.21285305
-24.79429538
-25.41818637
-25.43517612
-30.40136365
-29.04894723
-22.52792073
-18.75885752
-12.42520406
)


100
(
0.06569019111
101.0220317
77.95926225
49.59861365
30.06289269
13.663514
5.275378995
-1.742941417
-4.702422062
-6.365788777
-6.556682647
-5.875584
-4.707959142
-2.431652407
0.1371298335
1.830442449
4.857608142
9.494686764
12.50007508
13.23820625
13.57767813
15.63941911
17.25932684
14.19701179
7.679490043
5.562539494
4.345702058
2.247061796
4.711006724
11.57952718
12.47448171
1.236271319
-3.529820359
6.62660124
12.79771131
2.176943193
-5.249627842
3.542878668
10.17965135
1.134220817
-8.109147164
-3.230753467
2.864334447
-3.534531152
-13.87662835
-16.8893299
-17.15170397
-24.00762987
-32.48781964
-32.9169692
-27.03681394
-18.15403241
-7.492254984
0.1990307461
-3.937066479
-11.13236344
-4.851070985
3.284817769
-0.3306557067
-11.26779256
-19.70016164
-16.34145185
-26.52266776
-38.39171103
-24.07177542
-13.02518731
-16.64199167
-4.022256151
10.54211341
-4.752066298
-19.93550886
-19.01141903
-35.234886
-29.64633354
-14.10958832
-15.95928285
4.446299358
-4.751700599
-24.09723086
-35.83487606
-24.35698935
-14.14720288
-14.1427012
-22.82819465
-23.26974098
-24.24953101
-18.00648296
-22.37934685
-20.38819863
-23.04937432
-22.55136614
-22.37321012
-17.94337849
-18.10004075
-19.84790714
-22.43735987
-23.45582914
-23.09749282
-20.52945432
-18.10239523
)


100
(
0.04520002473
88.67156941
65.04562569
38.6276962
18.16054505
5.69587363
-1.291601128
-4.97394323
-6.474356973
-6.674698604
-5.987881389
-4.221357222
-2.192795197
0.02997312569
3.447410216
6.914361272
8.661975416
10.45116093
12.98628976
14.77069531
11.9667179
6.430269615
6.609256238
9.773504848
7.476396957
0.02788561786
-4.224469944
-4.567370894
-2.214215494
5.644664299
14.49434883
10.70908272
-3.61145554
-4.394100217
7.856329951
9.302456325
-3.144567078
-7.566259677
0.9635511529
0.9516332596
-10.35515096
-20.72958207
-19.50083705
-22.72585321
-33.84763885
-44.33961273
-41.85931834
-31.20329382
-18.96946529
-7.19619729
-1.679056308
-8.855206792
-12.02253985
-3.469340422
4.805944394
-1.913931504
-14.23139963
-23.49468511
-24.22603731
-35.23405389
-47.34692027
-33.0176881
-23.08385967
-20.81775892
-6.644877463
8.815576137
-0.9841223626
-18.53403188
-23.02602772
-30.99255705
-46.18355306
-21.84003492
-19.86482605
-11.96212734
8.320112298
-10.23385387
-28.75478884
-36.13887763
-24.66999772
-14.30844033
-12.00616687
-19.04097728
-23.5777379
-20.90771865
-18.27260759
-9.13729643
-16.99002316
-9.79472933
-15.51231847
-14.35893919
-13.02141196
-7.436807836
-12.05868288
-9.351847603
-8.460964178
-12.62575104
-10.28105571
-16.04482002
-17.59632852
-16.87574281
)


100
(
0.03846816909
80.40233037
55.92061641
29.47286625
10.12687814
0.9577166037
-4.358518261
-6.338804207
-6.574477703
-5.773098529
-4.656739572
-2.579491397
0.374603499
2.760229209
4.694315871
7.822849542
10.65764766
9.971726255
6.908284543
7.665826197
9.92753594
6.055999202
-2.125951711
-1.911607219
4.27241453
5.620858666
-1.395802398
-8.563956239
-8.890815898
-2.333966367
10.02046949
17.21194474
6.938449017
-7.618795099
-5.055454784
4.811721103
-0.970882634
-15.30192954
-21.95288415
-20.58664349
-27.37353355
-41.31573989
-52.033039
-46.47424641
-34.06723068
-21.14320628
-12.36746548
-12.38242476
-15.72049491
-9.636028291
1.104031961
4.207796693
-6.444844799
-19.34233828
-25.38806919
-25.65809745
-38.84683078
-52.39641085
-41.61871838
-27.47348608
-24.08601991
-9.697647689
5.496046846
-2.686699021
-19.1578772
-21.01402463
-21.37587501
-43.4059124
-40.62300707
-25.97213213
-21.48292679
-2.968223073
2.810149202
-15.4539929
-27.43492201
-32.93862013
-22.71275621
-13.06116641
-11.37090754
-15.20570733
-16.50172572
-15.84135203
-13.01760936
-6.774356928
-7.292326772
-9.007729132
-7.824388926
-5.58241617
-2.765292506
-2.399722869
2.663689622
-2.524354446
3.225295186
-0.6342068597
1.652976736
-1.646587658
-1.94458949
-4.125060593
-10.22275458
-11.9758102
)


100
(
0.03544694729
71.71835931
47.38448414
21.91927126
6.313427588
-1.894495269
-5.348569441
-6.452983313
-6.19342616
-4.763118612
-2.988997309
-1.137344917
1.620679492
4.662534187
5.84571501
5.131697215
6.695405251
8.794019519
5.946699607
-0.22958429
0.7815843479
5.991229015
3.67724133
-4.706627017
-5.899386689
1.666534041
6.065798582
-0.5038692642
-9.837499811
-10.93931748
-2.885225746
9.729520802
11.86518374
-3.635397851
-18.26409486
-18.64087532
-19.16785653
-30.03800295
-45.12883963
-54.62778236
-50.68984714
-37.92499723
-25.85423317
-18.94779492
-18.80875555
-15.97140797
-5.779548086
2.863465452
-1.473563112
-13.40260808
-22.19113031
-20.18102026
-23.53113289
-37.42319222
-53.91742572
-56.12905071
-45.88841978
-31.01522881
-12.12191961
3.602766433
-3.226518981
-17.78715521
-16.80994233
-13.708538
-32.68682453
-51.5483809
-36.00101571
-28.20525299
-11.76819489
4.007838796
-9.759429454
-21.34047118
-16.1661961
-26.17193438
-18.87192085
-10.84373867
-10.97131909
-11.22490278
-8.985490114
-7.587498535
-7.177954805
-4.209286195
-2.44789878
0.5548021774
-2.465163585
-0.6156675899
3.828142672
2.721068838
1.51687457
5.41767762
2.276090005
6.585751282
5.049628414
6.018923272
9.79574313
8.318008635
7.465220098
2.336702231
-0.8408572064
-3.083375039
)


100
(
0.03290445489
63.37161715
39.34727605
16.38261521
3.741853379
-3.162505632
-5.577225785
-6.008870845
-5.548300153
-4.194597554
-1.989434578
0.201907573
2.038955605
4.095507198
5.988803796
4.951948385
1.310602187
2.155607992
5.279771887
2.260392793
-4.960880655
-3.090795889
4.153843906
3.79776465
-4.816208089
-8.59178118
-1.519215732
4.601716975
-0.475124619
-11.30427613
-17.36520864
-11.72667817
1.142188077
-10.50310978
-29.70933303
-46.23767423
-52.83934193
-53.60087352
-45.45212215
-37.37576108
-32.49928661
-26.42301903
-15.24111074
-2.957392282
0.691904257
-7.22701638
-15.99138457
-14.87380341
-11.44581941
-20.0391711
-36.23090723
-54.01699775
-67.46313426
-56.81470703
-37.51314309
-17.02234686
-4.771518309
-13.21546666
-20.8024841
-9.776876836
-5.267998149
-21.68407367
-40.2797612
-47.04736548
-36.01745096
-20.55533831
-5.06347637
-9.632469643
-17.62454935
-2.989633928
-11.48683908
-18.8886771
-14.46513437
-11.88588229
-10.00580138
-6.686112525
-0.05984294461
2.304042927
-1.398022039
-2.329167731
-0.5913650521
4.324765404
5.573996805
2.667811847
2.171309322
7.480536897
5.45906706
6.35086417
9.426248955
8.374628561
12.80252404
9.947843456
10.43606524
12.8506862
12.46408916
11.01869892
9.741343042
9.031814485
3.317161497
0.5785315484
)


100
(
0.02784040455
55.07183157
32.06190887
13.51218611
1.914971331
-3.430894429
-5.393213849
-5.59634452
-4.904611136
-3.70315889
-1.946912282
0.4382941823
2.336368552
2.856630097
3.352147498
4.57972084
2.649747946
-2.109722592
-1.127071921
3.427696153
1.047796392
-5.785873395
-4.729328684
2.771353292
4.0047951
-4.53085246
-11.22295103
-7.528209812
-2.645238618
-6.73155425
-19.38032411
-32.0728348
-35.71732855
-37.33849697
-45.60954077
-50.68240022
-48.50149952
-42.28157805
-32.10235637
-17.902455
-8.827211373
-9.874851584
-15.00752003
-12.93480271
-5.876339284
-5.298604592
-16.93099654
-33.68891109
-49.45412756
-60.10741678
-64.99329166
-49.43771303
-31.17765382
-22.4694241
-24.43377091
-16.30878469
-2.12899093
-1.235487179
-16.45061294
-31.6016787
-42.34728434
-42.47043299
-29.97520308
-17.07268438
-14.17383773
-16.10563082
-3.475924837
-0.06825567945
-7.994757165
-11.98872368
-12.7769985
-10.96501232
-6.945568678
-1.904454265
3.258973173
8.071000541
4.656130867
1.026263367
1.534371861
5.74966943
12.94449881
8.133540936
3.39818847
4.538159172
11.5796523
8.598353324
6.802490412
11.00601928
10.63961692
9.612337266
8.653576242
12.65870692
15.37240488
14.76897292
11.48121485
14.56736073
9.169319998
11.46031243
6.740255033
10.25523156
)


100
(
0.02447713324
48.48940184
27.5888651
10.75744718
0.7627603876
-3.356946488
-4.976513187
-5.244267549
-4.616362449
-3.265312833
-1.870833996
-0.4645851559
1.550294808
2.509019223
1.224977592
1.026653585
3.186442015
1.744730879
-3.412145263
-2.572457479
2.632236197
1.478660307
-5.457201538
-6.79497844
-0.3701023334
1.895231905
-6.033418346
-15.9432636
-20.34734728
-20.92243331
-26.13048051
-36.86340752
-47.56404163
-51.71882281
-46.90146452
-37.37598251
-26.05706856
-19.55342873
-18.64442513
-16.47419038
-8.459512857
-1.801043843
-5.779931142
-17.34099325
-28.78329506
-34.89968004
-43.04504967
-55.62101493
-62.90399005
-53.70232297
-43.59082332
-32.65275398
-15.46740125
-0.8660631767
-4.168732487
-16.99634166
-25.09960007
-21.2737992
-29.18991263
-35.14537954
-28.51965024
-23.19522705
-18.15824639
-6.455076687
1.635540248
-2.474485149
-4.215500136
-2.052516072
-3.548201741
-3.97656798
-2.985830357
-0.4184822409
4.064234125
9.829158945
12.48422619
6.349057146
5.777887327
6.584770283
10.35379098
15.88142248
7.826090979
4.877647413
8.659343921
15.10532902
8.717918075
5.903564552
12.1247553
10.75565933
7.033944718
9.996223248
9.881249879
11.77390685
9.792996556
13.85863826
13.16517957
14.27760017
12.35125625
13.29454722
10.52131961
0.5999084108
)


100
(
0.02651899017
43.32257464
23.57394203
8.34837075
0.2099232613
-3.243563249
-4.563559679
-4.905303933
-4.488716525
-3.229987937
-1.602067495
-0.6525895194
-0.02273844949
1.514275236
1.714578172
-0.8160300003
-0.8807309359
2.612172322
1.751413317
-3.761674608
-3.824273547
1.604151145
1.549438235
-6.026449123
-10.97943357
-7.918471539
-7.25058513
-15.27315731
-28.2648755
-39.70343717
-44.15330062
-44.06952123
-39.9503727
-35.92131118
-32.34061441
-27.16081874
-18.2121016
-7.713493
-3.901671413
-9.246933351
-16.53062446
-18.03781215
-17.77091503
-25.96326076
-42.13827711
-59.81963094
-70.34104801
-62.26886682
-46.09250429
-26.1094613
-13.24233987
-15.17169994
-20.51014255
-12.46998161
-5.196998108
-13.15506245
-26.95725456
-34.70505134
-31.99623433
-23.57081075
-11.86941979
-3.685501065
-5.680827831
-5.647542629
4.930009052
6.628440033
4.454453195
0.9700587626
-0.8275459046
1.031393455
5.237288017
11.61426712
17.9753394
15.27920593
9.044572988
4.701176057
6.499794977
12.6489551
16.05674559
10.2843237
8.768823264
8.925162985
14.26369304
8.680937862
8.135921891
12.93429943
12.22402834
11.27453178
13.5353082
10.80662041
12.0649106
4.607624076
11.7624327
11.90518819
12.97962208
14.35086361
14.14941304
13.90450408
11.45062988
8.00270597
)


100
(
0.02329418685
38.31754687
19.86973373
6.337767564
-0.1248524695
-3.106909524
-4.23684367
-4.66831962
-4.41580244
-3.418935993
-1.741897195
-0.3437091371
-0.2000725688
-0.2350100631
1.524965755
1.566430407
-1.826903904
-1.977573447
2.323959499
1.914824837
-4.230554403
-6.045211951
-1.139058882
-0.6990359434
-8.959618821
-18.05074629
-22.30198711
-25.17003332
-31.11988774
-39.04494686
-44.20011339
-42.32406913
-33.81386995
-21.85701061
-13.68538413
-12.74263157
-15.1779178
-13.82342504
-8.42914628
-6.959891115
-15.55795539
-30.50172717
-46.2418564
-56.17099631
-62.11055519
-58.55218406
-48.0278373
-37.72611096
-31.66439504
-22.11548801
-8.16355468
-1.24887538
-9.51009048
-20.2631365
-25.98490143
-25.91249835
-24.56139925
-18.94167445
-13.25327899
-12.73899437
-7.581203009
2.687403074
7.516301462
8.381398948
10.73274339
6.740265499
4.200054671
3.738732956
4.792672775
8.338685187
15.61566382
22.7254233
15.68866096
8.595111488
7.98465616
10.79351203
14.8506224
15.34690034
10.00854308
6.709349782
9.278325743
14.00943801
10.47251165
8.328933853
9.656532891
11.72213156
9.705945217
8.263588327
7.511546857
10.87360742
9.974578585
0.641669899
11.74349595
12.38537527
13.85915806
15.52631162
13.32476778
12.62753889
10.91360059
11.82732797
)


100
(
0.0179145129
33.59669211
16.43402296
5.123815868
-0.4674594781
-2.965435238
-4.043338465
-4.496432293
-4.296388696
-3.473927306
-2.230668069
-0.5841703689
0.4617566746
-0.3460769314
-0.5547851975
2.07994439
2.157980283
-2.231282389
-2.885777682
1.769080198
1.664772009
-5.454086944
-10.19817912
-8.019936014
-9.285732554
-18.37165665
-30.58791118
-39.65461949
-40.42824401
-36.82659818
-31.68202407
-27.9516523
-24.51376617
-19.09673547
-10.61315714
-4.1299051
-5.640684169
-13.62472685
-22.30420255
-26.76423814
-32.03488878
-43.13770859
-57.04213498
-65.27364351
-60.89433958
-48.40249359
-31.2656215
-15.69164333
-11.27324528
-16.2348986
-19.19894705
-12.39618256
-10.07460054
-15.86786127
-21.77021006
-21.54171655
-18.81616699
-11.01682942
-1.943004467
1.663632314
1.485056295
5.059031096
13.79280269
15.706424
11.1096641
5.994823432
4.1197586
7.204134583
12.93876484
19.04428206
21.82283517
15.59063494
10.33669288
8.098851475
9.897441711
15.16960606
15.3046384
9.264742505
7.54649844
9.445940623
12.64791747
9.890965096
6.800504443
8.911045929
11.13621362
5.764237846
5.221760296
7.231700873
7.608012159
7.528827969
8.283683657
10.48219705
8.4324519
9.801149543
14.46363836
13.18890662
13.64686676
11.07428964
8.519370148
3.68108556
)


100
(
0.01608033708
29.1487843
13.63294775
4.094346363
-0.7204234713
-2.784151101
-3.919933902
-4.436387309
-4.256270931
-3.24706754
-2.235275879
-1.332933242
0.333983557
0.9865039607
-0.7448731443
-0.876623692
2.526156204
2.366445331
-2.887283421
-4.430127687
-0.009442949263
-0.2694205605
-8.4590287
-16.76430547
-20.52062004
-23.95865048
-30.0530208
-36.54848856
-38.43445688
-33.5808537
-24.48694963
-15.06336499
-10.91066569
-12.44090874
-14.79934163
-12.46709319
-9.309361884
-12.96102362
-25.66766674
-43.13171037
-59.286226
-64.37483203
-60.14458621
-48.75247084
-37.11637981
-30.1816242
-26.61494458
-17.49576781
-7.118791081
-5.236883557
-11.6819586
-17.29537525
-19.38316494
-17.29777784
-13.1904107
-8.507829505
-7.004776947
-7.155296298
0.5349995458
10.84522015
16.10891741
17.86690333
15.02749859
9.92909127
6.686259268
6.646059157
8.628513145
13.2313236
20.06682857
21.94370959
15.70141797
9.988870165
9.179666341
11.96058336
15.23713474
13.46607489
9.453077389
6.747534799
7.907119069
11.48668024
10.13639608
6.920924534
6.686026361
9.55382976
7.520475383
6.74795276
7.28765735
6.920796284
7.134054041
6.37823863
8.038552316
8.141818842
7.802768253
8.979308823
9.867311948
10.57554703
11.46709584
11.0346883
6.580903032
3.695248013
)


100
(
0.01765167919
25.91822785
11.69244285
3.133331062
-0.8708750182
-2.655645277
-3.792727178
-4.368338504
-4.211118187
-3.082908247
-1.743370428
-1.166359141
-0.6143089933
1.256338962
1.589675549
-0.9965449941
-1.256159241
2.410355093
1.965846846
-3.999963138
-7.154942217
-4.830278789
-6.81140942
-15.98503042
-26.79694247
-33.74465437
-33.92715336
-30.68146087
-26.47237388
-23.28994411
-19.77260009
-14.31292943
-7.528473496
-4.744122848
-9.367691722
-17.90785529
-25.8375105
-30.59607992
-39.12708775
-50.95370407
-60.72679688
-61.21331408
-52.17323274
-38.28309875
-22.46442783
-12.2014617
-12.31077895
-16.20827205
-15.81679413
-9.701830952
-8.344698691
-10.04772048
-11.15151189
-12.0463887
-10.30793186
-3.554546155
3.786567377
6.2374795
9.22742565
15.53626738
21.71878628
18.67745934
12.78502847
8.176620962
7.373074585
11.20744444
17.17437765
21.53482309
19.3602069
13.29096628
9.499954109
8.783179503
11.1806667
15.29446119
14.37346769
9.935721766
7.28571122
7.483530755
8.736851572
8.206288977
6.569801248
6.901789787
7.879198361
6.338093471
5.176471792
6.653804197
6.162227507
5.007363469
3.786919485
5.243669442
5.046545748
6.673708013
6.781782042
7.466083262
8.692587536
8.879165725
8.903804439
8.985607202
5.684856324
4.731581322
)


100
(
0.0203350268
22.99271756
9.894812854
2.321478952
-0.9013167338
-2.539717676
-3.655285139
-4.232900027
-4.066588002
-3.033800782
-1.443188386
-0.3851336758
-0.458364535
-0.07424375016
2.196821987
2.188251957
-1.256490209
-1.932351925
1.494941557
0.2751473701
-5.982368861
-11.67166189
-13.86351139
-17.62911766
-24.4704216
-30.82318634
-32.28624118
-27.50193976
-19.30369614
-12.14098885
-10.11533575
-11.75427878
-12.76362342
-10.89563624
-10.84594034
-18.13808872
-32.27828817
-48.53119255
-59.15812241
-60.51559393
-52.88597637
-41.66004619
-33.02318061
-27.71159215
-21.99136466
-12.60824475
-5.26133144
-5.411152623
-9.226152007
-11.74452077
-12.05200382
-8.855391782
-4.587013249
-1.61753581
-2.279536948
-1.820065668
6.88935991
16.48824243
22.66367179
23.49395344
17.33712286
11.46718917
8.817627862
9.076773811
12.05259006
16.9203151
22.1873804
20.21721909
14.44941937
10.20545548
9.691792581
11.95666729
14.38523993
12.5200037
8.200834194
6.375692728
6.888094026
8.781667366
8.627517663
6.394580715
4.481304768
5.814861044
5.403799803
3.669557846
3.806658589
4.045904723
3.187419326
3.51552398
3.423008602
3.877892447
3.484442241
5.630956101
5.189542418
6.645272157
7.977333628
8.033361337
8.126506602
7.267276761
3.80649638
0.6638879304
)


100
(
0.014999645
20.30994425
8.27494158
1.735227713
-0.9915029944
-2.440878711
-3.607790829
-4.076695638
-3.653073791
-2.799715046
-1.490648567
0.02229128877
0.5563670735
-0.2242708034
0.1901679193
2.738376517
2.238352287
-1.809758824
-3.180954562
-0.8107965548
-2.595409724
-10.35728163
-18.7720411
-24.03971511
-25.48946181
-24.85062485
-23.15864793
-20.85588951
-16.89918387
-11.22343119
-6.025645293
-5.455649165
-10.59211785
-18.39553289
-25.0228116
-30.86677138
-40.11279097
-50.97032239
-58.06710069
-56.19152652
-45.49605353
-31.12954244
-18.84125281
-13.41428552
-14.19313972
-15.07245714
-10.55297752
-4.885216671
-2.641218372
-3.188886399
-4.943194727
-7.834584218
-5.002787743
1.698871713
7.941199769
11.02007678
15.40944891
20.75740673
22.85573082
19.37453051
13.53962234
9.469336735
9.746800293
14.14357864
19.87050063
22.9251311
18.64655711
12.70061447
8.785768614
8.777716937
10.96156293
13.93530788
13.0603086
10.18812377
7.784604128
6.645566872
6.816822163
5.830165885
5.095458538
5.49060313
5.58731716
5.01160992
3.273027964
3.178961102
4.311976593
2.982369884
2.609968875
2.264429746
2.845330384
2.691282292
3.086023186
3.280713509
3.806396972
5.04955549
7.070394491
7.107036182
7.042982218
6.062771056
2.603544979
-2.383225786
)


100
(
0.01070295577
17.8389871
6.860983241
1.363864979
-1.090258167
-2.298505731
-3.530319969
-4.085511518
-3.296024837
-2.146731278
-1.297530042
-0.1890198041
1.158595418
1.149516485
-0.1596293712
0.2299918068
2.710293845
1.792893113
-2.72351431
-5.496962977
-5.713972708
-9.139951674
-16.43322226
-23.06389455
-25.08225404
-21.74682881
-15.99388532
-11.56896446
-10.46496952
-10.91184927
-10.22939837
-8.495330019
-9.963143897
-18.24963962
-32.0436351
-46.80160916
-54.00157827
-53.72705122
-47.44663646
-39.91222328
-33.06149291
-26.74741633
-18.64414641
-10.18187487
-5.119773597
-5.087979207
-6.611496664
-7.476812015
-5.180356156
-1.832619071
0.9699370165
1.61511336
-0.3837216224
2.008323194
11.81274878
20.94478067
26.03139019
24.36387975
17.62579287
12.27394141
9.760304777
9.801829037
12.90872269
17.55573696
21.79463023
19.07744888
13.84407146
10.44111753
9.988080345
11.58666153
13.2031979
12.09067119
7.346781512
5.762073704
6.446316541
7.423045866
7.568860572
7.063441992
4.454775211
2.667881613
3.699712546
2.043670709
1.449241952
2.366052289
1.836800995
1.226567415
1.759336493
2.312579159
2.531434878
2.824994696
3.037035817
3.216771619
4.155528799
5.909239483
6.336897573
5.888847966
5.70634654
4.914185194
0.1055365562
-4.350716953
)


100
(
0.01293216827
15.82597489
5.8890842
1.026277175
-1.156095188
-2.246975481
-3.348893209
-4.036651799
-3.269595071
-1.644665965
-0.6278681381
-0.1755094476
0.726372794
2.015477319
1.647637257
-0.07254693672
0.0457881058
2.039934321
0.4786758715
-4.836298348
-9.668261375
-12.77014587
-15.64343978
-18.4976663
-19.61630686
-17.88780869
-13.54309362
-8.520861694
-5.324864523
-6.009597971
-10.08018518
-15.68827561
-19.91447843
-25.44793688
-34.99267319
-46.59301208
-53.83479054
-51.02390118
-40.56634737
-28.18646921
-19.37358437
-15.85754848
-15.02615795
-13.03411481
-6.594328182
-0.80911283
1.734810439
0.4996681081
-2.067772075
-4.912823852
-0.6866204852
5.399473893
9.898184973
12.42706683
16.76085334
23.00449955
24.36895096
20.52449968
14.62636239
10.84921741
11.34621441
15.16456892
19.71117695
21.70234846
17.71672715
11.77507367
7.622288787
7.720554628
9.630283881
12.00874682
11.95031651
10.21672286
8.307480772
6.49100042
6.128295366
6.326539273
4.580018108
4.975316893
5.537334009
4.358168024
3.010489272
2.047799914
2.584815386
3.115310491
2.201880443
2.008420576
1.471262592
1.4095348
1.605026621
1.675430141
1.989800565
2.181678986
3.555903493
5.64727079
6.062676852
4.992317218
4.543819838
3.884327663
-4.093365381
-10.1810998
)


100
(
0.01507808519
14.20289104
5.016886863
0.7451841609
-1.117841377
-2.236439152
-3.154202379
-3.699311983
-3.235543284
-1.716701809
-0.1782576909