/*--------------------------------*- C++ -*----------------------------------*\
| =========                 |                                                 |
| \\      /  F ield         | OpenFOAM: The Open Source CFD Toolbox           |
|  \\    /   O peration     | Version:  2.3.1                                 |
|   \\  /    A nd           | Web:      www.OpenFOAM.org                      |
|    \\/     M anipulation  |                                                 |
\*---------------------------------------------------------------------------*/
FoamFile
{
    version     2.0;
    format      ascii;
    class       dictionary;
    location    "constant";
    object      la_i15;
}
// * * * * * * * * * * * * * * * * * * * * * * * * * * * * * * * * * * * * * //

la_i15_table
100
(

100
(
0.1490982585
-7.829742225e-06
-0.007689562336
-0.05134183571
0.3198700045
0.8662565618
-0.371852061
0.01075861699
0.2084123732
-0.003077142306
-0.01596921158
-0.02525427885
0.008117328913
0.02997332257
-0.000445799437
0.009239145058
-0.0433658339
0.08043411549
-0.07277539674
0.06760413735
-0.06868720396
0.05976040999
-0.03535616234
-0.0005704500276
0.0640832737
-0.06163928331
0.01445919509
0.04390850297
-0.03708616595
-0.01401658824
-0.004787481343
-0.03817962506
0.07882718554
-0.0267536246
-0.08685041634
0.1403404494
-0.05673817164
0.0372125622
0.1096862956
-0.254587422
0.1077215618
-0.1299598107
0.1761135579
0.1006898527
-0.1548020504
-0.1826846395
0.4627052086
-0.2362549559
0.03543672385
0.1328022432
-0.1133333671
0.1868629718
-0.1135748367
0.07578083253
0.05313097788
-0.1469025764
0.1803311503
-0.1025159362
0.1259638029
-0.1157293827
-0.02306491328
0.003506524315
-0.004939868144
0.1357319352
-0.01687964823
-0.1800977209
-0.01041321674
0.06649179212
0.003301760127
-0.02581232327
0.02078589322
0.3323824681
0.5814597038
-0.05112810056
-0.4500386925
0.06461024109
0.3363490149
0.3186981112
-0.07297823481
-0.07716941289
0.2402470982
0.1056025187
-0.4013811488
0.2720810123
-0.06772623436
0.118349273
0.009058033722
-0.1068293769
0.05119211421
-0.2435905132
0.2334127696
0.1187440726
-0.04132273595
0.02935645794
0.01731960692
0.002450219235
0.03414928603
0.04550705303
0.02290512072
-6.970671719e-05
)


100
(
0.1453801764
-21.76115714
-31.86231743
-35.00960914
-36.86698955
-40.03309775
-33.87892334
-35.73446981
-30.1475964
-30.03046449
-26.94019346
-23.88992568
-22.60774374
-18.04594345
-14.73343471
-12.4341645
-8.046924528
-4.214319702
-2.646450196
0.5503896269
3.556536812
4.812076352
6.127554001
7.853530357
9.246686031
10.05901558
11.31557966
12.11960064
12.43949958
12.54800518
13.23816054
14.01223592
14.86347306
15.29165084
15.18636029
14.38657038
13.64481774
13.72734355
14.31948124
14.98078038
16.00373398
17.6494497
18.43277895
17.95936518
16.93311855
16.53542271
15.36124197
14.12970112
13.54915418
15.41828224
18.34357953
19.61431802
21.15994769
24.27750282
25.95975197
26.95074451
30.00286802
41.41939761
64.51567998
54.51132827
-67.36785791
-13.40244029
97.42722029
41.80087643
-60.80579674
-9.355142144
84.95948237
-11.09776704
-37.4622905
15.47934229
38.82175393
-28.63909519
-8.209627657
63.37226235
-13.13947924
-52.12241537
76.08950955
-4.916791611
-43.72047415
61.38340448
-26.29934749
5.843408344
27.30916995
-30.51108918
30.99937602
-2.254031206
-7.538765689
17.36588508
-9.991330836
11.12162864
0.3253557057
7.136767544
2.615944318
5.513793417
3.38983956
5.548591217
4.991056321
3.93489224
1.981392526
0.6071510909
)


100
(
0.1323400515
-13.86499992
-18.08267632
-17.17551548
-19.61894775
-17.19627108
-14.15252649
-10.61721137
-7.94614242
-4.129921674
-2.341882297
0.8556140626
2.641411083
5.065635542
7.771252865
9.520118604
11.808626
13.66161819
15.08462207
16.67366241
18.58338253
19.79295165
20.96136717
22.0659226
22.78358311
24.14990175
26.27202548
27.92989822
28.24832076
28.78054353
30.79735007
32.57423736
34.1849658
36.64070406
40.45104696
42.55063904
42.95370698
42.97421885
46.51348179
51.42409789
53.99916532
55.77642484
59.98883698
67.30769078
72.15751583
75.76103849
77.68906911
80.76531509
84.97755646
88.51259764
91.07865905
91.04181512
78.64756088
67.52405767
53.4370279
42.47116949
41.67129988
37.53102448
36.45432751
54.88420299
38.81290072
-79.29696398
-51.48576035
21.48967327
42.30417653
-33.07480557
-18.18947803
19.56539785
-0.9118050182
-1.835822114
13.24232096
40.68363182
16.67846968
33.14859982
80.02781722
52.83564842
-74.51394895
3.39740905
42.18442794
9.067734893
56.86838194
-51.82427718
93.58577606
-40.44697799
3.638475219
42.89874049
-1.070322546
24.44928237
31.45128384
24.46999813
25.94596309
31.491005
37.40382309
23.27445005
37.07411242
40.55291889
44.08222924
28.29944825
12.90098638
5.399221842
)


100
(
0.1106615572
-7.494644654
-7.324700834
-8.415051241
-7.396869993
-3.015906153
-1.230663103
3.501428781
5.267366768
8.285570289
10.94015342
13.00978086
15.48380851
17.37661895
19.56924765
21.99737318
24.72512103
27.56804835
29.60304788
33.8213171
37.55505429
41.1126468
44.61742548
50.64163087
54.93340052
59.09596446
64.43055057
72.14573196
77.26244632
82.53574915
89.00145074
99.86425047
105.8031707
108.2989425
111.4671744
118.9632759
128.2637633
136.7217545
144.7025876
155.0736806
166.0223354
165.5991538
150.1723359
125.5418386
105.8635991
93.89494402
79.42358514
57.24757486
43.65400472
43.09430212
31.9395435
9.499386391
-3.488532626
6.269771356
6.279851422
-9.315533757
-13.04922063
5.673415684
2.615126771
-10.70569861
13.08037332
36.61781078
-22.22778912
-2.64905771
34.73678871
68.66302165
43.44585384
58.42080081
87.44387757
76.85007502
57.81412387
52.83679849
46.22719774
-24.69904896
120.7012936
130.3626722
-207.6099182
35.9521802
234.3516098
-125.1733923
1.577902431
107.6728962
-19.54528052
62.14562741
87.61522483
70.18077699
66.39825529
59.03325294
96.90360689
94.42864611
83.70887188
97.81884039
95.02848633
128.372975
133.7872945
149.6409274
141.9924216
93.71674922
46.24963027
21.18019186
)


100
(
0.09125636706
-4.52224132
-2.233702771
-1.511597901
0.7234385971
3.624820134
6.839371472
10.40966107
13.83897545
16.19802233
20.31929553
22.97151559
25.61959664
29.73437746
33.49715019
38.09884909
45.46942752
53.21035127
60.42236288
68.19952246
81.34770101
91.8885983
100.7508303
110.8008871
127.6791495
140.9660333
152.4342546
161.005215
169.4455751
176.326224
186.569727
199.9349472
213.8818449
217.5096471
206.4321647
184.304994
162.3855726
142.9855734
124.1951468
95.3590291
68.59779931
54.29554261
47.44157201
31.52256301
10.5039065
7.540219274
16.63344178
7.757257777
-11.64844545
-7.250292778
13.21695987
6.984986875
-12.07036482
-4.606512746
19.38297794
20.89819837
13.06762205
35.73735625
63.90802125
75.09119647
86.35416354
119.8967941
150.937048
127.9766575
93.87363104
57.27391469
28.09518972
61.13675082
43.51805635
10.46081456
25.39366997
106.7256638
208.9652501
68.96744515
-271.2917766
42.06749107
250.4143744
-37.62389454
6.576324718
112.2235499
156.5941742
213.4079014
113.4400383
78.27643681
117.5560832
131.8316575
205.8819456
201.3629922
231.3995842
118.1624584
219.8556704
276.6759037
255.5208793
295.6116843
323.2085995
350.9806343
281.0901622
228.836669
124.5470166
54.82842965
)


100
(
0.09101296255
-1.081296187
2.259911646
3.484356835
5.713998599
8.019096456
12.18319848
15.68330764
20.99860255
24.76372381
29.87946181
36.98450499
42.29561404
49.37374898
59.28754264
68.82722702
81.5701188
100.2071891
117.483669
132.173973
148.9590406
171.7813674
188.3880199
197.8587045
208.2940429
224.1895346
238.6083844
243.1853296
232.9583789
213.141038
189.1459704
166.3521629
142.22032
123.3757237
103.9720345
86.22931387
60.32173127
46.48039549
41.86543411
33.60578209
8.942806506
-6.413200745
1.942323951
7.246087948
-9.301233783
-21.04346685
-0.1348894001
22.50684513
11.35359326
2.55660342
30.86841489
66.81440929
73.08158845
80.28757145
115.5850543
160.8639219
202.2757827
224.8769941
174.5988224
108.9723479
82.4742685
81.69879204
50.85416785
10.13256997
23.89688312
73.4515881
80.58585958
68.96819454
118.8264876
187.3462919
257.484481
195.1164505
123.1177871
93.86115487
198.9892207
-70.8128524
164.3028878
253.1246392
365.8301808
255.1521461
147.5819067
118.0577208
251.6570773
315.4050932
331.9704726
248.8752213
332.3067979
414.6799229
222.2394876
339.1828504
381.6594151
254.2364851
300.3257836
259.3263345
239.6422006
278.7535158
282.3083954
341.3490226
262.2852055
98.26817161
)


100
(
0.1010548299
2.138741366
5.938090866
7.063089304
8.178764933
11.16763534
15.74753428
20.97318678
28.02259648
37.0035899
44.65629341
56.76251406
69.97178159
82.05632117
98.48020222
118.0696776
136.4993929
159.2624292
186.7039914
207.7590341
220.4014963
233.4115783
245.8697131
246.5725097
235.6934372
217.6540891
197.2181045
179.5323106
160.0600925
135.0235003
110.7374666
87.49968928
65.5687876
42.14231966
30.09489669
24.21704371
10.91289685
-5.801214062
-2.144508979
11.71773809
5.223604028
-13.18037871
-8.19481505
19.10836878
30.31431914
21.91903448
41.86044924
88.80675053
130.0006573
137.6266854
180.0023469
246.358497
294.4467475
275.5421644
220.0796947
150.4632762
92.66274191
88.91559544
96.4233137
62.59545238
23.36445367
43.54625957
112.0734729
168.2356053
180.3862515
257.8533837
345.9824942
303.9922393
243.9655012
193.2838537
120.6318197
108.6294949
207.2929138
236.7479781
310.8247697
468.5734687
373.9181698
324.7587318
195.3093156
202.7246026
360.2600218
458.937381
390.2136805
268.1720011
281.256439
330.9640343
252.322651
229.6121663
150.7014892
44.21266943
58.07914793
74.91632657
30.02481673
-0.8498561751
-29.68910945
-110.9633362
-56.41061626
135.963663
269.2968873
145.1522416
)


100
(
0.08656376287
5.264043841
8.967339757
9.25571717
10.14748897
14.05369419
19.23405247
28.10719645
37.44259304
51.59198336
66.5030035
82.99107695
106.4031295
127.3397646
147.9001991
173.1411831
198.2858535
217.2426664
234.3862026
249.3923008
250.047693
239.6190349
224.2511053
204.4138154
177.701296
154.5032762
126.6942299
99.02789378
76.93011377
56.20375405
39.92557695
29.9883482
22.48741545
7.197696152
-3.813467953
2.611909695
8.876942254
-2.007150957
-7.420463879
15.74553525
44.30296364
46.34530423
48.70080717
89.50061386
146.0662941
180.2918896
214.0777054
281.4927264
341.3043451
338.5239627
287.8659566
223.2257536
151.2425741
95.35005031
94.34931621
118.7002091
100.262143
71.72151089
105.7418344
188.0182196
256.9068203
286.7610643
396.7566903
495.822424
399.2094944
292.471385
283.0325625
220.1642734
154.8789353
245.0635312
351.5843612
397.6765033
531.4107784
488.4285502
344.1724617
298.5288619
199.3771564
237.1749627
328.0498309
401.2365151
267.1058675
146.1347089
108.9260805
136.3426523
100.1987031
31.94664533
-28.87499955
3.786689544
12.07499668
-8.044147432
-41.40559599
-16.26979493
9.865701583
65.6384675
38.84554128
38.12063307
15.91602493
-78.53053036
13.29716004
206.0989486
)


100
(
0.06385735674
7.549760743
10.93201414
10.86784134
11.83613957
16.48454728
23.55014749
35.2853426
50.33404364
68.76647893
94.13858892
116.4482543
143.1780175
175.2208881
198.0059033
218.6870131
238.7053045
253.2828134
246.5195262
237.9577879
221.1310213
192.1768895
163.462593
132.6964972
104.8607339
81.42451834
66.10394889
49.66449408
32.75175367
18.09392267
6.184170284
4.408790211
11.56381684
11.62490685
2.380119965
7.964216744
33.92769937
54.01616334
55.38675219
82.29028902
139.9435739
203.0972729
231.7604515
281.8193033
358.1087171
413.0813605
394.9476743
331.7839863
254.3477049
175.1204729
126.7495464
139.77732
156.6895202
132.0590293
112.346758
167.4985322
264.1499603
348.3026368
407.2891949
523.8031254
617.9992472
532.3174335
435.2433643
393.5160104
310.4702119
226.4762784
279.0795194
384.364668
443.0240495
526.3557632
579.0715324
376.2657289
243.7541042
160.6893825
68.59393904
108.5562286
161.153194
182.8698024
61.35212231
-39.94513939
-66.91035079
-6.314414006
74.96065583
42.37464539
65.18749664
71.56399313
177.2191216
32.28652402
186.5186608
291.5978476
344.6788245
339.7583043
350.9296259
331.7291509
368.1917121
251.3832291
251.4183178
146.7545832
41.48655108
256.2908366
)


100
(
0.05270636196
8.78156029
12.22134214
12.24013375
13.64804384
18.87879906
29.53524556
43.8254708
66.56750826
89.79858948
119.2327148
153.4876279
179.5846753
207.9245349
231.6502171
241.0544842
243.557972
237.1008612
213.9826493
187.6756345
160.1133622
130.9100321
98.50143514
74.25053141
51.59908757
36.38761723
29.44804611
26.92028071
21.5791368
12.51278928
4.179936305
4.491491544
21.36760981
47.73910921
60.76291707
68.92856534
109.8112083
171.5697894
227.2702849
268.211661
336.4436615
416.6936609
464.6669711
437.2054954
373.185412
299.7313029
237.3298948
210.7923851
212.4215035
193.4994859
156.2852167
162.2293789
241.8253226
346.2146896
429.2371531
496.9148236
618.4281491
712.4235443
642.9317955
521.3794151
462.0558934
379.7019696
297.4791364
317.1083137
382.9477303
393.7622576
404.7513984
477.9031464
395.3459164
209.0603562
70.33918357
-63.40240219
-119.7685778
-58.37277197
9.928212571
58.61063653
-15.69243446
-75.92464481
-48.9492469
57.88775637
179.8843285
193.8452282
204.3859885
195.9199677
297.5711213
292.0326271
255.0390709
285.9395839
286.836248
261.7632935
226.9878654
269.0636372
333.1657643
337.9712075
712.8183599
264.6008875
426.122283
305.2377209
292.2552604
387.5975745
)


100
(
0.04893681555
9.974210644
13.25871984
13.41005919
15.15283603
21.60427721
35.57999807
54.3993974
80.95420085
113.6854773
144.5733619
178.7230287
207.7599339
226.004995
236.936575
231.6285705
216.9471116
195.4927318
165.1063971
127.335691
98.2895645
75.11391765
57.14918827
40.35059748
27.21481963
17.51089846
15.62539347
22.41450685
32.4076807
35.392787
27.12321203
37.79179947
64.40946166
124.5950354
188.9451504
235.6413045
291.4909511
366.404615
443.7714189
496.2027186
491.6949988
435.7846752
363.1583277
302.2819008
272.4310212
256.6487201
221.5868928
197.8642203
236.2660612
322.5016672
411.3552406
467.127542
542.5728109
660.2072258
768.3782145
774.0378625
679.7854526
565.8794339
425.9488345
303.5671531
276.2623326
290.253878
271.2196919
258.331938
306.1589333
313.9634944
136.2325927
-11.09626029
-137.0509077
-223.6701126
-184.4902276
-96.84081697
-22.78601593
85.1301149
35.58857281
-14.26745772
65.55115024
183.1735526
293.0102814
323.7517896
279.3706857
237.5819492
308.6791013
451.7600915
333.0492314
405.4358916
397.9690849
475.8732792
481.1953898
524.5803538
607.5275965
574.1781269
562.8028935
718.5336863
647.5447603
372.3038236
532.6493143
417.5062737
341.3537821
377.4382209
)


100
(
0.05049227
10.93990603
13.97559377
14.42110647
16.58683647
25.11835358
41.19584734
67.24107671
96.20108043
132.2611089
166.3150299
195.2804237
217.0340442
224.4558894
220.0794385
202.6049643
169.6168851
140.8327376
113.1173078
85.58050332
56.77655894
38.94094788
29.82535751
26.92226899
25.0009607
24.27617953
27.07935448
39.70339258
64.58747205
97.62475867
129.0745294
147.623178
141.2813257
255.7370508
362.2159398
454.0918588
512.7333291
538.033702
507.9289734
454.4754761
406.5661958
366.1792744
313.3813435
259.0622911
246.5075717
294.4247495
367.6812088
420.058385
468.5960348
566.3861004
691.1654213
802.8786393
853.9398461
776.354966
629.8076995
470.2703657
339.4949713
266.2768455
205.9724606
121.2858265
75.18881262
100.3325099
124.6635115
72.85324106
-61.22700063
-179.790241
-264.4738608
-227.6004889
-113.0232337
-62.66416999
95.57265386
198.2768253
128.6336852
112.151003
162.8393375
230.2793024
283.5002469
360.9184363
310.6003962
243.4381059
312.8447672
442.3443609
417.9452005
416.8675264
362.6884963
504.6408168
400.5072909
443.157221
517.4307932
517.8068282
498.4552331
561.8536504
544.3518132
594.113108
269.1238048
431.5808706
588.0753033
493.0768278
387.8921474
82.63663824
)


100
(
0.04441590704
11.68951205
14.36375768
14.99575901
17.96968355
28.58992162
47.03194582
76.66906611
111.4155356
146.212654
178.6433587
200.2071273
211.1649731
205.7158681
186.7219353
162.1428915
131.0978516
94.37281188
69.1354092
52.71861888
40.01893371
26.88929465
20.49339429
24.00586167
35.00224731
49.37687697
69.75381739
96.25392209
136.5520449
195.5454752
268.4973392
348.2936632
408.5440532
469.1009272
535.9214876
556.445211
533.1558513
492.9805363
447.4268182
383.4938755
334.7484748
330.4068391
363.1112648
390.5646609
408.0999223
460.3620122
565.3201365
686.5115261
790.79031
849.1242851
837.9646578
718.6127576
552.6781547
389.0940514
241.3642967
107.5368843
-5.411159561
-64.68436569
-64.87245063
-44.78310372
-30.32934557
-65.46425627
-134.9008484
-204.3758662
-209.2369403
-140.2197972
-109.1006148
16.40161523
203.0074533
325.4658947
297.0458913
280.1039274
248.5441628
240.0233565
312.585888
437.3217764
356.4099455
207.4590055
285.1111104
424.4341104
520.7267095
474.6586376
366.986926
415.1071015
581.9185287
478.9945918
402.4174507
485.749282
447.9604564
436.8950257
457.5841386
462.5963722
427.8226555
343.639372
225.0402227
552.6521792
489.5620537
541.0019168
432.914283
499.0265487
)


100
(
0.03629893177
12.01266751
14.32774349
15.35049342
19.47703753
31.19547591
53.4378565
84.20318671
123.1888864
156.3326635
181.3114762
192.669632
192.2178905
178.9642062
150.9214871
120.0396098
94.18477104
70.34018691
45.7470923
31.68989708
28.9845442
30.33499519
31.34822165
39.17736766
58.97431529
92.17390256
135.9596101
193.0813801
264.8124772
340.8651103
426.224917
504.9611725
560.1616592
582.2390161
573.0867128
537.5886631
479.5637457
427.2024251
403.1187166
402.9931646
399.5803031
408.8997361
464.0497595
554.9337349
655.5585397
733.5818943
798.3868895
839.3860299
804.3256934
667.4396694
480.334805
288.1450051
103.2822944
-50.83302499
-153.0686445
-203.1236308
-199.46222
-202.8057645
-131.6902759
-85.74164442
-116.6855709
-128.4463581
-114.7909785
-109.9391091
-49.34157513
99.3403306
251.627713
350.5237105
318.3654216
249.5565413
180.1041572
181.9785885
291.3759684
412.7452202
459.2925064
402.0392122
401.0451925
358.5202642
359.9783921
536.3157444
423.5379735
370.7916519
508.9735328
590.5248749
468.9209986
339.8359334
506.0459038
462.0463588
395.2576684
391.3043607
424.7904364
168.8080993
311.2144246
448.401
152.154921
520.1934984
487.1821671
530.3810226
459.415526
-204.3954087
)


100
(
0.03548058058
12.02047592
14.08905787
15.41573598
20.66949264
33.52962606
58.47063824
90.7280303
127.6736518
160.3081163
178.3603079
179.80042
165.2593635
146.2566475
120.9430728
89.00877749
63.27635326
49.17354939
39.57529128
28.92963623
26.39741168
36.62672788
54.0070763
75.49564605
111.8677788
161.6006947
230.175768
312.5781975
403.6411663
496.8177306
565.5753601
607.2407867
610.9762287
582.0377702
536.7208022
495.9081738
462.6148168
433.5155041
431.7520928
468.8942555
530.9685432
590.5772165
644.2200693
717.4690104
790.594815
824.3886147
776.0489454
627.9038863
423.3745229
196.0323322
-14.47748955
-174.3812193
-271.8170215
-346.0396767
-344.1924672
-260.6416287
-143.9067595
-44.79879574
-18.30091509
-40.49249551
-58.35212374
-63.43424774
19.16368822
136.1358679
210.4963882
326.5925044
364.3340121
273.978946
177.8869774
183.5136687
252.0550856
336.6260315
390.0327632
387.5564282
337.715659
284.0578634
342.1536877
463.1296955
477.8575325
386.4259569
417.9322785
424.2000326
570.897641
393.0738778
367.8439517
468.7996802
530.9977763
526.5636612
498.5837492
416.4800383
319.3265711
-2006.845282
302.4248422
246.5496118
-196.6372686
396.3796524
458.515056
512.3106065
527.3365824
428.3605914
)


100
(
0.03250829713
11.92111495
13.64768548
15.31145997
21.2713473
35.94785955
61.43388013
96.30539716
129.5889616
156.1812666
167.8339932
163.0456997
142.4489796
113.899146
91.50483456
70.94064233
48.22893639
33.60471654
32.84233316
36.79475609
39.97302438
53.65631766
83.40157489
128.3356318
185.4763384
262.3353382
352.2434233
443.2187531
527.9035374
591.9335884
623.7465987
618.6478505
591.1054385
548.091788
508.5002392
487.5188053
492.5564545
514.3891579
538.3119986
579.9515123
646.1974563
716.1439055
768.0031328
765.8460215
703.6399785
571.3749994
382.7214103
153.1577904
-75.75050371
-282.7249464
-410.0099064
-463.3754204
-413.8155548
-295.993785
-142.3495319
-46.93489344
30.56797224
37.72671318
7.541880412
36.65021811
61.4635843
83.41265154
179.7936586
315.8615363
397.6641915
356.2496562
293.2518151
231.5097589
189.8442245
213.5307415
333.0618365
433.6203189
340.1349297
217.1177209
257.6775946
366.7111364
468.1578058
484.1857774
398.8714233
282.7617997
396.6936627
514.5839934
384.3229198
299.5030252
284.9836927
371.5974485
301.2487966
285.1620576
331.8937265
336.1205215
445.7792019
-48.20063853
-280.7762249
-170.5725027
-157.6777869
240.0558254
339.386367
435.8996333
623.51561
889.7808261
)


100
(
0.02884151547
11.70296098
13.04153961
14.96578849
21.52817628
38.02525327
63.83208067
97.7916743
129.1251163
148.7857585
151.5030512
140.5239258
120.3899831
92.22345862
66.25140979
53.31072665
44.90126197
33.4999144
30.1590434
42.76208653
63.40747679
88.38813446
133.1772763
195.2726347
277.7740305
372.5746668
473.0677528
564.5942574
617.1424349
639.6644905
632.848602
602.9918287
561.9699251
535.1879462
521.6542333
526.8746355
553.6562292
595.7521413
647.8928498
687.5499824
711.5501807
714.0279801
666.6239096
542.2582126
333.6919691
81.03457889
-149.1460397
-330.5896687
-456.7635855
-501.6722788
-455.0260775
-402.5196523
-245.0017329
-53.60903074
95.28351892
136.4599346
132.4822782
78.34537319
34.54639792
61.29241254
167.8582162
293.0293321
362.0921353
412.8090695
349.696907
232.0367554
165.9053792
201.3688101
294.1859921
371.8862667
394.2752042
353.3456828
281.0359205
227.3601803
265.2611967
405.370192
436.2248928
318.6898132
341.0438928
410.511592
428.5046615
382.5810301
205.9009023
266.1741697
274.1966077
207.9475196
170.149567
113.4160253
54.03683919
78.7094175
90.17658351
2383.668036
-253.9197529
-251.6263467
-198.9645328
-1.658297201
126.376986
255.9437159
591.8451862
760.4972085
)


100
(
0.02575080982
11.37749087
12.34562859
14.43898304
21.6810289
38.63299187
65.95202044
97.57973243
125.1312746
139.0193008
135.6536073
115.9080558
96.08559266
75.85779539
53.35943988
38.01544625
37.80588998
41.57981202
42.23555879
54.6046182
87.11600329
136.1010233
197.5768383
281.720195
380.2169607
479.6306597
569.0175802
631.9109867
653.5316236
637.5337212
609.0111466
583.4777102
565.6564708
557.0206582
568.6050986
592.8090268
622.7210558
658.2948741
682.3421091
676.6395892
621.8798502
492.3779514
315.0793054
104.6447239
-122.813428
-350.6954466
-501.7658486
-605.4092787
-577.4995321
-458.371779
-279.4999597
-82.82573307
76.26689553
140.9372681
158.543896
131.5472807
103.3460759
109.1890501
113.9270845
156.5271803
285.3469185
386.553147
386.0511783
329.9281953
277.9821503
235.6659395
229.024053
279.3501067
370.3516416
397.8623663
291.4233919
172.2205465
194.957501
303.2030244
379.011116
380.0899071
328.942251
263.976342
307.8291778
403.2556917
245.8393092
212.8812506
225.9076182
255.573792
211.497784
100.5486498
9.816375954
-27.37720502
-156.3998992
-242.0333935
-342.9384763
-153.7033636
-668.8191513
-990.0160654
-782.4244758
-329.7439846
-150.4686428
26.9314873
504.1472597
835.8369033
)


100
(
0.02569174304
10.93568797
11.60785442
13.76019541
21.83754661
38.79495787
66.48098494
96.34928303
118.7361592
126.1317783
119.5999597
99.33101675
73.57611096
58.76720735
47.97427734
35.240602
30.79152085
43.13963766
61.77759003
82.02234586
122.6910664
186.7303669
272.7988159
370.6226961
474.1802525
567.2263031
624.5969509
653.7170856
654.8650733
629.6142514
592.7288474
578.0100074
582.9071111
601.4936944
620.27009
633.2846384
646.8597313
637.7779667
600.934269
506.4160494
345.9882388
118.8984655
-136.0035
-379.0632539
-518.8438604
-600.3601891
-597.1100095
-514.7231816
-350.0999844
-212.4561012
-5.890757845
144.8407854
194.0557485
174.7683201
121.7324869
75.86951475
69.75090294
132.2328657
228.770904
327.9039854
376.5157734
342.4100008
246.0654423
159.0042332
139.8450976
199.4514881
296.7444304
356.067581
342.0950203
296.4502952
231.9142221
179.4124042
201.6944361
305.978582
292.3877427
154.4762308
135.3971268
258.3118228
352.1344716
273.6111137
47.91541169
-49.86716063
81.86895064
16.70390984
-94.3131536
-219.1079874
-333.6062204
-449.5654614
-530.6576569
-713.9786761
-901.4377405
-1128.309191
-1479.343178
-1752.008523
-1424.143019
-763.0054618
-481.2101757
-258.7338654
278.3754705
905.4273829
)


100
(
0.0280006623
10.43823943
10.83769476
13.02354647
21.39573446
38.91089762
65.20116226
93.40921246
111.4508153
113.5110107
102.3511416
84.79238291
62.37542762
43.72432927
39.70321506
39.66598853
36.59206281
44.83547331
74.42167211
119.2674499
169.9280916
248.1325262
346.8543743
452.0521055
548.1549465
618.0134362
647.0621372
641.8140375
628.1475518
620.348206
611.2326058
599.3150377
604.2197187
621.0189203
635.8919469
627.6809666
581.4446464
496.473299
353.9562535
157.6815656
-63.19512071
-277.1992282
-484.7040834
-607.6504102
-655.4585882
-613.9128345
-479.5114572
-282.0183845
-94.23940984
69.46926552
161.5901934
178.198307
166.4703355
128.1197933
89.10860183
86.88687013
110.7577873
187.1142031
285.0535733
324.2095835
277.5690708
194.3861735
131.9827751
116.0699099
141.1111428
206.9825854
265.6045028
240.9952192
140.4190652
62.70731898
80.21882655
156.5036135
208.2139465
200.3170186
129.6970524
16.56195518
-37.68748294
85.9972148
106.0303579
8.937237869
-84.24465382
-221.9426633
-219.577658
-344.4876617
-484.3042362
-646.5993214
-760.6143624
-944.2776602
-1119.05835
-1291.636496
-1498.886743
-1941.867425
-2086.026895
-2743.957417
-2053.177302
-1301.743868
-946.5648933
-617.2168533
-68.50746485
274.1757804
)


100
(
0.02146859994
9.917556209
10.04452277
12.30050403
20.6749946
39.0001604
63.74944907
88.37844789
102.4937657
101.2924603
87.10780345
70.12920266
54.7419053
39.02519331
30.752006
37.46948618
48.37742159
59.14806604
88.70684077
144.0942964
220.4135434
310.1618891
413.2803936
514.5762742
589.4635435
637.4687592
654.4132895
638.4348259
609.2279088
603.4000478
618.3478634
632.7587097
626.1227635
603.5154353
569.769633
508.3269985
402.7101287
239.671801
27.4907324
-218.882744
-457.4992009
-621.0624378
-669.6848422
-655.1883254
-557.7182146
-390.8781515
-232.5841556
-59.1026895
98.52778999
180.134507
181.3731834
137.3459051
85.78508645
72.84699031
90.37363027
132.8186741
189.5257072
239.0532595
243.5426745
189.9500239
105.4512829
44.10448767
40.68685482
89.72859651
156.6950239
185.0036486
143.3348164
56.34958097
-15.54070592
-56.21914345
-39.57425122
12.3485702
-16.58890212
-101.9266458
-156.3703759
-147.186424
-138.9672895
-131.897598
-208.5461293
-324.5531555
-369.2740267
-476.3792396
-629.181735
-807.264329
-1008.038945
-1185.565012
-1382.129203
-1518.414181
-1744.676703
-1983.865013
-2305.298375
-2749.232813
-3112.506565
-3681.161875
-2736.059633
-1950.747703
-1583.670598
-1141.701527
-474.6923033
300.1285032
)


100
(
0.0161816835
9.360093295
9.264199525
11.53370397
19.81520131
37.7037229
62.19032862
83.37552055
92.51698744
88.77990778
74.86512648
56.97600733
45.98960522
39.3220423
32.01964735
33.37434583
51.57920317
79.06120563
114.4917327
175.6276857
262.8565764
364.9993313
466.8283434
552.5325364
605.0857721
624.91768
632.7540798
638.1775741
629.4544265
609.2848236
605.0870866
612.579137
604.9675119
550.0003831
441.3911418
291.6179277
90.87165942
-122.7176462
-328.7003173
-508.1397468
-659.3642558
-689.4907072
-685.1563102
-550.9620372
-367.6729728
-180.3643798
-20.83967548
103.794436
146.1929872
152.1643013
139.7166759
100.8945836
61.10781013
65.0395824
99.25565045
172.5267231
217.9222198
204.4911034
141.1334974
54.9350089
-14.33005016
-29.57587985
4.32108538
67.14961419
94.06018695
41.17913042
-58.43506687
-133.9238814
-160.9977088
-149.3090048
-137.8785296
-167.9730289
-265.683566
-376.4063012
-439.3661636
-427.8100931
-434.5962501
-487.3979159
-537.1209807
-606.0347364
-699.545613
-837.5325662
-1056.163708
-1306.988593
-1508.652592
-1722.993789
-2004.682976
-2277.804753
-2502.471794
-2816.641136
-3104.099069
-3574.297701
-4036.880091
-4692.316375
-3510.23174
-2669.729663
-2342.774558
-1813.483319
-841.4925829
251.386958
)


100
(
0.01876094283
8.795934777
8.527150589
10.78381758
19.09771415
35.93985365
59.52321883
78.52942749
83.96923643
76.27947504
63.98557549
48.7419366
36.74894289
35.85950534
38.93877428
40.62031933
54.31193794
89.70751291
143.1437758
212.3318668
303.7262977
407.2010999
500.0107894
573.0047513
614.7007974
618.8287786
606.1170242
611.589543
636.1140067
641.327838
602.2840865
552.2106246
488.0397678
395.3595255
244.099567
35.82687682
-212.3020044
-444.2592228
-651.1163369
-718.4096929
-705.3746477
-629.2781256
-498.719098
-318.3415572
-185.5419921
-21.04795389
100.7379145
158.8806963
144.1878853
90.60690841
46.15332027
49.04408583
65.0753616
88.63287295
134.6531419
162.3965153
150.6188141
81.85369661
4.382071084
-45.28530182
-61.18231343
-45.04393826
-8.858657051
10.12878891
-25.63079286
-130.9191082
-231.0735922
-285.9708125
-290.7128456
-287.1240992
-327.6587299
-394.9193036
-503.4347445
-600.8900012
-664.1786417
-678.4912921
-731.9525686
-845.943984
-973.7288006
-1061.691426
-1168.751804
-1359.095528
-1625.808609
-1910.07085
-2159.959185
-2433.564327
-2671.515727
-2982.271804
-3318.784183
-3626.387293
-4021.398544
-4552.523853
-5190.188533
-5455.712232
-4397.97845
-3501.318306
-3115.98071
-2582.99387
-1190.458392
-145.935302
)


100
(
0.02167246921
8.237065303
7.793573116
10.07166156
18.21527898
34.14871093
55.51532277
72.64031632
76.19462398
67.25049525
54.09591664
42.94451824
32.86850667
29.39045214
38.47477917
52.23182535
67.76935059
101.331611
162.2620977
245.3303482
341.0462281
437.5807397
516.8149108
567.1386541
600.7458591
620.2372885
615.1930916
598.7657498
610.0914043
643.4610157
590.5548778
492.4354605
341.8599851
159.5107858
-59.18225234
-273.3379325
-476.8668883
-651.9074346
-746.6881794
-737.0733429
-658.5287172
-483.0749352
-285.9018537
-135.5617354
-20.4761585
60.52935647
109.1528246
145.6994561
145.582931
87.43929611
18.42189324
-0.8397082815
29.74321887
86.81411781
114.189373
102.0339432
46.16434026
-43.50807613
-117.0227764
-141.5209056
-116.9810111
-77.72959748
-73.69866177
-125.9404273
-203.375613
-284.7747235
-360.8709488
-405.2528446
-420.8935755
-446.5500975
-524.3204104
-639.5518731
-747.47174
-850.9624621
-919.2608324
-956.9362966