/*--------------------------------*- C++ -*----------------------------------*\
| =========                 |                                                 |
| \\      /  F ield         | OpenFOAM: The Open Source CFD Toolbox           |
|  \\    /   O peration     | Version:  2.3.1                                 |
|   \\  /    A nd           | Web:      www.OpenFOAM.org                      |
|    \\/     M anipulation  |                                                 |
\*---------------------------------------------------------------------------*/
FoamFile
{
    version     2.0;
    format      ascii;
    class       dictionary;
    location    "constant";
    object      la_i13;
}
// * * * * * * * * * * * * * * * * * * * * * * * * * * * * * * * * * * * * * //

la_i13_table
100
(

100
(
-33.55921599
2.340595229
9.010659741
106.165379
-74.69658128
-1429.069483
1289.927267
-10.21591495
-606.614799
56.49987151
212.7035928
265.8510989
-593.7110958
264.0539785
-29.53499141
95.04144203
-282.6782144
508.5176667
-470.4233503
364.9866
-329.3206432
261.2469943
-163.8984604
-7.567674596
284.7585221
-268.1728717
58.04287492
178.1759125
-132.2834636
-52.55880363
-14.92416274
-124.0072702
260.2907943
-90.89061655
-272.241067
415.3433727
-183.0049679
116.5018811
588.6662626
-962.1087926
274.0572545
-365.4189703
492.1683961
388.6465248
-587.7780075
-513.6393038
1616.143405
-1020.731627
42.74718615
447.7593626
-463.2456777
648.0440752
-471.9402159
247.7334176
205.5111024
-855.490033
1044.271718
-623.5802826
517.2447805
-195.6080613
-39.77605977
-22.91686094
-20.4364329
26.63867168
-49.44848445
-77.41699244
19.68013155
147.9133711
-41.22220957
-94.29892782
35.0353812
96.19271867
41.62130904
-8.727206603
-84.2906468
16.13299613
61.95434733
48.70601308
-11.10721068
-12.58276392
44.21554969
24.63412031
-118.611475
67.73206041
-20.89655453
34.80265508
2.990537471
-47.16028348
19.33238149
-126.5126705
106.8202215
72.39124717
-25.99060699
17.66262539
12.61985022
1.535809598
42.30433615
22.7902587
-35.77816676
0.03616105308
)


100
(
-31.20460684
799.5370013
199.6804012
251.0963463
417.4547596
447.3754264
382.1691883
383.3223322
425.6388296
426.0745261
491.6832789
342.0554678
414.8786962
546.7622997
336.1014313
400.1010553
545.1760703
462.9648869
494.3371061
523.0461322
435.1090598
535.9048644
647.0587456
567.2118586
472.5242079
579.7754861
584.6185969
745.3083243
1244.472958
1279.106757
863.9181259
574.4086514
668.4647974
817.127126
560.3508381
644.47555
1658.150319
2091.012664
1232.661146
457.0115556
972.1439083
1748.947887
1314.329623
699.1382506
876.6604015
1548.75154
1073.504785
346.7844703
712.3908979
2401.778914
2566.459848
1205.223602
784.5467479
1643.848113
2026.532009
1240.018298
949.7512783
1200.850629
1171.863139
223.9085066
-1670.048922
2080.637323
4289.197169
-887.4267948
-3008.093901
2924.888411
5007.883099
-4347.356965
-555.3781801
3544.061908
1058.985606
-4095.847686
2740.471011
4331.999433
-3881.092054
-1400.575289
6246.839868
-2855.046567
-1876.906693
5656.933317
-3907.656983
1638.420506
2340.862045
-3852.271818
4735.133399
-1392.328487
-100.0218955
1936.863917
-1467.084437
1496.569291
-422.9089174
482.4548133
-458.5877174
159.9694069
-198.8603782
106.567412
-108.0997135
-122.5559989
136.9886839
-76.99078702
)


100
(
-26.20170723
734.1612658
-114.7813356
-98.92889259
265.0974171
380.620806
327.8917685
281.2120822
379.0242379
355.0605686
538.6738418
336.1615118
195.2736966
613.788534
470.0391329
254.7857758
514.1291548
591.0444691
557.8147369
622.6730462
538.0293325
544.6448465
754.145256
814.5994255
710.0421646
735.7441651
707.3986831
501.1241819
751.7439618
1427.170195
1662.545074
1195.209925
823.8737095
972.6676656
978.2542098
601.4241806
467.0141402
1278.966645
2478.386934
2405.541701
1381.597071
996.2311554
1651.307766
2446.740867
1904.721424
1390.012287
1336.608601
1735.455623
1607.682538
972.6167678
715.7237466
1871.505487
3587.196167
1992.641256
44.92310605
-229.2578271
2902.0403
1212.426932
-854.5366943
-1495.566426
247.376925
-3002.511684
-158.7850132
2584.53248
202.0745697
-3988.785577
330.4235354
3866.184542
-2878.649661
-1308.096071
1471.088104
3550.665218
-1376.424113
414.2920801
4252.450738
2595.950564
-5626.569701
527.2414044
4483.670215
-1667.849206
3097.859706
-2670.961718
5530.409616
-2829.574786
-50.86318633
2593.571897
-1147.807362
548.9391122
693.6162646
-446.7388479
-401.0429356
-299.1147548
63.86687504
-346.8417441
107.5263905
70.5618677
401.0330111
370.0956559
-213.725378
-46.69743633
)


100
(
-19.58279627
756.5111925
-420.2559278
-371.7976216
39.81474756
275.6969655
296.3215516
216.5892017
329.0484003
281.9905083
398.6417577
420.8911069
-36.62320983
219.7617485
610.6569012
326.0297482
212.5997875
477.5253072
624.1344032
605.0434529
577.9704776
546.0063191
707.4471983
916.4465004
986.9324415
980.1960232
1027.92065
904.9967292
720.4055794
793.0368655
1383.482928
2012.639724
1953.130356
1476.448671
1173.647048
1205.370319
1168.895494
795.8025517
649.9921754
1620.78925
3188.238507
3329.381568
1706.846827
543.2066015
986.0571089
2375.761369
984.2164629
-1113.672869
-936.6175698
1544.18102
301.3823369
-1890.904214
-1414.856703
1713.622964
282.4444372
-3630.690412
-3933.374123
1947.353262
1163.557102
-2904.181637
-1979.142115
1121.327469
-1204.044092
-255.3871268
1357.454841
1662.499729
-808.4047932
592.6701282
2481.506324
3209.794961
1165.269973
456.8454039
347.1069491
675.6380877
3136.701318
2719.561496
-5595.335645
1410.270378
7603.597119
-5112.127158
-228.2361684
3586.379426
-2278.517761
1053.645817
1186.086749
809.4810799
-173.6144413
-383.5245227
-432.529409
-172.6863785
-481.5736932
-202.6613756
-119.7086003
310.4827183
87.32872814
159.9006678
-977.3050618
1221.970286
-139.6879861
-62.39351661
)


100
(
-14.83182968
824.4424588
-493.1239274
-673.2334949
-212.5504385
134.6912653
247.6383803
194.4370127
259.7396951
282.3308607
209.7577764
399.0910758
170.6720962
-180.7271641
257.6559393
593.5187702
278.4333964
153.8176333
454.1247585
648.353982
594.0510075
532.9558852
601.2383923
861.7594615
1148.918239
1304.500013
1296.315451
1279.71574
1237.374422
1103.320112
906.2322952
1177.291028
2082.221991
2681.967469
1953.42387
790.2885348
603.2156151
1106.404625
711.9722611
-667.4903513
-496.0550319
1253.162691
1366.466508
-1135.7062
-3289.107041
-1460.572014
2293.758702
-100.07193
-3514.293377
-2128.930751
1581.349501
185.4226654
-2515.309804
-1486.05887
1379.117306
-664.4911064
-4441.403746
-1570.472317
2289.12624
2435.920564
168.5051175
911.4103304
3007.564882
2861.462848
1270.337572
299.0708752
-193.5835418
891.1605221
101.8264569
-349.6668527
-243.1948605
731.8232907
2751.297668
46.78069741
-5723.970238
769.9327115
5824.930033
-2265.712825
-1298.387402
1069.697221
2372.618668
2712.094361
68.39675933
-250.2829123
-75.15559553
-1451.625275
145.2584167
-459.2362062
147.5967214
-1755.422131
-254.3101567
488.2201129
-38.30577409
265.0364297
148.4405917
99.77601137
-1383.816138
128.1885172
-118.8207514
-72.6156003
)


100
(
-14.26086253
894.1308053
-563.4378263
-913.0399861
-423.6135023
-25.98315812
139.2747488
184.0522806
192.7903556
261.6648482
203.145183
183.3304972
369.9936137
75.54638037
-211.7372589
285.2246275
589.6120131
257.2027596
128.9538306
422.1185046
617.1020004
592.3945468
576.2680966
716.2233017
1025.949621
1340.931754
1374.465891
1164.434085
997.175401
1074.528917
883.1141731
239.5408733
-90.13316289
771.8700424
1199.283776
-17.47743712
-1760.433568
-1394.351718
531.2196795
323.4682983
-1360.284363
-1092.553585
823.5374414
610.2238141
-2891.041449
-4866.635205
-732.2535174
2864.09255
-592.3230643
-3689.332896
-1290.973476
1634.968798
594.0037671
-1108.072783
-104.8429085
1762.356973
1726.218818
2634.688166
2012.787353
1798.285468
2773.015238
2790.646372
508.3860363
-1136.126108
-547.8108195
1597.86918
1412.51834
-77.47616989
75.97549251
892.1348159
2880.386306
1270.54418
87.70705784
-68.99437693
2412.657337
-3797.631717
451.0861889
931.4580828
3113.459389
1892.955202
-1112.37708
-1878.003352
1796.298283
-278.5936644
-111.1320634
-414.1625163
-1294.686492
-454.7042177
-998.1321885
439.9043334
138.5717007
14.36954607
357.4881771
258.1896479
371.6081559
510.20406
-288.7256041
-577.3974304
-58.01664643
-125.1796385
)


100
(
-15.2368086
1044.25227
-552.9901017
-1043.524849
-567.8909469
-146.1704682
12.82720999
110.2658164
158.1177212
129.2540113
234.9128241
151.4482498
172.1261463
376.0591164
10.52199576
-249.5546352
273.4907779
583.300222
312.9695013
187.0290384
418.8385073
620.2952315
661.9715301
641.5901792
728.5500984
867.8103647
784.7412083
337.3455405
-267.5184685
-346.7863358
192.8350321
257.1400383
-556.0707275
-899.2494011
142.4472586
538.0527493
-1169.93245
-2947.715166
-1588.911136
807.5842228
282.276997
-1465.353172
-1105.580882
610.4988979
-338.6434515
-3643.55079
-3312.615572
527.0818979
2883.635265
344.330765
-284.2663146
1710.741081
4112.99771
4088.700607
2396.573022
965.6332861
204.2191887
638.0221257
803.5677809
-228.348317
-1249.530343
-772.1803111
1139.131402
3205.325947
1431.4771
1127.095007
2085.599203
2008.360271
3218.584572
1467.233289
-643.3899778
-1115.730659
807.4073873
801.6074549
539.1951277
2079.970884
647.6728408
587.0004589
-1188.179073
-1267.248666
522.7454178
-155.8107206
-819.0591235
-632.3011428
-1157.747188
-955.4546986
32.1379413
-666.1270131
-933.1202028
-335.9878582
-17.48884433
-129.5527235
2.766405068
187.8683473
207.7602654
-943.2610644
637.0060038
-142.381489
-601.6454188
-71.59732195
)


100
(
-12.49076241
1264.375812
-458.0895623
-1054.736283
-648.8009817
-193.1690693
-69.50184145
-34.51064383
115.5760098
51.89418033
62.79272366
233.9282278
82.41774325
168.1142252
394.6481708
-3.307834964
-219.4056202
307.411566
650.9510923
431.0915595
196.4394469
259.092418
378.0666055
350.2377897
273.6571028
540.6853162
751.8951872
397.2129485
-590.5183808
-1470.181873
-1185.099199
-221.1877461
-37.56379196
-955.0429731
-1132.756095
-101.2129624
-32.39747527
-2081.788813
-3271.450021
-1155.126992
1011.922721
392.7940198
-1044.562252
-638.2625586
653.9245165
-56.11847176
-1004.113663
348.4898725
3198.143621
4773.927752
3818.423201
1898.251949
329.6758409
-146.8855337
1153.729228
2601.695326
1289.408649
-259.6786905
-496.7029276
355.463175
1013.025983
270.1272233
571.7484713
1684.233306
1787.276348
2540.475723
2297.147539
-289.2354457
-2286.824418
-159.7660317
2635.940476
1929.34123
2047.215343
1234.60368
696.8679281
1253.497086
-1663.979067
-1208.95622
986.5053119
1145.721751
-556.1175331
-1005.141483
-1337.696208
-1189.782505
-468.6046265
-197.2988709
-140.2983355
610.8041888
-522.7695382
551.74341
1827.599481
928.6212421
1023.233399
683.958145
769.5554467
-1485.265537
70.64473062
-229.0713653
-274.1097357
-346.4764766
)


100
(
-9.418411974
1523.799171
-252.7854436
-1007.144061
-647.1367358
-217.3606456
-83.21394711
-122.83675
-13.76463814
75.44103571
-105.6623318
65.4702007
253.2873901
34.9269089
225.9876592
495.5444131
103.1703481
-178.6292629
273.5992235
583.0798523
310.4479167
-115.9206915
-104.6506639
99.72343778
142.2053849
231.0919193
674.2783902
944.5374742
216.190427
-1352.814964
-2264.665096
-1479.281525
-170.1123187
-88.2074225
-1038.459358
-1111.188886
-104.8241661
-379.3541808
-2179.144703
-2354.811727
-57.00702801
1919.109721
1663.992386
664.0550806
1132.976375
2206.865196
2291.667312
1672.592934
930.2588361
739.7101173
1358.5968
1933.977242
1601.776535
-60.67107817
-1549.180696
-817.2875617
1117.082324
2810.143908
2544.363994
2036.328938
2101.741982
1121.607722
839.8822182
866.7044068
-153.1102366
-787.7127097
63.18681488
1759.047208
1601.235629
811.7124227
1734.064029
946.7084113
2396.184736
731.7933059
-2236.955513
-403.9696908
2209.197218
1826.593353
-12.77538073
-611.4246003
-776.6013471
-790.541115
197.6249047
-448.4971747
-1272.523266
-1330.355263
-339.1745338
135.5285642
102.6374549
-495.6611192
-1543.465818
-414.5167367
-478.8560594
64.6722297
190.5732793
-885.6253245
-155.855676
-153.5292749
-11.23623539
-348.250855
)


100
(
-8.835759347
1764.652684
7.213030104
-910.6635549
-580.9867371
-219.3376951
-86.8687735
-122.7999582
-139.2541326
54.54990478
-4.031924873
-178.3112705
202.5890595
329.5977145
53.26678761
283.5533017
576.0337688
120.1789523
-341.0548344
-33.68593451
382.3303527
204.0034876
-246.8167687
-212.1812469
19.8529027
132.9869726
298.1094901
769.2443983
998.7263696
-65.58400201
-1918.669687
-2646.40804
-1556.308184
-76.22772996
7.249888925
-764.0981513
-721.776811
256.8837954
210.2457492
-507.2514371
131.1599616
2199.088924
3951.047703
3550.878995
2023.750598
717.5524976
221.5785579
539.6363222
914.6278836
619.8536979
-32.17567124
-154.9515164
505.7421495
1465.650389
1481.523076
487.8145041
460.2568442
1285.554651
1984.099079
2739.914415
2365.882556
335.9152218
-1408.395623
-710.6095708
1009.176721
1460.866178
1040.711991
1625.887441
1403.281766
1356.313414
1605.192693
-522.5759945
-1086.080973
916.7756321
2848.459234
1653.066376
104.2949178
-227.6305123
-442.41425
-550.0402716
257.9329907
183.3307956
-1161.836772
-1389.721038
-818.6895162
-780.1994925
-457.9162264
1721.01387
1570.524269
1651.578539
2516.618423
1465.71045
1453.542192
1390.481707
-207.9216671
-1829.50089
-101.7149422
-316.018175
-57.85956223
813.2027961
)


100
(
-8.138923204
2045.24665
306.4535835
-766.8845066
-551.6478635
-193.0005707
-110.5422942
-112.4580244
-137.6572227
-70.39740559
171.3908476
2.21906973
-53.96819795
407.2627564
401.9967576
-77.12942434
132.0628212
483.0966251
37.9282509
-550.3374387
-261.1780069
335.7046746
312.0780334
-37.46326455
-129.5168709
6.537099256
127.7936418
248.3378961
642.196938
882.4555189
324.0401926
-1403.586139
-2050.432765
-853.9063932
633.4052936
886.7874316
344.7265451
576.2678242
1496.714709
1981.003488
1792.319037
1355.888283
1420.004262
1951.038056
2210.371821
1667.180511
335.409806
-764.6013966
-495.8032425
596.5000665
1298.962292
1258.67302
785.0493492
676.7281109
1386.517612
2014.470506
2111.146995
1233.959978
-29.8319198
-453.8872986
576.2160969
2088.958114
1702.927511
456.6756184
1182.521732
2656.796824
2264.706659
1746.379476
-431.422832
-2195.663923
343.3803453
3137.625383
2146.009446
1613.326824
748.5243951
884.2253011
57.46973534
-43.23477373
934.5797939
956.3020414
-803.0774053
-1347.414048
-1302.317087
-295.3470579
-135.5293401
63.88932902
-342.665674
-462.9256965
-557.9292135
117.9099897
-962.1541157
-126.8289856
111.4056194
-876.7504552
-444.5527402
-1972.123127
-2115.895817
60.03168003
-66.44544565
-560.6927268
)


100
(
-7.048930159
2356.268014
640.0306188
-580.5979799
-534.6518298
-165.8544422
-112.6895153
-167.6545868
-72.19036909
-89.21369876
73.55391599
329.3535351
87.47734929
3.72334082
468.7320074
304.9506246
-302.3574959
-67.2263095
439.7409561
88.89512397
-565.3230292
-320.6872947
292.0034111
432.1519662
137.6151982
-111.0573836
-19.61592365
127.561825
293.3299419
730.4397343
947.9584421
252.6835432
-765.1444077
-693.5873186
570.9687809
1998.117338
2382.652206
1900.861731
1428.700473
1309.581708
1271.486182
1072.718005
527.915455
-0.2284116809
171.1336399
954.1572271
1587.47966
1173.722486
251.4245647
124.3178969
953.3926663
2209.858321
3160.019591
2511.626878
1038.163008
-367.7343898
-490.2088158
840.7957501
1885.069736
1261.641414
569.0689674
995.3438235
2496.780325
3597.125577
2771.40533
784.9732753
-815.5547396
355.8472255
2006.372977
-109.1051214
611.8020629
1925.931761
1537.742376
1241.637491
1084.553393
1872.321795
2754.865798
1783.541571
-445.1211446
-1196.050136
-1287.227029
-595.8356169
368.2247899
-126.0097317
-533.1266303
-68.64642936
-322.0564132
662.3381828
639.7958531
688.1066394
2052.119714
1052.48727
949.4168501
566.317027
-698.374628
-199.0224551
-3194.929765
450.9393589
-326.8632337
-618.3369696
)


100
(
-6.104658046
2688.306915
990.5945569
-402.199969
-517.2254257
-187.6340839
-74.90504592
-187.6983771
-96.63817877
37.39242221
-61.58685164
179.0196007
417.6768925
-33.26427377
-136.9330364
387.305621
238.2064907
-361.8523264
-135.9388415
478.2453993
260.3385624
-324.8114766
-300.1454366
199.0309304
475.2845086
242.2172958
-47.5173604
27.03025349
175.0633204
428.0300055
920.1909275
1244.602652
1183.297509
863.1754695
951.9419748
1623.857382
2252.412813
2145.935002
1568.495469
811.893418
359.9719677
377.3868448
500.5078089
415.5094481
23.69000569
-182.6253476
359.016635
1488.312687
2465.849128
2795.834864
2474.51347
1311.067347
668.4731238
1123.456329
2025.990352
1476.913607
16.1378587
-387.100506
1081.139312
3072.040129
4460.229162
3535.258895
1278.932177
-75.19348525
935.6851029
2642.231259
962.8151152
61.4750867
1361.191949
2456.452144
1647.788968
522.2680483
-130.2431149
32.19351262
142.79554
-0.12700026
-274.6580312
232.9754106
-318.5821393
-4.371960253
1150.342377
-314.5994322
-1131.222728
-917.7583415
485.9964604
1140.230896
353.2436062
896.6912354
1246.497958
1246.927582
1099.603289
2175.098449
2597.014246
2031.668992
-1071.587797
896.6038406
614.0564152
-2688.192824
-1014.048819
254.4757491
)


100
(
-5.82861271
2961.082058
1312.380084
-221.2588554
-486.9630975
-252.7970684
-65.39476596
-116.7154571
-139.2652339
108.0361443
84.32292774
-153.8642
196.3535826
315.4749212
-257.3846587
-284.4293481
375.0945247
327.9091054
-278.7135577
-156.9490161
457.7152997
457.5676087
-103.6714607
-365.635681
36.51443583
467.337543
410.0566546
253.0749278
260.2613753
432.3815732
734.7634329
1120.820079
1429.334957
1381.577627
1188.850317
1048.608488
1126.879446
1326.702303
1307.536704
1008.384612
502.3457004
46.01778762
30.39056296
448.1183459
818.0698787
984.7494173
923.4499856
1012.096124
1535.101618
2077.93098
2241.263062
1572.243072
165.9235699
-878.0757351
-91.34293518
1784.150618
2987.67796
2715.727431
2487.746355
2339.639221
2138.523959
2513.991461
2225.542251
130.342305
-1131.444504
872.9131709
3220.050277
4035.045351
2667.150406
1533.167964
1113.2707
934.6418607
398.5677962
404.0324902
677.6040894
121.1186579
25.74784328
127.353431
900.4479112
149.0925977
-895.0689311
-1023.880156
-0.6088344123
2021.811078
232.5482417
-246.3955012
1153.711867
1537.486156
1096.743281
1362.099168
1008.684363
3734.511495
1621.544173
271.1786086
-1466.909104
-126.0792513
-97.28525149
-175.8567501
-1396.25495
-2110.470719
)


100
(
-6.54728143
3163.650748
1587.177728
-54.89755958
-457.3962804
-315.4378883
-117.7329504
-31.48854823
-69.52064475
40.32920707
277.8767951
19.28027578
-234.1069414
164.5073787
245.9577727
-349.0658974
-331.8207941
411.0203315
468.1380567
-145.6224756
-213.459631
371.7029787
589.8309649
52.10346265
-400.2690639
-67.25503905
433.9316038
653.5653958
688.0521969
751.5310322
878.9358675
970.6696147
1011.342309
978.2780349
885.7877091
707.3943372
581.3214114
513.3565865
582.7365066
719.7612444
846.3571411
818.7202356
621.4513641
557.1104299
909.2557208
1545.308869
1928.107098
1602.121399
966.3741318
539.3495765
776.8630646
1224.806428
1267.085254
598.4344886
-91.33282232
493.3155539
2202.299843
3658.798325
3511.207587
2042.634735
82.79297515
-507.4270368
1144.598963
2667.30289
1825.893523
1789.788353
2234.12539
2311.354849
2292.814323
1871.779523
1980.401772
2955.723992
3722.662599
2226.54463
573.3732848
-237.9793692
-307.6450731
-45.80836086
679.4786379
559.6052344
770.7268283
402.645326
813.1221645
202.1719212
508.1920521
2353.936863
1727.668694
1289.318062
1710.825412
1691.023623
2082.636417
19521.33413
1450.286784
928.7518542
-921.9951637
-676.1323062
-569.743456
-281.3943437
274.3739716
-942.522612
)


100
(
-5.605763753
3349.546592
1796.852595
82.85561963
-437.6740531
-352.96309
-185.7355421
-38.87916397
73.57874147
43.3539189
148.5841187
317.1907322
-27.92605906
-291.7026158
206.7886841
344.3678184
-279.8058672
-337.331805
413.7154744
611.8784255
-10.19642516
-319.3250951
230.8685133
694.2563381
377.2008647
1.390092166
96.12812993
515.4550911
933.7127379
1120.292137
1090.174375
788.4237639
555.6948012
425.8685325
410.5385472
423.7157285
421.8421186
467.2498971
493.3188314
500.1898617
634.2430593
1063.189661
1548.503933
1804.553773
1709.854739
1383.983713
1200.892751
1195.21625
927.1719194
749.3932611
499.4603182
498.7753014
908.5018487
1545.748254
1767.553063
1723.949291
1500.744882
1449.96895
1863.244283
1686.324338
854.3874864
-384.7521975
-256.5994808
1793.410163
3507.471696
3614.810115
2742.777732
1891.008411
1813.316415
2131.562836
1938.32777
1904.29201
1595.235133
1587.94608
1092.736258
1287.070572
2087.146647
1378.787804
41.676886
-339.9524607
51.5475324
1025.203493
1393.700031
1388.256321
1392.351973
1848.597368
1915.930023
1766.937106
1424.498347
1973.727525
710.0582737
511.1923584
4360.552581
1116.092525
-1772.617585
-763.1538697
-1128.107358
-978.8559834
-479.9916073
-111.6531484
)


100
(
-4.1010484
3513.324321
1914.317273
191.3582082
-425.0007694
-377.4671693
-216.4154999
-88.7133208
93.16711583
183.9374705
-12.85948136
80.19592758
348.4636402
-77.85848047
-341.7491831
304.5320111
537.5462563
-151.0958386
-371.921592
351.5968142
734.1392445
136.8357018
-348.4109169
121.6273737
719.430403
789.6136917
513.9894622
335.6700832
522.4449551
819.0807834
1049.658598
991.07661
577.1327099
171.6663049
58.7252721
157.6834324
268.3498083
466.1186165
740.9336209
1051.15672
1157.538446
1182.956501
1449.611949
1902.535916
2021.938628
1724.187651
1099.387957
596.1005842
521.5816018
822.599484
1155.38799
1482.795606
1394.324025
1308.440954
1518.125712
1663.588427
1264.897105
817.8493327
460.4208766
597.3845237
1189.183605
1517.399019
1384.37459
1438.929095
1364.190492
1521.981993
1676.572941
1360.905066
1385.71383
2184.112837
2977.770647
2461.07321
1447.735887
1266.828623
1475.961911
1176.817506
669.2042941
58.78261217
21.27185388
1000.302052
1588.30241
547.6717027
-30.56328387
1079.807182
2565.209395
1568.126052
1281.040137
1963.030587
2311.874084
2006.277059
1620.874079
-16972.57039
2175.160328
57.57009142
-2099.160412
-2174.437833
-52.85558795
-681.8804096
-1023.793239
733.2651468
)


100
(
-3.714576197
3651.239267
1956.622872
247.6662278
-414.5121292
-407.3238625
-231.6971583
-85.47247951
13.85530367
212.7420092
131.9326133
-270.1048068
32.38142738
409.1557918
-117.8296202
-392.8519422
364.5809199
707.7280614
-27.7243373
-467.9039039
216.8992956
830.6456936
464.9421669
28.61847766
211.317573
762.4228353
1147.357402
1032.456401
646.8945614
247.5163426
265.1635351
670.8756219
864.4137355
509.1647657
15.30080425
1.558598422
202.9868926
413.0679546
760.1287333
1337.420815
1826.0315
1931.600927
1560.059072
1221.797961
1231.746399
1396.557819
1352.030194
1291.797493
1005.142053
847.618132
1239.387177
2003.421295
2390.377718
2091.057796
1367.132517
827.6835684
690.0549862
753.7620334
977.1157433
999.7724221
914.7501055
1519.350335
1895.343065
1498.765093
694.4326811
403.4818309
820.0548399
1454.54609
1401.295877
1122.477631
1044.730776
1356.084399
1090.530415
1179.716146
1934.732361
1985.401309
342.8492745
-620.8049449
-521.2600952
249.3566312
1134.939362
951.1246293
729.0732296
1409.965737
1298.946049
1635.250142
2445.462933
2477.178277
2877.138512
2791.287141
2668.526593
-621.2205859
2289.046309
-361.8109112
-3070.856732
-3213.003877
-1286.637841
594.8314786
-377.0122954
-1261.194313
)


100
(
-4.24905474
3715.280878
1959.90894
244.9020641
-402.0195626
-422.8106262
-254.0767431
-59.8836809
25.90832404
62.23111607
271.36974
-24.33008772
-417.1611488
98.35784147
536.5300896
-89.58343647
-452.3322832
346.9691237
844.9178003
121.1971447
-480.2311982
83.81005532
810.8764443
844.7856681
481.5902288
313.2864859
605.8386607
985.3886015
1091.373282
640.1805421
-147.1962029
-226.7408638
354.6756855
849.9832812
679.6050216
331.2849207
285.3819417
543.1677272
802.0504445
1145.343918
1676.691374
2037.976665
1618.295179
1036.961288
613.3298187
594.5710986
881.8009657
1443.330151
1896.805698
2124.21712
1855.832967
1705.464507
1905.852716
2018.523286
1708.753136
1152.300119
664.0484007
667.650996
1449.453098
2152.653337
2171.627702
1708.852468
1542.740583
1648.661575
1598.686587
1196.766774
1073.00374
1571.293046
1830.948788
1074.962474
494.5820653
756.3315237
1310.548298
1149.215743
950.8684932
1193.83301
656.6792885
66.97918877
311.7967117
215.8353896
709.7048214
1376.599673
1567.885723
1940.343708
1747.577903
2483.207876
2844.973047
3063.347647
2710.812084
3398.572566
3333.771778
3070.598655
2602.658539
-176.6635702
-3123.407303
-4284.112779
-3443.858754
-803.6118916
-822.2387076
1185.036936
)


100
(
-4.988060651
3763.4956
1893.811356
193.4932193
-394.3188889
-420.5089725
-256.879534
-96.49232207
97.5389477
44.40935052
104.3808411
329.2015322
-44.94222297
-424.3911105
217.7011775
709.8489435
-22.92058347
-548.0412524
235.5015452
855.9693978
426.5359557
-148.352078
89.77595642
752.6302781
1137.407553
949.947465
514.1763071
222.2946788
446.4489279
904.8787296
703.5874293
-18.30233559
-330.45047
210.6144754
851.8744614
953.2364744
798.1453667
830.3183364
979.5125095
1059.112577
1169.549316
1539.848398
1743.666087
1232.183782
668.4292791
540.769117
638.1101265
933.4534452
1662.054222
2427.717564
2502.439031
1871.306883
1202.490313
1061.072166
1308.372241
1712.809776
1988.273456
1832.159683
1880.055177
2376.057224
2581.768822
2228.855432
1837.658642
1862.659539
2427.141594
2968.572108
2775.044644
2207.760047
1996.433169
1990.176565
1595.164196
1450.269698
1823.332851
1693.472818
938.3360697
958.5798153
1546.049467
876.7912992
344.0719823
223.2139428
1146.934773
2528.589861
2298.808666
2106.646078
2800.955504
3556.655538
3135.774381
3373.849995
3564.727024
3813.125797
3681.767612
4101.864953
2824.056476
-982.2727014
-3205.649837
-3880.973496
-3757.366217
-3207.470545
-1771.026234
-3686.616603
)


100
(
-5.461381478
3815.527505
1777.48225
118.6108623
-395.1041923
-411.7913352
-214.4589775
-121.5092253
19.24495105
149.4885377
1.550080116
114.4520046
454.8221463
4.988748099
-456.262822
254.5597082
827.9941633
57.58882703
-585.552313
118.4336007
937.6690212
805.7005339
250.4200699
71.60753047
488.777403
1018.319009
1111.881396
521.4146631
-251.0851313
-94.94927439
631.7338179
874.7783833
375.6897575
0.612013168
351.7571312
934.9346072
1178.970532
1192.968897
1224.692592
1081.837411
786.8434508
817.3255632
1255.545718
1448.422588
1114.735455
821.7789995
957.3955139
1091.388826
1201.797535
1714.916059
2312.000535
1890.26214
1112.362693
627.8840343
673.6292435
1386.872118
2558.280898
3248.978108
3089.324894
2649.651074
2444.170993
2412.607232
2379.738939
2351.270246
2616.388413
3187.462298
3359.500842
2931.647946
2624.449242
2906.970163
3389.129532
3290.209017
2866.560237
2408.56563
1955.075081
1644.560099
2031.168452
1781.749214
840.0934357
802.317118
1530.301406
2353.862386
2538.095845
2774.826583
3648.356712
3694.332974
4035.931216
3850.201291
4168.100893
4269.333978
4209.817578
4250.875599
2509.823272
-1989.125971
-3581.328334
-2959.605048
-2750.738596
-2682.582972
-2134.101379
964.463356
)


100
(
-5.809479346
3875.208083
1643.090575
28.4427735
-381.4079173
-397.8310386
-187.5457611
-43.78150773
-105.4683686
49.26499274
151.3766595
-137.2054847
112.7216012
583.186333
23.16014633
-560.7076013
189.2849448
904.3651545
295.5372624
-346.2181942
43.92048936
803.5980899
1061.622271
668.0701251
148.8434672
76.23190256
572.153771
1073.749691
690.5248461
-137.5405098
-263.8439595
437.8930818
1022.178983
910.218063
636.894973
680.6522843
937.7544384
1100.350461
1312.251007
1418.641572
1048.097597
375.534121
568.8946828
1218.274945
1501.352391
1278.858442
1163.07318
1133.557605
1153.230409
1192.774567
1683.904402
1971.201487
1368.35605
854.3741253
1040.51
1329.685474
1972.938004
2777.573666
3138.892784
2872.454871
2520.866833
2488.359939
2930.843014
3424.7535
3490.944388
3111.306809
2966.227282
3084.160588
3102.499124
3236.272907
3717.299156
4046.147175
3697.793487
3432.340471
3517.370047
3223.671294
2634.698746
2386.449939
1868.337602
2104.812634
2432.858583
2028.167549
2302.694638
3617.491562
4227.192878
4053.530481
4582.280835
4935.150813
4846.879568
4793.935036
4566.924392
4403.603624
2882.704579
-3245.726539
-4803.628273
-4201.265845
-1795.398882
-1096.40988
-2159.573766
-5562.60084
)


100
(
-6.453897179
3924.258425
1577.105033
-111.3248971
-379.514977
-342.4909381
-192.4841095
40.95119907
-19.61335301
-180.6772172
123.3461999
106.1057015
-293.6470416
114.9570333
694.1885262
57.58233321
-601.9781282
95.46836646
902.0197502
643.0834774
2.593459796
-80.5016468
500.3000249
1079.801314
995.6638828
277.3490346
-355.448007
31.63584989
906.7910972
981.5048395
267.5879289
-145.8978709
340.2151363
1016.102314
1289.809354
1249.68008
1110.28082
728.2686327
632.9298756
962.9143148
1351.433208
1084.914838
586.4573196
636.39581
1299.04938
1437.406991
1197.566727
1270.62936
1376.199449
819.3197698
932.3433761
1549.20016
1680.559556
1371.939144
1416.352104
1727.005146
1774.14585
1766.948388
1946.180558
2202.331408
2335.722353
2438.175356
2753.522016
3278.66604
3557.727465
3163.254675
2785.642155
3099.799904
3679.283366
3829.84569
3538.45447
3362.42027
3609.620052
3710.219735
4073.12416
4211.294659
3292.238
3015.314139
3298.457385
3287.478536
3077.233321
3062.568748
3679.624269
4678.041785
4749.854938
5248.711869
5306.706122
5593.490961
5782.783053
5313.426368
4594.598723
3964.902041
2509.50672
-4123.106852
-6717.920143
-6363.17267
-3191.803124
-1139.241169
-1576.814411
-4543.714666
)


100
(
-6.983605495
3955.959385
1547.07011
-253.6505301
-427.3628052
-267.4292728
-161.8006897
0.4261507631
156.8989509
-83.54438108
-152.5101058
245.5817552
89.42051199
-390.9296979
118.0676471
775.9545871
232.3487237
-415.5379863
9.974093852
802.1018413
931.7527309
357.7968798
-132.431155
98.19985015
775.4548816
1135.542168
491.3612836
-461.3472789
-357.4153599
658.4414661
1259.11303
884.1929649
400.2215236
370.8981722
764.0735516
1174.298815
1566.920834
1539.140634
846.0536034
153.4382643
469.1237899
1161.822746
1268.01567
1052.947978
1159.933758
1234.373464
1092.109192
1075.267756
1343.374283
1159.174697
686.2294806
1093.521272
1894.258022
1906.007509
1717.977965
1879.216029
1865.576249
1396.469099
954.6254722
1157.982815
1751.76085
2322.363856
2529.275645
2449.780397
2650.175949
3019.981407
3084.989634
3193.086222
3638.439965
4041.662623
3432.709691
2945.490716
3309.937082
3770.039855
3850.253417
3950.124626
3601.087184