/*--------------------------------*- C++ -*----------------------------------*\
| =========                 |                                                 |
| \\      /  F ield         | OpenFOAM: The Open Source CFD Toolbox           |
|  \\    /   O peration     | Version:  2.3.1                                 |
|   \\  /    A nd           | Web:      www.OpenFOAM.org                      |
|    \\/     M anipulation  |                                                 |
\*---------------------------------------------------------------------------*/
FoamFile
{
    version     2.0;
    format      ascii;
    class       dictionary;
    location    "constant";
    object      la_i4;
}
// * * * * * * * * * * * * * * * * * * * * * * * * * * * * * * * * * * * * * //

la_i4_table
100
(

100
(
-129.1453994
-2.982318619
-4.934883149
-71.28390558
40.37349193
689.6031823
-588.8428714
-12.79977749
284.9544055
-28.60790309
-87.62908974
-109.3765321
238.9094444
-104.2364235
11.62218276
-36.60080459
108.5435011
-191.1491243
177.2789164
-136.1352382
120.8993186
-93.80827631
60.10359157
3.564341149
-99.42848363
94.42850208
-16.12325965
-63.86511291
50.03941775
20.43571268
6.699563791
45.88013704
-85.72232803
36.24172188
96.65173835
-140.6843614
71.38711108
-32.36753143
-211.4544427
354.8446437
-92.76851171
146.7751522
-178.500759
-153.335478
247.950926
208.3675969
-653.8080357
433.1083252
-1.938280613
-196.7050082
224.2023587
-305.8708101
239.6918262
-114.3055953
-108.2023382
449.9643227
-551.8285153
347.4441126
-283.5715803
117.2892898
22.40061219
19.38923846
15.26835078
-11.05022904
27.72353065
59.67897848
-4.799353331
-91.20019212
27.83633045
76.31471797
-18.81341912
-70.66991005
-38.16811391
7.247868421
69.18228357
-12.34328514
-45.60038709
-32.51696316
8.177471986
11.68671706
-32.78172774
-19.17570697
120.8148232
-50.09362193
17.37183552
-24.54838224
-2.394488522
43.83806475
-16.99576136
121.0340782
-28.67946687
-75.95051027
27.92269414
-20.98723378
-16.01828637
-2.376049151
-76.28227979
-60.07415413
30.0840046
0.01123942335
)


100
(
-130.3062579
-898.5319895
-422.6677897
-347.214648
-343.2219911
-302.0503108
-227.9434206
-182.8094758
-136.2507605
-119.5273752
-119.1897889
-78.20370262
-28.03154856
40.07948027
107.3032482
149.5354139
176.1690652
204.1737041
218.1933878
231.5048211
242.4728198
233.1889461
212.6818136
188.4510575
173.6358156
182.6683775
237.1553192
319.4129956
393.0982422
409.3560816
371.4121529
293.2956342
216.2752674
194.3730955
253.6333433
368.1816142
485.7711309
550.7577146
551.2594532
515.9880284
472.1540498
434.0164345
401.8701598
372.4181603
333.1915994
297.3865153
301.1659853
357.7419914
446.0944377
514.1017294
519.9964454
471.3763671
406.4024444
346.4812279
302.0212792
275.8303477
269.2394365
274.2145918
283.4283744
266.3521503
186.8490893
133.7636688
232.3256687
314.540319
200.9521907
20.56614548
132.7940372
266.0643521
99.17755289
-39.17589455
178.3389203
226.4147402
-222.768109
-2.811667543
416.1583721
-118.9015593
-166.5330022
436.6330581
-100.3809533
-311.8498901
475.9583445
-428.5641117
-164.0857155
722.7261479
-1397.409942
435.7787936
-332.5463117
-876.6502312
433.5523376
-1017.918123
211.7654124
-421.6628105
654.7911594
-106.6569127
423.7287455
-565.1100844
-624.3809914
-115.7316946
92.09996203
-447.3338574
)


100
(
-131.5899743
-788.063877
-323.2775715
-191.5151693
-187.1882218
-143.6373263
-80.12851945
19.17130241
78.13794963
111.7603379
96.13630321
107.8232376
160.9940501
260.719258
379.0985126
474.4969114
538.1708593
577.2109663
605.4674488
626.0592851
642.9260871
638.8657484
609.6061614
561.517176
498.3656885
446.375053
450.7112255
539.9264628
683.4822708
813.2799327
859.8641322
795.6003549
643.8305879
478.1256433
392.9878541
446.2107283
614.5673332
810.7619012
943.892632
972.6041567
924.5726901
852.0952495
785.9462193
728.4696721
666.845824
591.8099579
503.5929844
437.2418198
452.8288857
560.0157098
681.6164402
721.7276502
666.5621599
576.9473441
505.4637807
433.4565077
384.8174121
411.1715399
484.5060093
483.0604625
352.3963496
148.2415206
-15.6365323
41.74585727
260.1045044
304.8518263
132.8729254
136.0916334
328.9275537
319.8277194
91.53275875
86.92408126
223.0052886
174.859499
52.91080857
43.16765355
49.93910828
-82.10190529
-362.2532486
-155.6684329
-62.53258973
-316.214285
-675.023828
-21.09658222
-127.0661241
-673.1718968
108.8902441
-143.1108893
-243.419525
289.5657678
320.192862
348.6988961
143.5322463
297.7347451
-192.4744942
-102.9320767
532.9499302
239.3323575
-294.6548
-87.00418849
)


100
(
-131.9602846
-766.1356568
-251.998648
-65.97480865
-10.80883494
22.75123571
74.26446227
198.0218767
294.7516412
345.7223854
342.5461626
313.4303627
332.3372443
421.8660314
568.3513714
717.4734582
831.3188338
905.7659208
945.6142426
973.3038263
990.962346
997.9095698
977.0169717
928.4678201
853.3951
758.3281811
670.3835475
650.2677162
741.3562656
915.193241
1081.775273
1150.385996
1077.630317
892.9857656
671.9319738
519.8429216
521.9046597
681.9101844
903.4417976
1061.944072
1096.317355
1033.790858
945.1442924
868.0688459
795.8420265
719.1801685
639.6115218
534.5364407
414.2185624
362.4381376
453.162201
584.9502875
605.3732508
494.5572476
400.8458299
377.2896758
356.9954387
347.8436566
413.7100725
500.4389329
468.1842288
315.5283103
158.5691365
50.47921252
42.98668216
179.0286704
315.2846777
346.6699466
278.2628622
185.9136858
159.9959885
148.3596595
33.61945192
-183.547492
-146.6599865
-43.51061479
-287.9759983
-303.3436925
-221.9659633
-237.3524585
-110.5336474
-206.4084689
-263.5912476
12.07263802
-60.0908994
-248.8111918
28.47846318
28.95041386
371.0070827
230.3485627
313.8134823
143.9134791
-64.71089931
-300.6051537
221.8741685
354.8189384
-1302.988995
1113.472095
-303.8575414
-128.9184942
)


100
(
-131.0703188
-764.7179491
-227.6420381
61.47013537
181.1993811
181.336473
226.1352282
332.9739244
481.4958222
567.3796789
591.012216
548.1115328
510.0644433
548.3489208
674.8407826
848.6309814
1009.008403
1125.239765
1197.635554
1230.885762
1244.976468
1244.537941
1229.314322
1188.230096
1124.138828
1037.503221
929.9179199
820.6864597
771.1229382
835.3427177
994.4403541
1154.004945
1213.392477
1128.581779
938.1077738
715.2902874
547.3309953
518.0632255
659.657636
863.355487
980.2964389
942.6928788
805.1184502
688.5182367
611.4736297
548.0639393
508.2299172
502.3797202
467.6995129
388.0802179
359.6615012
456.5815318
568.6384363
537.6541281
398.0290845
325.451983
354.8385488
396.5213338
410.1750968
442.2063655
464.1108363
409.9385636
291.5084981
174.8678048
91.26984197
8.697004449
-109.4677473
-205.8735845
-155.7352091
-31.67843705
19.43263403
-35.16615331
-116.7437479
-257.2145455
-399.9933894
-205.1006844
-120.6779098
-275.1067549
-89.17796438
-41.10645649
-240.2928199
-162.5036026
20.23884377
-32.17943342
-75.35118584
318.8124847
122.6757995
138.568833
108.4153495
329.4097977
111.2768478
-230.0242756
-66.67296932
-521.0180342
68.40170738
-161.3361217
-1876.810104
181.2089173
-6.14909927
-15.52259453
)


100
(
-131.6618273
-746.2281935
-208.1379148
177.0449846
361.2137553
359.4195458
373.4877121
452.3041712
609.9672632
748.5870602
803.3219357
784.6690286
716.9124509
679.8914609
734.3556593
878.9460639
1055.93244
1205.554522
1307.211689
1364.706579
1379.819775
1363.228802
1323.813407
1272.197731
1209.80663
1142.489212
1067.584497
977.9061303
877.8607944
815.2539762
844.8723529
964.3227799
1079.468686
1087.521512
962.2712595
781.1194713
602.9395132
481.9812476
488.2492787
651.7143417
838.8783448
889.5510119
754.7469602
573.416467
467.2376039
423.9023358
407.9480206
441.5109642
506.2382566
533.6324742
501.4616711
477.5749897
511.5721207
523.2298272
423.7757607
272.6470575
197.4205686
221.9483657
257.3091385
240.5323159
162.1770919
64.82417947
-16.17508566
-79.28069698
-131.6127525
-152.7604947
-113.9919738
-39.31683123
40.8415364
93.50728858
106.8406998
109.8136793
110.8091896
-10.42762393
-328.4442804
-420.506177
-70.14703153
59.12144344
-41.4751926
-168.6875253
-8.432685592
-27.34921483
-407.7136098
-14.79312609
1.843482367
-161.8576052
168.740624
269.23605
-182.165418
-136.7575907
140.8151803
-381.7225943
-329.0536722
-330.636381
-1250.881642
1733.370066
-389.9835119
-196.1098294
118.1198364
478.6980339
)


100
(
-133.0744067
-762.4723919
-211.1731861
267.4043075
504.0462641
545.4892641
510.6705963
555.5804974
684.9484272
859.0723619
966.8637867
981.6973457
923.1879368
838.9536151
801.0175206
856.2136643
994.0771948
1150.374962
1270.600985
1342.170763
1371.526691
1354.225489
1289.79955
1191.625504
1093.987684
1013.491767
960.7336536
934.1432415
904.0686313
847.7576366
795.6272739
811.2372028
899.3735318
958.0534938
893.9956661
733.7959663
583.0919384
474.0798692
430.3435155
507.1582191
691.4199894
837.1616806
801.0634187
607.9846606
434.6199233
380.9114939
412.7881727
478.93626
560.0947489
629.2100349
647.1340198
595.3295345
508.168742
409.2496343
281.8817347
95.14534287
-126.1256576
-308.6886736
-373.5569857
-305.9528046
-172.3855423
-52.94474816
19.87284205
85.7914918
177.5893125
287.6508906
347.6124494
274.3940793
104.1268093
-10.28060929
-55.65659438
-141.4181642
-256.9447848
-214.4438823
-73.40015287
-30.63990706
-116.5167901
-210.886869
-99.3016305
-122.8232491
-296.2978453
-66.48200748
-125.6022559
-266.6757475
-144.2189685
-6.90143118
-196.8926551
9.352452803
-69.19533652
-373.3475897
-422.9490358
-197.8914697
-228.1420145
-258.5867156
-1340.788947
-3743.508338
873.3086615
132.9257055
233.3713071
347.2405288
)


100
(
-132.7315071
-797.1136389
-240.1625672
304.2131254
634.2571579
721.9554565
661.5274147
648.1166892
731.5246873
891.9969893
1050.485081
1117.937992
1089.152928
997.5937597
897.7511966
847.7289607
883.3887928
991.5547116
1108.850242
1187.474206
1217.298667
1209.838945
1150.711659
1029.035361
865.1178688
728.9666288
650.8333955
649.2941117
710.8189695
768.7870491
771.2213885
744.2217424
771.6474955
841.8088606
846.0144338
720.4326205
558.1958535
460.7514198
433.684832
474.6785624
599.0219656
755.9036831
811.8744211
676.939462
442.0580759
282.4483109
275.2903529
367.6751258
465.8049461
503.2399974
462.5120824
371.5850084
264.0656937
166.8371911
88.03915315
33.87657723
-14.55066603
-92.83489233
-199.1286516
-285.2721995
-274.6566121
-128.2572099
95.10025478
281.9571132
328.5506238
227.134878
83.16937282
6.014732283
-38.00640258
-100.2974548
-126.4630716
-60.44056581
13.39513311
-3.514101281
-141.8259601
-249.3841261
-181.723174
-220.2155923
-329.7163548
-244.8580688
-316.796088
-393.1894361
-336.6632849
-212.8943181
-206.1579136
-452.781467
-523.2073487
-376.8421925
-193.6259555
-559.7893221
-934.2979702
-598.9857872
-1046.598987
-1702.192388
-2074.770707
-4326.966182
555.9956514
67.29067032
-49.78993269
-60.2710353
)


100
(
-130.8572032
-855.3598847
-306.0656393
300.3788519
733.1222512
864.3223458
819.00849
738.13468
762.3212006
882.0866858
1046.178241
1168.022948
1187.271592
1115.310088
995.1689227
874.6056724
798.3422786
796.6847303
854.3789034
927.1765039
961.7510925
950.2820187
913.4894634
823.7566411
662.5311843
457.8791857
298.2211145
246.5792802
326.9253735
498.6215379
647.568658
700.4969203
702.9293697
742.7570109
788.6229137
736.7292654
580.5592484
442.0641209
406.9401852
455.8590453
557.0772747
675.9216523
746.4888115
664.8409719
423.3141931
131.5686409
-61.96862294
-78.37708701
32.02704014
158.467545
200.1360968
128.1041749
20.71861269
-42.83283508
-31.96572605
47.50033001
165.6842815
282.2988372
346.0413312
322.9613395
211.941441
42.34311448
-105.1918774
-138.85986
-62.06097079
4.853207416
-43.24208076
-144.8296513
-158.30631
-61.42152952
34.86818353
15.38156894
-121.419357
-176.0773343
-139.2229131
-236.2983089
-373.7305934
-381.1441494
-460.3446051
-543.5475817
-561.3991232
-484.5606502
-412.4151027
-602.4206987
-562.7178912
-508.661515
-441.4999395
-860.2821154
-786.9738653
-598.1055041
-536.0863993
-1042.158815
-701.0422973
-2472.673169
1565.232852
-3350.323896
150.4127139
57.21187777
-318.9546205
-703.2253896
)


100
(
-128.8370199
-909.2499215
-392.8510418
262.5154112
781.5992106
980.1513691
962.5155859
846.5918856
789.0341481
847.8019398
981.7863036
1123.414432
1196.837828
1165.390961
1051.770284
903.4043694
754.0962479
634.3411186
578.37496
595.7173053
633.7582401
642.9422325
613.4578298
572.0209142
479.2635511
310.8675638
98.14277108
-55.94404118
-51.10924421
132.2451517
411.7752174
629.1204257
696.4749299
699.9243345
716.3266513
707.264942
593.4019824
415.7357013
297.7015897
304.4878985
400.9592956
521.8018677
597.424771
565.1359212
396.2261056
121.148312
-169.501826
-367.9577363
-397.9257185
-270.8277905
-92.99674362
23.92855915
31.46302884
-18.45713599
-34.9873806
38.16025195
191.1527579
353.7914113
436.718898
387.8704107
235.8104223
53.31715097
-124.7034186
-268.2528767
-318.1681847
-243.9513343
-123.488432
-68.64377033
-109.5603265
-200.4079311
-231.0315987
-153.4771674
-135.519511
-277.7305307
-417.2930575
-475.9037186
-602.656481
-732.5559333
-785.3334527
-750.2588181
-741.6619196
-888.480532
-878.0318983
-847.9769076
-728.8425743
-710.4230562
-882.6331957
-1321.96251
-1169.858076
-1208.570649
-1531.784384
-1332.08758
-2365.644532
-1248.634963
5362.008049
-5719.502202
-167.3665841
-432.2032346
-488.5898883
-2487.660945
)


100
(
-129.1545719
-958.2758823
-493.4066395
189.6749349
768.7329648
1057.693562
1070.534124
956.5774925
829.4045429
806.3562732
887.5442193
1011.149963
1111.85401
1130.634418
1049.140766
895.8267925
720.1438935
540.5897105
383.0671352
284.5265916
273.5703247
299.3965705
313.4127322
303.8342892
283.08543
221.2008861
86.86483205
-89.9226117
-194.6078212
-118.7328038
151.1948967
539.1455182
761.1314436
801.2464614
751.014449
680.6797076
561.0828308
365.128897
148.8531422
13.55026234
13.9951194
123.0922823
260.4751223
334.9885604
291.9251211
156.674265
-29.4707359
-208.8849393
-320.9863395
-322.818979
-213.039078
-46.10119099
87.41102799
130.0512673
86.931851
7.71562643
-39.61395383
4.803538525
99.9783565
152.015842
93.1697938
-28.76447458
-113.3822392
-135.1406932
-132.2013356
-153.2602813
-228.7243855
-320.4302548
-340.9843707
-347.2744236
-434.3046753
-507.8987718
-495.2534201
-573.1013376
-779.1617506
-963.9276602
-1051.350531
-1088.231718
-1153.967973
-1218.303867
-1211.893222
-1243.194255
-1204.499142
-1158.209455
-1295.903747
-1366.056147
-1242.374941
-1327.822854
-1395.801168
-1691.841935
-1750.510023
-2043.714056
-2809.093284
3211.238648
-2804.775482
-5522.981215
-2562.842118
-1212.84228
-799.0362369
-1613.087153
)


100
(
-131.2994277
-1012.441887
-607.7546053
77.86155791
716.5304068
1079.529961
1144.768597
1043.032936
886.1172953
777.2952039
782.3332013
865.7808958
959.1479844
1006.535687
971.5861222
847.1376699
665.0681595
473.1392182
278.9164402
102.161758
-14.86010194
-32.40036988
4.402731663
49.52225909
85.40585706
113.3158676
111.8917463
46.85449163
-55.03760715
-89.39381851
41.38898672
340.2181343
732.7634834
866.5792822
850.0251784
734.7696125
568.1522358
349.4556333
90.37847771
-160.556633
-329.7171565
-353.4163678
-244.3531254
-79.63908987
51.89335923
102.281713
91.97705653
61.5089856
34.69256789
31.07314567
49.38317476
81.77949567
104.5558832
97.13984566
53.03232741
-31.44383651
-141.4661761
-232.7993127
-235.0856478
-143.2646598
-51.05349336
-36.53242334
-97.1620024
-184.851637
-251.3642267
-287.9677358
-372.9931917
-572.7681298
-761.1880634
-797.5145935
-832.4304452
-950.0174177
-1106.243221
-1256.835583
-1381.268378
-1462.061475
-1482.794693
-1469.856611
-1557.705606
-1697.54527
-1743.155743
-1741.497219
-1829.979905
-1899.042143
-1866.721798
-1842.492829
-1772.192641
-2026.984527
-2099.412473
-2327.904004
-2690.543768
-3016.153176
-3950.177167
-1490.343411
-10176.57138
-924.2156012
-1433.854977
-1722.081985
-1047.743629
195.842309
)


100
(
-131.3635021
-1064.976794
-732.0016765
-63.20729915
625.7988083
1040.739369
1172.906462
1093.158846
936.4904152
774.2511062
688.2254256
707.1582318
774.8006224
825.0022165
819.7913191
742.8082606
594.9276194
406.5132227
218.0184374
31.93940847
-136.3837771
-242.5973934
-253.2442366
-191.6224957
-101.2702301
-9.33693799
75.55133016
132.133635
132.1135547
94.10305014
89.44034731
186.1122334
397.9604255
600.9465113
697.8226919
672.1498255
549.0722915
356.1498928
128.3768971
-118.7871837
-349.4924146
-511.8510428
-551.8369017
-453.8805982
-270.4425285
-76.6549214
73.46817554
167.1335065
211.2585827
215.0300563
188.2235616
132.6866054
53.49867645
-45.69116475
-141.5065931
-183.5832043
-193.8137628
-201.1795366
-211.8515727
-210.4994238
-198.1136731
-193.4442742
-225.8657169
-309.1239705
-439.6722231
-553.0761985
-601.5603778
-712.0769648
-949.8683659
-1232.697601
-1494.381508
-1679.243851
-1774.249658
-1808.864239
-1818.110362
-1845.779072
-1924.023613
-2010.88429
-2130.038717
-2282.094168
-2400.194982
-2381.682919
-2424.228525
-2486.301372
-2448.671654
-2596.927826
-2547.990282
-2767.433687
-2928.041919
-3176.398589
-3526.760898
-4448.007635
-5938.207135
-5560.839035
-10095.31973
1945.221402
2189.329152
-2483.205164
-1349.551306
181.3915646
)


100
(
-129.9393225
-1111.569321
-854.8695626
-215.0459292
496.42291
961.3505947
1145.827351
1109.602729
958.7282976
782.2259775
629.7957013
559.7076338
580.147587
622.6437057
629.5838163
585.6458028
488.1878344
341.7690673
171.5040568
8.47575017
-145.5732028
-280.9953311
-361.3958242
-354.9903375
-265.6489797
-132.4115791
8.628292936
135.9679853
224.4181379
255.618536
241.0076488
220.6841566
242.74863
307.8400329
386.4517816
433.9774971
419.4435817
332.0332868
181.9887752
7.179698444
-165.1054966
-317.0271584
-423.8239155
-454.0858939
-391.7512605
-253.712101
-85.28406439
63.3352081
151.9930524
154.2882969
68.76714525
-51.12067254
-156.8920935
-234.7155815
-290.9968528
-312.2515302
-287.1031557
-232.5282147
-197.5979396
-198.4377791
-244.6245721
-333.9899979
-424.7565351
-480.3374974
-546.6765685
-666.1667565
-805.0888259
-956.8839867
-1166.934185
-1426.247265
-1680.021232
-1867.291596
-1970.961784
-2051.408194
-2183.991634
-2385.639651
-2554.837451
-2600.939622
-2630.742796
-2735.763418
-2911.838994
-2972.174061
-3059.384591
-3174.991015
-3113.037599
-3273.152006
-3330.181584
-3610.17756
-3793.141683
-4077.478271
-4494.255255
-6194.116907
-6226.72085
-5238.009494
-8641.959046
1095.435315
1504.708169
-2819.481548
-1691.556017
1865.476256
)


100
(
-128.8011195
-1143.545746
-970.0916467
-379.6539608
336.5732166
853.359394
1071.23764
1080.876737
952.753017
777.0517311
599.0131281
458.6194624
400.8906397
414.5975141
432.4884581
408.6123419
345.472912
250.6708062
128.6384948
-1.801083337
-120.752664
-225.7647042
-315.212216
-364.4432709
-340.8122562
-237.7485047
-83.23475109
82.31997906
222.7700764
309.8070412
328.7875175
293.9498672
232.9891149
179.1788335
151.2343952
153.9983498
185.5727751
208.2512877
189.0168957
120.3273323
30.7749013
-52.04726425
-119.5334778
-167.1151546
-194.7725729
-196.2947743
-171.7085781
-124.9636646
-67.03125229
-37.62130184
-85.58489069
-227.4537436
-392.9497645
-482.585385
-490.0214592
-442.3427458
-378.1524636
-337.0958109
-345.4252079
-379.9698764
-424.7168679
-497.4334585
-619.3165163
-737.3078271
-816.0389868
-926.4005666
-1085.567006
-1271.264421
-1457.839452
-1630.848979
-1790.751735
-1943.505002
-2093.999246
-2265.059019
-2493.162637
-2762.259395
-2970.428585
-3052.619594
-3133.026257
-3312.834675
-3531.308569
-3596.415455
-3667.717944
-3779.838398
-3823.056722
-4092.146775
-4192.180457
-4457.955919
-4755.497257
-5119.825756
-5694.599624
-8326.884219
-6136.381615
-6145.653983
-7818.902228
-410.1753712
-557.3778659
-3085.776254
-2140.102094
-1608.352303
)


100
(
-129.6431094
-1167.291157
-1080.085943
-547.1302522
164.0454803
717.4456713
973.7946727
1008.323801
914.7216824
750.2387566
569.739833
397.9001294
271.9774718
222.8240547
231.7082144
234.7606872
197.4052198
134.3293961
62.16719673
-17.41185444
-94.92120932
-159.5926371
-209.7581634
-251.7389907
-273.7656298
-245.7434759
-156.2472763
-15.33339322
138.7827714
260.6986582
315.8538862
289.5052456
212.2588903
116.5603267
31.39784415
-23.12545516
-28.25646406
23.09896697
98.19738725
151.0025448
159.7225291
137.0353653
105.2948033
71.65264007
34.02685706
-18.86172624
-92.36631728
-177.6416072
-255.9549086
-284.4112405
-293.4811672
-346.1042117
-472.1845996
-614.1230148
-693.1553501
-669.9138889
-580.8577784
-494.7433265
-493.0659052
-609.5420224
-747.204255
-848.3057337
-956.2513472
-1096.454422
-1255.159917
-1427.246931
-1589.84711
-1730.093483
-1846.456982
-1941.725944
-2036.598969
-2168.556817
-2364.030896
-2607.371837
-2892.306663
-3200.40805
-3471.467979
-3644.31253
-3800.249133
-3990.139928
-4159.322525
-4258.105673
-4372.073321
-4523.606117
-4647.390418
-4954.613073
-5163.469801
-5470.607727
-5854.473875
-6319.692897
-6666.525597
-2812.02575
-7202.348085
-8633.704367
-8095.744094
-1929.006884
-2016.885626
-3586.4344
-2749.671697
-4306.079988
)


100
(
-131.199184
-1186.296939
-1178.005444
-710.1563385
-12.61608158
558.3947072
861.2578393
913.8802817
841.8239975
700.3901191
525.9949607
350.5296083
192.0693779
82.55230096
44.16453213
54.81119299
55.85447695
21.91977808
-24.4921436
-60.22125516
-88.46659148
-110.3197768
-121.1341097
-126.3193804
-133.629969
-142.091972
-131.4218264
-82.83625934
7.155352469
117.8554145
201.6171042
215.942318
149.3658068
38.86723759
-63.59927732
-131.7300392
-152.2757363
-115.9412596
-28.29690908
79.89420626
164.8801845
201.0995078
191.3421435
153.7137529
97.08781229
34.92827781
-34.76641699
-128.356437
-252.1491499
-375.9568071
-455.2044566
-484.1238872
-528.0059706
-617.7947418
-726.388254
-804.5040955
-820.0597289
-769.7052044
-735.952734
-825.2302106
-1044.337182
-1293.987515
-1489.435604
-1668.916593
-1844.021214
-2001.099308
-2131.911469
-2231.921285
-2316.449009
-2411.785981
-2544.763067
-2733.513029
-2948.71464
-3193.219871
-3467.691014
-3782.07436
-4105.386604
-4387.580744
-4639.419432
-4842.042443
-4954.094426
-5071.220119
-5215.625759
-5416.236504
-5665.052701
-6015.151591
-6327.678004
-6710.08574
-7153.793325
-7762.52733
-8315.442859
-7539.48565
-9523.597218
-11247.24636
-7499.769365
-3909.025162
-2809.742606
-4318.397111
-3440.917265
-4427.537109
)


100
(
-131.167002
-1200.104122
-1257.690529
-858.7722939
-192.2583105
391.3881956
733.2169419
816.4087217
746.8167844
624.4334486
468.9876231
297.2884366
137.1172749
-1.482853586
-91.95384548
-116.3295814
-96.85618031
-86.40716808
-103.0525795
-121.9507666
-116.9732378
-95.55895147
-69.4609087
-40.46627447
-20.95450066
-16.26810013
-31.48802012
-56.18465778
-65.72802481
-45.90292589
7.312408309
53.59118958
45.4464717
-35.88599485
-150.0503051
-230.5182667
-251.3761263
-211.0363626
-121.5698432
-10.33477022
83.45485591
129.6302906
123.480762
78.75042641
15.83586293
-58.64925519
-127.6368611
-170.733793
-225.4351803
-316.5854516
-424.9120729
-512.9345624
-573.7347844
-627.4210925
-699.0388042
-792.3384767
-901.3769501
-993.578319
-1042.059852
-1117.078578
-1315.700773
-1612.662836
-1927.02988
-2202.102027
-2410.485527
-2554.023665
-2659.47755
-2751.683767
-2858.141038
-3003.197184
-3194.423054
-3416.251968
-3658.264476
-3917.153418
-4213.417137
-4566.320356
-4944.98148
-5317.75582
-5631.746146
-5813.920929
-5894.190208
-6052.383601
-6286.447702
-6553.950044
-6880.801719
-7262.290915
-7703.303792
-8218.851829
-8749.915566
-9506.940166
-10247.31999
-11381.9345
-11864.0894
-13891.51425
-8481.740214
-5515.566137
-3961.644747
-5312.347085
-4376.389569
-5014.715668
)


100
(
-130.3966184
-1203.34709
-1316.406344
-990.0108182
-369.74714
223.9061415
592.0420209
715.7391402
657.4705689
531.9158959
395.1658577
243.3145949
86.6188102
-52.42023231
-166.3598454
-234.961913
-243.5639297
-210.4303293
-182.0562922
-175.5122245
-164.4840349
-125.4878706
-68.55584584
-11.92145873
32.43244527
52.00785225
41.02239345
1.264616432
-59.85853651
-122.6250316
-163.3334417
-156.7876985
-129.9711988
-135.6200909
-198.7238974
-284.1010074
-335.622065
-317.2864487
-233.9022487
-117.3560216
-17.0277854
22.74672155
-21.48824635
-104.7120611
-188.992939
-255.609814
-305.8299945
-326.9765639
-327.3433896
-337.7658942
-393.8964846
-480.5805016
-569.4588427
-648.6131802
-718.704832
-785.9120748
-884.7957236
-1042.274562
-1228.064211
-1420.155204
-1634.884952
-1904.791808
-2194.977883
-2455.286656
-2659.648137
-2818.411762
-2961.12714
-3126.185143
-3339.386609
-3597.454302
-3860.112018
-4123.175243
-4393.9783
-4693.73718
-5033.14912
-5409.890241
-5838.987316
-6317.097618
-6717.671295
-6927.240885
-7039.276819
-7237.749773
-7571.622472
-7933.377964
-8318.258221
-8779.578449
-9341.88151
-9968.225279
-10613.57609
-11565.25925
-12430.6775
-14656.65807
-14228.30861
-16657.59968
-7815.734036
-6748.524309
-5567.268012
-6548.611611
-5499.126921
-4280.900766
)


100
(
-129.8050039
-1198.327165
-1356.967708
-1096.927078
-534.5453616
53.62082545
447.9957623
607.122128
578.3449372
450.8551341
311.5580798
180.1713041
43.15582848
-91.38263321
-204.5019001
-290.4827469
-336.0746392
-329.0375502
-281.4837434
-235.3928717
-203.5455841
-166.0816635
-112.2067517
-42.81436775
20.38816371
57.06912757
57.09248779
16.37459504
-49.13558927
-132.5400776
-220.7666347
-287.2224894
-308.2462605
-289.1967306
-278.633224
-307.9981681
-359.6411793
-388.678838
-365.5654476
-287.1269325
-186.4649912
-120.2901576
-144.3719573
-268.7519392
-420.8525952
-522.3871119
-561.39435
-550.7410965
-509.8989502
-477.0891586
-493.3193786
-561.6262357
-650.5208784
-740.8281961
-833.297577
-918.4399194
-1000.289982
-1134.502382
-1349.483174
-1614.829462
-1895.996512
-2168.213814
-2414.984906
-2619.986943
-2788.019727
-2946.418427
-3137.13226
-3386.233968
-3688.853001
-4013.983062
-4343.844134
-4674.964651
-5029.96397
-5425.949171
-5846.638617
-6279.951429
-6759.144061
-7314.824277
-7807.560025
-8122.260489
-8359.310093
-8646.149702
-9070.975127
-9505.551516
-9949.541178
-10517.65597
-11198.68634
-11958.59278
-12738.78374
-13912.97566
-14928.22938
-17471.23921
-17037.41217
-18828.07597
-8099.018721
-7457.710655
-7263.608452
-7823.692452
-6801.4522
-4912.802961
)


100
(
-129.6122261
-1192.039717
-1382.329878
-1175.419798
-672.8594864
-116.7804076
300.5959206
492.8986085
500.4028432
389.0918369
240.1694193
109.6554854
-4.569113271
-120.5043189
-228.9334972
-312.0357013
-368.7167434
-392.0084156
-371.5725993
-314.0520522
-251.3028885
-202.5384745
-156.8853511
-106.4868694
-48.64402023
1.947851153
23.70922872
-0.8322066292
-69.14697724
-151.662146
-232.3055892
-309.2882613
-371.6695656
-395.3117157
-383.3510397
-366.6000817
-375.000468
-406.1255606
-434.227997
-436.4317626
-401.2250982
-344.2926037
-321.334076
-388.907741
-548.1778416
-719.8580162
-816.5648915
-820.3770883
-755.6246852
-674.9041082
-647.8115998
-718.7031286
-851.9648104
-983.1223477
-1101.970864
-1215.901573
-1328.4887
-1466.695139
-1659.092733
-1906.665511
-2172.761125
-2420.295715
-2625.354399
-2793.03579
-2947.858013
-3131.770322
-3378.5383
-3692.092167
-4046.314757
-4407.35778
-4768.377365
-5156.739029
-5599.005222
-6075.106684
-6572.31078
-7098.036345
-7670.233351
-8286.653099
-8890.891737
-9399.769027
-9803.390936
-10223.24492
-10721.10214
-11204.20382
-11751.20434
-12458.74621
-13264.9611
-14145.9864
-15112.40744
-16461.74945
-17738.12826
-20025.09905
-20148.56453
-21525.66752
-8206.511246
-8180.602394
-8821.091211
-9093.041235
-7916.556447
-2090.442986
)


100
(
-129.4571712
-1183.676822
-1392.628555
-1227.318665
-782.2680093
-273.7902111
147.6815826
374.5776027
415.8327002
336.6031894
195.0768047
51.77553549
-58.73394314
-150.8534449
-242.22368
-322.1233144
-374.2021182
-401.7002457
-404.6855037
-372.9242975
-316.5486599
-252.3479465
-199.3599952
-159.2400887
-124.664179
-86.86770884
-46.13672505
-32.37252835
-76.84737803
-165.6726035
-253.2877342
-305.9781568
-353.6153779
-390.1628628
-406.5852664
-406.7246277
-408.8152171
-424.9566485
-458.3434101
-497.6589863
-534.6502721
-555.651008
-548.9356013
-556.9593
-635.8548428
-781.2426452
-927.3722395
-1007.323278
-995.4836462
-919.057138
-852.1341285
-884.5732744
-1055.366246
-1296.03336
-1509.260388
-1693.686623
-1860.594735
-2021.38825
-2194.155681
-2392.405233
-2604.735693
-2802.41947
-2968.551326
-3115.355926
-3282.39833
-3506.872516
-3790.28899
-4120.78926
-4483.687925
-4864.448787
-5270.347505
-5722.771492
-6221.635167
-6750.960237
-7308.810532
-7914.65469
-8584.214554
-9270.775648
-9978.373703
-10674.67348
-11259.20496
-11823.47189
-12380.3423
-12928.43147
-13619.40484
-14482.16853
-15470.34465
-16502.40068
-17698.9441
-19216.85805
-20794.24704
-22598.51531
-23405.33915
-22668.53632
-9479.224197
-9338.068278
-10076.84369
-10492.07311
-9115.089238
-8331.667874
)


100
(
-128.9926086
-1171.705915
-1390.781499
-1253.884248
-859.507864
-401.1948571
-4.85072572
246.5556709
325.6298358
278.5610479
165.6371807
25.75190763
-99.18598992
-187.0671672
-255.7716247
-321.4811497
-372.3133441
-397.0107586
-399.8899468
-387.0453177
-354.6977435
-308.9587575
-256.2891657
-212.8533928
-183.347635
-158.59708
-118.3846302
-65.22416465
-74.68932641
-176.0482527
-278.8338581
-307.9420909
-328.4134569
-343.5132093
-352.463834
-362.6488225
-383.7063035
-424.6677729
-475.598375
-527.8407653
-584.4998138
-649.2843845
-705.6197531
-746.1684727
-780.2697894
-847.9693327
-950.0740295
-1046.349106
-1103.756814
-1112.309522
-1090.645236
-1102.366546
-1243.563824
-1528.480883
-1873.935037
-2192.608076
-2458.80876
-2673.545752
-2849.566523
-3007.504306
-3160.289801
-3310.108799
-3454.029881
-3609.092344
-3803.324431
-4055.559382
-4359.114255
-4686.293639
-5033.035813
-5424.833224
-5891.676884
-6405.543196
-6952.728353
-7520.291464
-8117.488363
-8779.889672
-9504.58687
-10275.79237
-11104.36016
-11920.32024
-12610.30684
-13226.18427
-13843.3206
-14606.86479
-15563.77233
-16574.88863
-17678.13799
-18890.77832
-20332.038
-21920.78812
-23806.67058
-25040.17377
-26306.87453
-24647.21705
-10877.10313
-10565.02845
-11216.23353
-11998.15359
-10098.8834
-6958.748484
)


100
(
-128.6688693
-1153.837185
-1382.80453
-1259.786421
-907.2978761
-497.0751939
-139.2488833
111.663051
224.2191607
213.5929082
132.4359442
18.52331864
-105.0895043
-207.9972532
-275.0970858
-321.6298439
-362.3185769
-387.1666457
-392.2420868
-379.3631256
-359.2618397