/*--------------------------------*- C++ -*----------------------------------*\
| =========                 |                                                 |
| \\      /  F ield         | OpenFOAM: The Open Source CFD Toolbox           |
|  \\    /   O peration     | Version:  2.3.1                                 |
|   \\  /    A nd           | Web:      www.OpenFOAM.org                      |
|    \\/     M anipulation  |                                                 |
\*---------------------------------------------------------------------------*/
FoamFile
{
    version     2.0;
    format      ascii;
    class       dictionary;
    location    "constant";
    object      la_i1;
}
// * * * * * * * * * * * * * * * * * * * * * * * * * * * * * * * * * * * * * //

la_i1_table
100
(

100
(
62586494.25
689577.6597
-1372234.551
-6174020.448
29016210.78
66325139.63
-131988082.8
1364027.96
64686515.22
-16488.46343
-13689602.73
-7912355.137
1674511.903
-24798403.79
1500623.196
743639.4362
26023979.75
-42201310.62
-1673470.591
-17802860.92
26339698.07
-8722835.303
1148272.062
376032.864
-15057132.78
2387094.93
-1983136.054
-16867172.3
11236771.58
844600.847
143484.3592
2495362.987
-8416485.75
970165.4358
12016034.63
-57200069.46
21818243.86
-5635977.519
-18458093.17
80455951.74
-21458276.68
15466980.58
-11342104.73
-17150465.94
23885766.56
14677166.86
-25362136.14
144433436.1
-7065454.123
-36284857.87
21901924.76
-56245838.19
42599954.75
-12353018.11
-6992017.59
26279931.12
-27098759.46
11978427.89
-25795297.15
23989880.32
4992846.21
2098705.804
1937486.833
-4064867.97
9512269.953
8026152.782
-3247072.682
-31206718.22
7204918.98
14952290.77
-8046088.698
-18402871.14
-1863944.48
1149898.184
13728857.51
-3830328.937
-9932626.089
-7067511.393
1716468.608
-302249.0333
-6777743.404
-4034385.532
20281978.02
-14839849.78
3044529.966
-8029546.552
-709262.45
10744110.14
-7056607.63
37831525.87
-38865742.42
-30621661.02
13418410.84
-13293879.21
-10685968.7
-2216250.674
-76285391.68
-127822695
241366188.2
87180.89308
)


100
(
68983052.98
837795990.8
322740606.8
258027309.2
192128368
167490788.6
132115508.1
120144452.9
91492746.98
84206305.64
79681622.27
61987218.85
53547512.2
48562161.15
39506177.97
36444320.96
29575228.4
25517598.15
28785405.68
16728417
12079218.64
19740428.48
11339559.47
2986625.634
8321798.894
18814947.89
4216364.274
-15378133.03
-1256180.828
22136120.12
-6757103.986
-8300155.324
-156492.7466
13110182.35
1887828.542
-10408140.95
-20091291.33
19468982.97
-120945.1214
-9676437.841
-18966433.17
-3764824.531
1971522.023
-14719912.24
-17716605.82
-7288274.801
8861920.349
514379.4364
-974133.3145
413233.309
-4153382.124
-18805843.23
-24937688.64
-34148886.7
-43479155.46
-31586319.94
-44289346.12
-29124274.08
-35732030.92
-23862760.88
49266920.58
-2623750.717
-105305376.3
10450426.29
208603746
-5460574.09
-290628429.9
371474865.7
45857454.77
-24033486.37
-121566616.4
155964961.2
39637572.91
-520670931.6
516796387.6
15516581.9
-387901937.9
437891941.7
-1289610.615
-430943793.4
458195120.9
-16965419.22
-526483039.5
217590903.8
-251218689.8
341363188.5
-2600080.054
-412773835.4
303529334.8
-319723783.1
143429006
-217139032.5
285924666
-121871873.8
224258824.9
-263304043.8
-597442655.6
-358565191.1
45166436.52
-10343045.96
)


100
(
78654225.36
824542712.5
280954981.8
276399129.4
162755451.6
104664184.2
107628024.8
54849035.16
63104647.18
46694916.51
42358883.3
34824604.15
20835448.51
21602677.72
16841704.22
13883780.79
11792569.22
5387203.917
10316886.32
5539574.038
4411392.372
-3647438.271
11294692.68
1622362.887
-1738476.945
-5267196.482
8421250.587
1844069.843
-976703.0873
-20571740.29
13203215.59
-2661353.333
-9838558.011
-15588158.58
609369.0192
4828107.897
3591450.532
-4607634.929
-16032944.15
6786607.883
-12140383.14
-23185399.26
-51090521.35
-51004366.42
-24379145.43
-53427882.44
-50362553.77
-47898107.3
-17875655.19
-21376649.56
-14489514.39
-68948371.16
-157715695.2
-155398413.6
-39187838.04
-15363406.06
-163118508.6
-84793838.08
14013516.16
33110681.94
-20190125.28
118150686.8
48923779.11
-80837147.22
-57099203.86
122910721
11070910.87
-106026609.5
55132439.88
-36580169.85
39086970.69
-68341144.61
26232714.97
-51757017.48
-601022635.3
-776394818.6
1270784193
-27104961.16
-402016398.9
419199662.3
-659039252
487416639.9
-1740927827
1015325827
-30209681.33
-830374700.1
469011454
-212517534.1
-310221785.7
368950169.2
368560154.9
337134225.2
64436118.24
568497558.4
7170994.114
75465998.97
417246572.6
141120094.5
-4076212.517
-8684.278904
)


100
(
81746447.35
809831132.6
355118248.9
293768212.9
120731824.1
89881979.93
53365142.08
52247556.31
27790099.64
44564563.11
10809475.97
14465149.39
12085521.99
6180198.465
4721270.901
5458201.101
897861.9084
1237438.602
-4633974.284
-2762145.713
1991326.209
-2754118.118
-11561013.83
-1002900.545
-1775022.818
-7457975.506
-19108808.97
-7249950.39
-661731.8984
-2900743.989
-26648328.89
-32426780.4
-5763872.211
-39145717.98
-34689676.25
-35971850.07
-11884415.64
-11809795.28
-6083011.599
-39720469.31
-123908008.1
-150365535.2
-137516970.4
-68170980.56
-105317155.6
-161680096.7
-91487133.31
23879437.62
34626985.91
-54284067.3
-15990956.83
49570905.75
-320197.2605
-162447999.6
-14498702.26
222341206.1
118504688.2
-47557730.33
-22478593.29
16504970.65
-663312.2876
21336372.38
12700087.36
-9370470.322
-7957388.975
-48764236.51
-6324810.68
-62477226.78
-159586990.2
-301028897.4
-192535526.1
-134910013.3
-113855426.5
-45139898.41
-683656773.6
-971114608.7
1233364769
-147948362.2
-2572775424
2022634675
-2772363.34
-1229803609
1128452107
-424469397.2
-473966424.1
-305159414.3
230504243.4
397020499.7
421649720.6
282194021.5
688760083.4
451878844
392571266.7
-70799350.08
341873796.4
378109964.5
-684101325.9
442766566.1
19606110.6
11798398.08
)


100
(
72460612.01
790757776.8
422198066.9
249179547.4
126290784.7
83397007.96
26403493.98
43219456.69
5789064.846
19572385.55
13040491.54
2502993.273
6482633.084
1664693.762
-62112.23751
-1393762.761
-2196443.084
-2468922.457
-4214095.136
-6864694.481
-12118011.32
-315493.6154
-8827838.8
-18425507.8
-22756917.11
-9399434.674
-26978050.72
-40457933.68
-47947223.19
-22552384.13
-25310396.64
-30297089.51
-113016789.4
-115739420.4
-117366741.8
-56127179.9
-51464908.72
-42383717.27
-35251793.26
4541021.186
-21987862.21
-147593063.5
-158632937.5
65837820.05
183242210
75787933.71
-132326456.6
-11112698.05
102104133.8
51550797.58
4564103.034
-6096649.331
-22162767.73
-45406804.79
-36776986.14
53430894.54
-157363.8777
-66293361.41
54643961.27
-19805991.38
-62542653.44
-86570414.58
-233779069.3
-282726314.5
-187251044.3
-88866220.9
30099476.11
35630724.12
43336549.02
-9926341.376
-32660075.16
-87212167.75
-672723122.4
8832123.235
1577764748
-181728375.6
-1679679340
985850009
332170305.1
-336891050.6
-678683292.5
-1228548123
-65674904.84
201780432.2
233729273.9
935761659.5
85150903.71
621283360.1
-53197379.54
2143010330
507749739.6
-162759854.4
467163210.3
86707989.73
424941373.4
314966896.3
-1336018052
224543923.7
33800029.25
21943692.73
)


100
(
75030982.08
738421033.8
404845487.1
267187498.3
173345568.2
55868091.04
26838883.41
13444894.86
20396616.97
254973.8893
13912479.18
-3241403.24
-935469.5636
1335796.832
-2952537.265
-3671082.032
-4694071.167
-7516509.814
-5462309.595
-11098507.31
-14154615.13
-23900700.29
-11298742
-27351063.97
-33004119.49
-65553318.66
-73906090.12
-65339033.17
-54089713.2
-75048309.3
-61603207.21
-31895107.7
-14591794.44
-90437594.62
-138613863.6
-38409763.39
69050278.65
72326420.7
-7462552.808
-13285081.68
-1535470.469
-70145723.89
-122662881.2
-33819414.25
116742836.7
57835255.77
7317418.009
19182525.78
-16349115.03
-41124317.93
-24409461.55
47864886.42
-37262469.8
-89201846.58
-50664337.48
649940.1494
-15287016.46
-172865414.4
-196503476.1
-219836780.2
-331328670.8
-344536475.3
-57440285.8
168653718.5
106006494
-140873500
-165412013.6
-8873101.549
-52352324.06
-184807643.1
-698550810.1
-377719239.1
-84372118.45
-77222214.76
-642646491.7
1501115400
-222922518.8
-285426561.5
-1192167741
-818001405.9
572388266.4
947263437
-659556326.4
206815575.3
226585223.3
559600813.1
1481880129
839197602.8
1316835762
-335993863.4
363466619.5
541683467.5
69121474.7
366277681.9
-120247874.5
1155237839
-12197849.16
-50784269.99
116321044.3
8707694.533
)


100
(
82501055.49
685444195.6
411946448.5
304583453.1
202129284.5
40141424.91
33646604.45
-448548.2466
12073667.52
-1564755.087
-217449.3675
6240114.844
-8753959.391
-3717229.262
-2775618.911
-5651062.04
-8814018.523
-11370591.92
-17237818.86
-12174333.82
-28222956.9
-39451297.89
-55025184.83
-39146084.19
-52746243.28
-57968071.9
-71157635.21
-74836668.09
-17783340.73
9532040.681
-23245443.76
-45859337.41
-8195883.679
-5721765.512
-70469179.23
-74575750.77
26903586.44
65423982.31
31941973.13
35701246.64
-999908.116
-91256677.3
-131175411.7
-33655275.78
60292272.16
-254390.7395
-110430867
4996039.177
71822663.85
-43724866.5
-99959065.38
-114946386.7
-271016259.6
-335012380.4
-264482612.2
-139484764.1
-3413810.172
56063481.13
72097416.75
111391121
152282526.7
62056021.08
-128273846.5
-427124281.6
-236437573.1
-306505014.8
-613577870.7
-624883509.9
-875344433.1
-427771032.1
141298364.2
322888331.6
-68150409.35
-138719342
-230918096.1
-847069263.5
-152028652.8
-36038558.45
463031836.8
547337090.8
172479291
273285754.9
703218901.6
682437481.4
1138788880
960131913.6
239221321.7
977327836.5
1515388300
902109128.8
505166733
561117854.9
869414765.3
779422562.5
640306636.9
-984875507.8
155991642.4
72737580.84
-179655018.3
91685945.29
)


100
(
80080047.85
632864936.6
428743280.7
328095716.1
156785199.3
62987170.56
19604105.11
6818448.25
-896520.3792
11271645.14
-12179987.55
-2527147.282
-973064.8992
-12944621.6
-8853256.213
-9040775.902
-10602938.32
-25240624.36
-37611261.93
-36809118.78
-24609554.35
-47869277.95
-68438024.62
-69026497.26
-28841594.59
-18147607.26
-32714428.21
-45285957.15
-12881307.22
48653490.24
40737871.67
2844252.828
-8468616.563
-30292821.08
-74816135.2
-57034878.78
19062164.35
-969538.2363
-81998364.76
-7251418.252
86216357.48
-29898018.53
-194448311.4
-126640471.2
44828537.08
86697416.86
-12672598.84
-77551092.23
-114417000.7
-320512552.2
-315312260
-219618033
-72597535.57
4214976.31
-103595662.5
-265554529.1
-132972387.8
12238539.5
75732730.49
82262906.79
65461179.53
44893020.91
-152657110.4
-482495325.2
-584962716.3
-774029939.3
-611816403.5
112550608.7
650777390.5
89330360.24
-648089503
-633575222.3
-883810286.8
-637067813.1
-258974743.9
-413152361.3
765859484.1
630910548.2
-178315467.9
-529718229.3
563771597.5
1025098192
1298276431
1117580213
582164916.5
756331067.6
665559012.6
-316466995.6
893582561.9
103305280.4
-1305606670
-149396253.3
-591578544.7
-220339965.7
-643064723.8
-1407787607
274209155.9
59672517
58909120.1
-5015595.866
)


100
(
64576045.06
582042594
450535156.2
290879568.3
145181874.6
85481063.32
5622412.631
14442181.96
-8726419.022
-2634125.846
942956.0565
-14020470.01
-8183663.764
-10013596.95
-20459550.68
-21962947.48
-25065343.76
-27780806.68
-44622506.88
-60417655.21
-47368978.16
-6629732.168
-20786488.98
-51043763
-41614564.97
5781142.183
34423975.73
1640580.838
-17224822.76
32098629.54
18823676.6
-29504548.01
25077428.42
18500582.94
-99980331.99
-146457404.8
-6687686.02
68020489.08
-70099590.22
-152340540.6
-16273130.15
73865054.55
-90324413.69
-180809665.6
-105299389.9
-38945694.6
202810.6328
-33651018.5
-88214157.2
-147152583.4
-232540474.9
-206926552.6
-96838008.63
85739770.12
228469062.5
97894717.54
-121659659.5
-384369952.7
-454499914.8
-539251435.1
-649565389
-341137735.6
-64145993.19
-45668261.41
50712853.2
42236392.86
-84608628.02
-351635414.9
-281098287.6
-221214503.1
-732488172.6
-513017124.5
-934629209
-198301109.2
980860633.9
272140055
-786557897.6
-900908973.9
189504875
693393196.7
839981936
748499025.5
-96605067.83
819088632.5
1492646597
1412958521
392965336.3
420473001
484156815
888111286.3
2176998016
724129436.4
1563206761
535000761.5
656770580.8
-1635261301
209898447.3
172549729.6
163511115.9
61056629
)


100
(
45148317.35
549243449.7
440732413.8
248375773
167934714.6
61703174.84
13263649.32
1701255.38
1699526.878
-9208348.972
-3816146.772
-11418237.43
-15499272.36
-18624994.83
-19577255.63
-32706169.79
-47867027.9
-35619346.96
-11186955.55
-32883000.59
-56051920.87
-24376403.76
36346533.04
26761372.25
-20523414.7
-30420299.18
21141647.18
70427315.51
33369323.58
10308106.82
13438011.79
-78600908.78
-75494828.89
66039981.29
3176072.198
-193880840.2
-158498356
46811130.65
95458851.16
-37239011.15
-100355033.4
-74250014.88
-187396146.6
-201377949.4
-183552235.6
-67778237.64
39082251.61
103449814.1
105694135.1
52170956.51
-21609788.36
-84835747.3
-81244080.76
-101293381.9
-82828417.64
-27513146.34
-161029616.3
-409557114.8
-601416494.2
-758553319.7
-598186587.3
-85507697.87
377409362.5
298816497.4
6188818.339
-223584063.8
-366681155.5
-653467009.7
-539251423.7
-338316819.1
-399084135.6
203993693.5
332708815.2
-248005584.5
-1063381941
-764731616.4
167581145.6
527472170.4
685604110.6
635521708.6
-69839998.19
286852917
1525818809
1865685553
1124762864
966752110.9
1052173662
-790072041.9
-831303394.7
-510990738.1
-1554392143
114172786.9
-717601947.4
-359954064.2
4377870897
-2598832273
310774256.4
106071756.7
146298410.1
545840929.2
)


100
(
45186231.85
525950301.6
434330052.3
228339244.3
171255234
35368101.4
31070449.66
-10087974.98
2734536.266
-9711137.481
-12166702.46
-7096757.297
-23679606.27
-28174497.82
-30539662.23
-21047055.77
-35270238.91
-47747610.34
-14730068.4
32421782.21
8401078.899
-33865387
-8159314.995
52586876.22
56446048.59
707181.7572
-32639362.85
21448509.29
93064228.15
66889460.45
-15305915.43
-79554387.14
-230859780.9
-94756247.63
93625335.49
-10190660.99
-153362496.4
-96069354.76
32276067.72
41285411.08
-33674208.1
-115322334.5
-164671354.6
-220039130.6
-190606975.7
-91413750.29
14771911.14
110397767.4
114253816.2
95609008.65
32585817.35
-101871922.2
-201908601.5
-240026212.9
-348703730.6
-411102843.9
-325895133
-192203684.8
-60438417.35
-59710285.74
-180102653.4
-390734232.7
-299465688.2
-98032229.78
-433135571.1
-1012462819
-808382612.4
-472768187
277372081.1
855117061.4
42285064.07
-984514623.6
-978921195.3
-827081693.5
-184321396
-94154381.51
417872809.6
442250244.1
-256304769.2
-236702004.2
1109815821
1601997192
1585366230
701020929.9
1121533982
1231201051
1144550016
1394696699
1802174830
877249438.8
2244250442
1135705954
1278242640
3818157252
1148536109
-1884778394
274524693.2
232788640.2
180201685.8
178648372
)


100
(
62571200.78
485283236.1
428335039.4
228851343.4
129715334.4
39081253.57
15376811.55
-1052775.436
-6641809.486
-1608549.954
-19085051.76
-20999443.14
-20531913.82
-33471300.34
-41159161.46
-31210107.22
-3019451.591
-11239053.71
-27424830.22
16258703.44
71328921.74
42296516.99
-14267062.85
-9630902.523
54635433.39
80699659.24
24394202.94
-30454749.5
-3944942.908
57444114.31
51539185.33
7340538.218
-141913476
-237995301.3
-55650693.72
55203158.04
-18103489.83
-120855347.5
-97556014.08
-32662295.31
49175195.08
71243238.4
28889741.4
-27178693.21
-72274986.98
-76190052.22
-77690537.6
-40775266.47
-26907067.8
-88421778.67
-206806628.5
-423585908
-630337986.9
-521247691.3
-292660629.9
-26152327.79
82240022.53
-194684.5057
-128566758.7
-168086379.9
-220723168.9
-351679769
-786338907.7
-1173935508
-891997375.7
-295464435.5
236263520.6
80493536.94
-294695246.3
252847081.5
-323447814.8
-946284949.4
-527362728.6
-213810007.4
-124796040
-643428290.6
-1370358696
-1041655708
753097088.7
1608514471
1732264935
1093514152
416072251.4
1178244411
1549549473
926853347.9
1378596278
802235969
343906196.8
939646215.4
-303174572
932225728
867431026.8
944583465
-4101553417
-760319412.7
417575433.2
137187066
91514037.88
122393804.1
)


100
(
60395093.98
444416933
415416704.8
200009558.7
94246321.57
53725553.53
587925.3903
10596261.3
-17195285.09
-9690384.088
-10888676.95
-26433505.38
-32729480.09
-29535768.08
-30248075.54
-33726843.75
-11861848.66
22432892.37
14289264.07
-9648097.339
26114956.3
79421826.07
62402657.08
2920910.113
-15083678.89
44486286.48
87319086.43
47246162.09
-24094182.78
-43299366.18
-14186034.91
-377037.862
-2392060.025
-98828563.95
-160894984
-107216857.5
-100390913.6
-56337071.15
-45323995.07
-41139490.48
2940388.203
90684328.25
165821153.9
135017593.2
42533613.95
-41239949.77
-99136752.2
-199325096.7
-361093532.4
-508897793.7
-628468310.3
-473256154.1
-290691904
-222794113.2
-258473978.4
-121693199.2
53942788.03
70959987.81
-184200162.8
-660226806.3
-1199176718
-1139132251
-522311036.1
-21468833.27
-172168602
-645010036.9
-215223053.6
-62845380.78
-492475629.6
-848183102.2
-166275007.9
508290459.5
843684853.6
719892814.9
472743483.8
267697475.8
559605252.7
408978687.4
1071238463
983108204.2
103388471.7
1257017868
2066563634
1970073309
565390830.3
368072938.8
1101418734
220719249.9
116655444.1
342230165.2
657179639.1
-949140030.2
-2115725636
-2822819084
-3165150149
903436229.4
295764282.1
-365523317.2
-47730376.39
150915212
)


100
(
42273242.66
381352718.6
394222221.4
150643210.8
93840872.61
41717804.48
587289.3246
-5034734.596
-4371409.196
-18662896.25
-15524307.76
-16001049.35
-28130052.09
-33720492.97
-14381301.88
-6321415.43
-15095614.5
3195807.434
37178031.85
32473289.95
1928511.822
19413017.05
76334116.1
83867323.34
26341253.98
-18212212.69
11409486.14
50961591.05
38445380.16
-32592315.02
-100492662.8
-119586652.2
-119148199
-74157427.21
-42118638.12
-96372249.56
-132938714.6
-122385031.1
-41687943.84
38536966.88
33052084.21
11416702.56
31254861.32
87951507.84
84406934.42
-21042193.21
-167745053.2
-311558879.1
-457181916.9
-547090317.2
-479021385.9
-252020519.1
15597575.95
189513011.3
82577488.62
-174775752.9
-405392493.8
-511742247.1
-778314680.7
-898035796.4
-803033602.3
-785474423.4
-557952854.3
85613601.09
404068941.9
-235929638.3
-1109743509
-1621425367
-1003157874
-349834113.3
34520379.17
202087573
374590753.1
242640249.7
167501119.7
966604521.3
1254841640
1028604475
202759509.2
625081287.8
1857492213
2262503899
1544831602
-363954557.3
1321004798
1851899128
381191100
479315614.8
1368827415
773772918.7
1508476833
-2512550498
515972819
1938023344
-2187384219
1101804946
95049507.04
342832310.7
11789369.85
-35296153.48
)


100
(
26785338.64
356797080.5
385433456.3
125655454.8
94366108.53
19217305.31
13693437.03
-14638776.84
-5718357.225
-19853007.82
-23057322.83
-15662638.67
-12380912.86
-20122706.72
-18179463.15
10452676.54
19057046.44
-962315.3071
7757189.836
44718082.04
50560482.41
13620697.03
9619072.651
67480944.33
98392631.45
50156903.31
-17960479.28
-39380915.98
-29243328.71
-39949228.42
-80439909.89
-158559314.7
-186331320.3
-151913894
-61434986.9
36323168.26
21554715.43
-58643092.73
-95149810.87
-26601928.21
49062848.36
39509276.03
-45802285.23
-121992111
-169650000.4
-247657808.2
-300416675
-243930667
-222386282.1
-238484173.6
-276548675.2
-162990929
39907372.48
162756974.2
154212352.9
-105915417.6
-553417190.6
-1045689392
-964071350.7
-562226205.2
-41214644.1
150644081.9
-217697155.5
-621891375.3
-493981284.6
-732160531.4
-890530093.2
-734151593.5
-547153241.2
-303855785.9
-425028671.1
-1055691471
-1642906060
-801165611.8
421876482.5
1253240837
1376395509
958495704.2
358695630
897472592.7
1089980078
1290960815
713032130.3
1499491251
1485803682
-187884846.7
465119554.7
1228732442
774300664.9
973127231.6
358038304.3
-2.423741346e+10
1777204514
1157927636
-4206458828
1031613052
378451026
429232502.7
496909900.9
295744183.6
)


100
(
31574594.77
338235806.4
366933223.9
110694191.1
72142048.8
13166838.8
5575114.746
-10808384.31
-16164746.26
-12489033.81
-28350807.49
-25393716.39
-9847025.178
1737420.282
-7623452.744
-5083767.645
27693457.56
38249638.67
8890660.183
6293302.718
49242295.82
70588721.99
28336452.51
-2607895.985
31748392.51
68620558.96
47577252.51
-31465880.81
-107200138.6
-138753334.1
-143820242.2
-90103849.01
-76070231.46
-91590688.34
-83821004.66
-1625484.238
104266071.4
110654614.9
-164914.8942
-98581890.91
-99588410
-77898880.52
-122628034.2
-219905745
-345315442.6
-382693139.8
-337861511.5
-202226135
43489468.53
88338119.36
-35342569.2
-153790487.3
-112254543.5
-65860293.84
-115730471
-263396554
-439949447.4
-568451815.5
-667901874.2
-332689767.4
78225080.89
311290632.8
90156557.85
-593201632.3
-1219623878
-1093662913
-608087417.5
-175874576.2
-131493575.9
-381163434.7
-527164806.1
-745125886.8
-400202416.3
-111321240.3
389035409.4
348945618.8
-208805139.4
184576692.5
1376981022
1969215364
1738412178
749594419.6
715761004.7
922546975.6
775172364.7
524854370.6
711170922.9
1211445808
2051154014
1321611095
3093236785
-566868137.6
-3516241374
-1329553921
-1554802938
889051033.8
874737430.1
425293619.1
425850644.2
568034732.7
)


100
(
45054484.1
309260599.5
335563569.2
94263940.45
43472256.38
25209503.26
-6999345.888
-3101213.147
-23698287.83
-21076353.03
-18580993.35
-23511969.09
-17054854.32
4442978.432
18117528.6
510961.6855
-1509863.841
36782656.88
54994390.25
19105501.7
2400719.533
45776673.96
78565751.09
42566115.74
-17079986.73
-25321632.06
-5254009.294
1239797.449
-38847601.44
-125743934.4
-178903124.1
-154452286
-37702775.6
62228059.05
41246072.85
-21587704.23
-14425626.73
74511202.11
103989711.9
10679196.27
-149841338.4
-253576892.4
-316594761.2
-371442683.2
-319627992.7
-237122038.5
-196324211.8
-153005767.6
-40650135.34
130417374.2
137229234
-76546598.75
-273806473.5
-337660032
-351678085.7
-262547817
-65600961.65
-52773562.33
-196059649.8
-218935015.9
-50888392.05
-16453195.09
-147669863.9
-321149720.3
-132367496
17862843.67
62782551.73
153453340.7
-9238590.076
-522973585.5
-955971779.5
-452466062.7
300602437.6
488828886.9
322574701.5
405253384.5
793059738
1619194233
2016176893
1426179436
723997102.2
1775996698
2549867073
1590390431
166428398.1
1951777153
2415724949
1491744069
1284381388
2112351130
2842108616
2.990362091e+10
1718009363
2027158997
1940744920
630364004.3
752093745
701190672.7
474226163.1
880794940.7
)


100
(
40057104.08
262192281.9
296517315.2
76113130.29
32924649.7
18660996.44
-12216306.48
-14445934.9
-15797076.44
-26084784.87
-23001001.8
-7251175.663
-7076707.74
-5276421.003
19818974.72
32997628.4
6001658.416
-2042769.344
42555484.89
71332216.88
30912059.84
-5436163.679
19937821.87
48196679.12
30282348.07
-46122707.2
-106786032.6
-104969237.7
-58688607.64
-798943.6507
-32248226.22
-114261611.6
-130712161.6
717213.4225
154997949.9
142494819.7
26362415.95
-58665044.96
-53321245.13
-68778479.85
-156859361.2
-242631380.9
-321026370.5
-316517414.6
-271874461.1
-152796580.3
-8254109.145
-10824783.67
-113206285
-132773501.8
-111579551.8
-245753403.1
-407442998.2
-430935864.1
-351759011.3
-201577250.2
47345745.13
252732114.9
61595680.33
-269626812.3
-280078477.9
-226610807.3
-109090249.5
315909776.7
855213854.5
998934585.2
726121502.3
251881328.4
73203345.15
155880690
394889158.9
490820633.2
753274076.1
691169881.4
227951724.4
391465199.5
1778678339
2754424879
2880855964
2205880394
1395933645
2162890579
2688572545
1980818228
2510038699
2426361358
1640818604
1727086866
1305233765
1674793520
1855884429
6474101560
1852777746
-141048687.8
-266650822.1
877584943.2
603480314.1
913221625.2
751489442.4
509558220.9
)


100
(
26848216.65
225092884.1
270646629.3
61952077.83
34373751.77
1156485.031
-2656958.972
-24354110.09
-18425543.92
-23177159.49
-24552817.76
-9978449.505
9870473.743
5566001.713
1995002.791
31139287.39
47136647.87
13718878.26
-2690869.234
43797208.67
79758265.78
41205979.15
-16622042.89
-26290200.9
-15628948.09
-15511399.63
-56846908.61
-128857079.9
-138416292.3
-51700777.77
96417843.83
106575048.4
-19361488.23
-121231565.5
-38984206.51
121856488.3
163083890.4
54868644.18
-96890263.73
-215524329.7
-290833739
-333436229.6
-193468282.2
-77150626.05
-62216991.71
-94619244.72
-45079539.72
-939065.8928
-74535488.03
-261462433.7
-437336153.8
-476013024.4
-464338430.9
-378285015.5
-220595053.1
-153102950.8
-144991526.5
-24251140.46
-25415283.12
-273676530.6
-384723158.2
-152165846.6
114910173.2
256398775.5
352228255.1
453608362.5
381558980.9
118194792.6
180844414.9
946725420.8
1461543232
1335620334
924595824.2
932087141
1118265694
1178911160
1900992274
2806785262
2882052415
2803929793
2404961060
1982118718
2312225940
2337356309
2684153068
1768515123
1634006094
1782065751
2698468939
1488650180
1551846601
1164195211
-20141834.96
-1412539997
-461116131.3
1381769354
679850466.3
952183937.6
1035607756
1115697311
)


100
(
16455592.69
222176007
249658255.1
50348185.46
27388362.64
-8711491.267
-10098422.43
-24450116.08
-26430442.01
-20831949.91
-21602964.04
-16771966.93
3385413.692
21884086.91
11067762
3229732.355
38252711.93
61063082.9
26495941.02
2224586.683
27591068.54
52708420.01
32921176.28
-37330121.36
-89852247.12
-89396225.56
-54414509.11
-18159899.42
-55341618.1
-102128319.3
-40758276.68
124151107.7
188983578.3
69387738.75
-89507526.81
-108083144.8
-4170321.985
51314609.04
14423823.68
-91878062.97
-224773799.8
-344985304.2
-328448839
-70351629.12
154344207.6
123133242.5
-10300919.55
-91591939.89
-169959206.6
-386691462
-464941765
-399696441.6
-280180455.5
-211559853.6
-130865868.7
-105146021.6
-253194835.8
-437138587.4
-474887989.9
-470800447.3
-311082631
38599404.53
328025252.9
323769084.1
-34071771.25
-481007074.4
-536459579.7
-190032750.3
199748695
478995117.8
827447617.8
931884540.4
783574222.2
1140067239
1909998029
1955174573
1540887593
2299482961
2964103019
3316750840
2846918397
1503910340
2068662847
2588333025
1928169219
1301442291
2153756133
2131391691
2307849782
1875891403
2202161428
-158480156.9
888934324.1
-2878878201
-28812024.42
1827539523
1005822601
979194729.2
1263241380
302350141.5
)


100
(
19034711.25
196601026.7
218964122.5
41589216.5
13063596.1
-2597893.486
-20503715.34
-21044070.06
-33228151.76
-27286858.01
-15927951.38
-12018280.41
-9634278.975
11852277.89
31518614.39
14811967.9
2096389.272
40186683.25
70838805.12
36106456.11
-12452625.5
-11386575.33
7209210.843
4136896.603
-46333947.47
-110334839.1
-118534585.1
-42392973.76
71712560.04
62102300.78
-37256462.99
-61774455.65
67425359.64
180831047.9
126536136.6
-31125634.71
-141379259
-153115212.9
-109282981
-16234897.02
51843555.64
-39592648.21
-230036472.4
-274224099.4
-21637977.1
225888701.6
204709038.9
24094165.38
-176779645.6
-372994199.8
-526109638.9
-321082443.7
-10081494.44
44513732.21
-76634428.57
-201385225.1
-427176983.8
-662910452.3
-620522338.1
-360243761.1
-88948801.88
64941954.14
79945771.49
-54737595.54
-376444905.2
-735424621.5
-668930791.4
-153433183
242938642.2
133184777.5
-244296729.5
-250465942
169706672.9
786811900.3
1418086484
1828266470
1643487889
1987472004
2937383312
3330044333
2964487978
2421013440
2639490014
2491142600
1671767636
2066958595
1918521356
2343574704
1968688522
1781773430
1650072302
-82033075.55
179241855.2
-4810084496
1061981040
2208892563
1222064179
1292984243
1667086003
1261754502
)


100
(
19989681.9
168976246.1
182706399.1
33933320.71
7209386.549
-4322923.481
-28075683.04
-31597176.37
-29056503.93
-31675245.8
-19943343.55
-3554190.808
-2666676.301
-5988737.604
17550749.71
40072305.54
18910405.73
-1642353.789
28240697.15
55676718.44
32804414.75
-25558260.21
-58139327.82
-51374446.49
-21940630.64
-14710777.88
-63305596.09
-100643078.4
-32315479.49
104136469.9
141219945.7
32723285.27
-67809900.58
-30295124.62
70576291.26
88214108.65
17684874.8
-101869436.6
-186150853.6
-183965733.2
-9271541.683
218943291.7
167556389.4
-91024523.13
-226492934
-78822223.85
95991728.83
133494516.4
67238493.96
-126929300.9
-400875932.9
-499214718.7
-116624311.5
233215555.6
116139202.5
-164420023.6
-366056783.7
-465195701.1
-407854440.5
-146025176
93282627.13
113392870.3
-155198632.6
-544311084.7
-710369315.9
-456003131.8
-130481308.3
32185253.75
103555478.9
-63773465.6
-443346596.5
-551792091.1
-50497362.53
389761691.2
500282418.5
793092954.4
1351852297
1776169144
2575361826
2874279304
2760796183
3599520695
3559308213
2216336075
1850266239
2455985879
2026400317
1767148852
1806812087
1445915761
1569508123
732973082
-854945909.4
-5268543192
1859475937
2286538170
1187245631
1664440654
1642037007
843450165.9
)


100
(
11493061.41
127043842.3
160535403
26691727.42
6807659.713
-14995974.67
-24382845.66
-38609943.84
-35463961.47
-28571658.08
-22239877.11
-8534439.447
8316423.064
2869825.39
-5822797.645
19401390.55
43524038.51
22347189.8
-7823423.296
3617292.8
26584180.42
20108709.78
-35831881.46
-87826910.11
-87310443.73
-23745733.81
52011098
22151715.89
-63968852.24
-61718397.84
76657404.44
172225472.2
115812419.6
-27034183.69
-103654488.2
-92458965.33
-49376917.4
38379916.38
39170553.1
-73112966.79
-175184110
-61297177.55
188382913.3
234316749.1
33306244.28
-153199872.4
-157141296.8
-93563667.78
7863747.375
188227103.6
69349255.37
-307315711.6
-407508636.1
-49215362
194237315.3
147326662.9
126647699.8
259585289.2
345857510.4
315497227.8
230741975.5
73258024.43
-208010067.1
-513887794.9
-532459268
-57306843.3
392317775.8
330024101
-32046357.93
-205980832.1
9159273.98
308543827.5
444271333.1
506332903.3
265423830.8
222391287
1117928975
1603028008
1715989377
2173206565
2587343923
2955175851
2374393077
1427087523
1741809466
1449813811
1641329828
1502179975
955523345.2
1275235479
797942893.3
304642422.6
-2108500425
-5838445155
1652729194
2342174990
1300091829
1873318958
1773640481
831514087.8
)


100
(
5064283.98
110022122.4
148947713
20616544.57
5116058.255
-19735836.82
-28476110.97
-40723307.67
-41210066.23
-30525823.69
-22095741.49
-15016617.75
-142289.5245
15215648.36
4985494.936
-8276813.034
13711459.8
37303546.74
22842146.22
-16234744.31
-30474276.47
-20363052.56
-4269689.858
-17873211.42
-70782713.19
-89174299.37
-15620753
95784926.51
92677621.88
551905.8259
-62514117.86
4655074.526
113141625.4
126172040.5
28374708.92
-108564833.1
-188862148.4
-161617763.1
13012765.58
169841403
82768024.47
-127057202.1
-176529702.3
-16646828.26
58760541.1
12301130.53
-71769946.62
-163925176.5
-206101483.8
-18554870.38
268825788.4
168889475.5
-226009610
-307778453.2
-29559957.65
208913216.9
458349152
824555016.6
1090778432
985901266.3
623503862.8
237040779.6
66265834.17
152115745