/*--------------------------------*- C++ -*----------------------------------*\
| =========                 |                                                 |
| \\      /  F ield         | OpenFOAM: The Open Source CFD Toolbox           |
|  \\    /   O peration     | Version:  2.3.1                                 |
|   \\  /    A nd           | Web:      www.OpenFOAM.org                      |
|    \\/     M anipulation  |                                                 |
\*---------------------------------------------------------------------------*/
FoamFile
{
    version     2.0;
    format      ascii;
    class       dictionary;
    location    "constant";
    object      la_i10;
}
// * * * * * * * * * * * * * * * * * * * * * * * * * * * * * * * * * * * * * //

la_i10_table
100
(

100
(
2.972740691
-0.01326131004
-0.2304867897
-2.457658398
-3.920708001
34.5271877
-28.28691609
-0.8452049726
10.62683809
-1.036836621
-3.259014853
-3.325716945
7.273282618
-3.181845186
0.2726647404
-0.9291732804
2.652725007
-3.969679374
3.288557545
-2.552119824
1.910949822
-1.335701282
0.7655465993
0.02954962277
-0.8313763513
0.6551819652
-0.1006551205
-0.2927758361
0.1605069922
0.06686159029
0.04892975063
-0.04246376933
0.3369217419
-0.2006628426
-0.4976725333
0.9562253666
-0.6219316318
0.4078489572
2.458001588
-3.836698401
1.500153293
-2.008555054
2.851108492
2.097574611
-3.823685896
-3.793282371
12.40387527
-6.986519276
0.6170783037
4.124239117
-4.34731409
5.93051209
-4.497785973
2.673720067
2.141125215
-9.881242572
12.29885631
-7.250144217
5.899197757
-1.792439122
-0.3970714306
-0.4300667221
-0.3455193087
-1.030087925
-0.9534257721
0.142780478
0.2752415183
1.891043157
-0.8225737942
-1.741753568
0.627298943
-1.593976681
-5.679362101
0.5095148255
4.030072033
-0.08303690743
-3.066754752
-3.442530899
0.7232530267
1.512198803
-2.787124423
-1.375540572
5.984033827
-3.408675466
1.199486563
-1.78355547
-0.1291758361
2.01442131
-0.6441059892
4.612596232
-3.030040213
-2.263254289
0.7627584568
-0.4420615873
-0.2908297829
-0.02869195458
-0.7422129791
-0.3749044652
0.7639603463
-0.001863735188
)


100
(
2.90630033
-273.3386611
-305.3562725
-323.2339871
-340.0470248
-353.8067235
-341.6814953
-355.2461239
-342.7644029
-344.753076
-340.1044388
-327.3798272
-321.6202763
-304.9644847
-295.3473054
-284.5563199
-264.1981239
-253.0930975
-253.091269
-226.6400661
-209.9271509
-215.5690645
-203.6384232
-185.5310323
-185.2405647
-185.9278225
-157.4405902
-141.7045998
-150.0554113
-151.5814897
-124.2231478
-114.4111859
-131.5211692
-128.738558
-94.15844697
-72.23497872
-85.53322287
-98.38228248
-82.07619873
-60.45270412
-72.12939391
-92.70912308
-80.29138827
-56.89971701
-63.87768298
-89.08374128
-69.46661353
-37.84872879
-34.17622613
-66.07625151
-81.87347789
-67.88368489
-69.07878028
-100.5537504
-114.5781889
-100.9967646
-111.8265234
-184.1162438
-306.418906
-268.3162676
345.3588094
57.90341162
-521.2464784
-208.4561543
335.9104435
44.65613544
-518.2021892
73.1113294
228.6789434
-102.8859582
-266.2401593
191.1250708
94.75369959
-393.3075268
121.2663282
211.0799081
-362.4360986
69.72658991
179.9159553
-289.5212814
137.5665042
-28.90964199
-117.0953592
160.7479211
-170.4823371
57.18781287
-26.10723146
-30.81385256
11.00560566
-27.87670313
-7.047910693
-19.13644173
-14.45129159
-14.27754705
-14.08486205
-13.28736211
-10.6134108
-9.00589485
-13.88139502
0.7939559001
)


100
(
2.69167702
-244.093841
-262.4595623
-265.8789075
-283.3245574
-277.897092
-268.517439
-257.596789
-250.0531783
-228.7582819
-221.6957588
-203.3207105
-190.9680434
-169.3476722
-156.0527137
-149.6111412
-122.2348929
-110.7395082
-122.1338821
-109.6102959
-78.72919525
-84.7123998
-97.54897752
-79.63899309
-69.42531304
-88.99022674
-91.90439519
-64.33055469
-56.32525067
-81.68247096
-93.36796997
-73.54140502
-69.51476158
-99.93877618
-122.5238942
-103.2247641
-81.21600813
-94.61618045
-135.3774759
-151.0037255
-137.3100963
-138.1636741
-174.7868987
-219.5879584
-217.7819119
-215.6847063
-234.535331
-273.9970356
-289.697871
-283.0397156
-289.3280378
-317.2116461
-302.3319675
-251.2011008
-188.5726832
-163.7616624
-191.8141323
-156.1821038
-148.5436404
-264.4958634
-225.225655
378.3086999
242.8927407
-115.9400566
-232.9914631
182.7572149
101.2505274
-107.7695086
26.02820783
56.45160473
0.6457341582
-164.0142451
2.315909811
-59.75451609
-216.5150656
-134.8940587
262.1296739
9.797431739
-217.5616929
76.15794939
-103.4576614
16.6353015
-112.1698836
27.50816492
-17.42681215
-57.9364992
-5.151175405
-30.53652859
-37.21089253
-34.81523987
-34.64426347
-36.22345245
-34.25220163
-30.96226437
-30.16911387
-29.34457336
-35.97329283
-45.22612933
-6.257822823
-8.185153474
)


100
(
2.328237168
-216.3009987
-217.7728906
-226.1247646
-227.840358
-205.7645549
-198.6826272
-172.3374065
-168.3566769
-150.0196068
-132.41843
-119.6277775
-106.8207811
-89.02660323
-73.09045494
-80.23859016
-71.93018268
-47.56400383
-61.17184799
-89.67432888
-76.285938
-58.75861617
-84.25503895
-116.2671823
-109.8112066
-108.2288985
-142.3081792
-174.6578411
-164.6307551
-159.5779788
-194.6645866
-248.6400982
-257.6238639
-246.6385304
-262.4585338
-313.6622317
-351.1054576
-352.4021895
-358.5916058
-411.8201968
-483.4865587
-491.694293
-423.2779125
-343.939687
-314.4073044
-310.1403672
-245.3825501
-156.0846737
-138.9536791
-184.2277405
-120.3850378
-11.28740346
22.62911019
-56.12953733
-44.9378281
42.54307269
56.31826646
-38.65406974
-9.444356293
65.87420993
-45.02599457
-160.2199392
174.274934
107.9053663
-39.78494452
-214.5770716
-42.5001991
-79.96416792
-174.8741217
-172.955101
-110.8396444
-74.53727606
-54.82643183
-29.39872837
-96.58918962
-80.16827529
105.4902282
-69.29153449
-164.7541332
71.34079505
-17.15282123
-95.28799368
23.4767218
-43.66721954
-53.04419222
-47.36103596
-46.32320654
-43.0090164
-49.54355467
-42.95288784
-49.90967385
-43.90602303
-37.84010031
-39.17194534
-42.09283484
-41.67392072
-21.94729664
-80.07536702
-17.95294994
-14.89983091
)


100
(
1.989745257
-200.9915439
-188.9984099
-185.16234
-175.0455823
-158.8655496
-138.9689479
-120.2115943
-105.2479767
-98.42633877
-82.11523306
-72.50188099
-71.86488585
-68.33409618
-53.28513912
-59.06491274
-86.84740493
-88.35485133
-80.45561253
-112.6889006
-162.1179056
-169.1252644
-170.0185696
-213.6152689
-282.6959988
-310.0292872
-324.4843966
-361.8268571
-410.6725002
-424.1407197
-426.4605296
-461.6394943
-534.6782223
-573.9253789
-525.2665493
-441.8959773
-414.0194081
-413.7088303
-347.9689887
-219.8545613
-144.9569348
-153.130651
-163.9413017
-78.62806196
14.07555626
-17.14183114
-101.4716903
-35.69599864
71.28394836
31.09883131
-81.42848748
-24.03749391
88.94563446
56.28207705
-53.24043018
-29.62529167
52.37811901
-0.3914870569
-84.53361985
-81.30009782
-52.47140403
-117.1479196
-198.9500516
-192.6268173
-141.1898272
-99.34513476
-75.60621633
-114.1487298
-66.63558297
-6.968813873
-7.272886817
-73.63505147
-142.2595322
-42.07142586
143.6203439
-31.16844131
-153.65242
19.58892711
2.132200245
-54.95017753
-71.21407552
-69.76881805
-43.46051648
-38.18273156
-45.71072528
-40.4800388
-60.08819609
-64.08431309
-46.2906633
-68.51696027
-49.83522427
-46.56280673
-47.99564642
-42.5694191
-51.05829017
-45.69469072
-22.71071183
-25.80193141
-26.77961427
-21.88309931
)


100
(
1.988844606
-182.4504139
-158.2436388
-145.1603375
-129.8147828
-118.9939314
-94.69934065
-82.28530877
-70.53587034
-69.81778198
-68.65474006
-65.86625607
-69.96049487
-85.68415699
-96.64694093
-98.36761541
-129.2282718
-185.0308466
-211.5433916
-222.3039719
-268.5372018
-342.1610745
-377.7677036
-386.7864267
-429.3104783
-507.7875023
-557.8042601
-552.6432266
-527.9977723
-511.8165752
-469.0693595
-378.5838822
-288.6129596
-279.8652081
-281.6368215
-206.1946759
-86.12909835
-86.69087439
-157.1112499
-116.3894599
21.6391176
69.24166238
-26.98043921
-62.6298851
51.58837795
126.9522086
12.3119331
-92.51845409
5.679427544
95.21659988
9.007797467
-92.99911788
-51.35429324
-7.160451098
-73.80861401
-168.5348531
-202.0254525
-209.8246041
-159.7184764
-114.1725601
-107.782819
-100.5295307
-51.23247363
-8.062991188
-20.43264161
-66.35668527
-56.20603552
-19.40242158
-38.64481607
-79.16688037
-126.9730206
-87.40080542
-45.14182445
-36.95214863
-111.6500232
49.28166433
-48.06841973
-70.61263595
-97.80173337
-73.95436792
-33.72663139
-21.85040548
-58.16582375
-53.13090713
-65.95524203
-59.61276752
-82.67830604
-82.92087494
-60.59135276
-43.02197701
-62.01154411
-52.60211449
-47.74409817
-55.54247007
-46.15367275
-65.99319294
-61.86341171
-38.25212097
-31.92503436
-29.69018638
)


100
(
2.178879581
-163.2126728
-127.4534627
-107.1150585
-100.7568541
-86.96784458
-72.11946971
-61.21473618
-59.16759032
-66.88512423
-77.99691799
-92.91432008
-110.22889
-132.6588153
-170.3679024
-204.7228335
-228.1683767
-281.780752
-361.3543036
-406.423847
-414.8240889
-446.0947698
-503.2316296
-522.227589
-491.2352494
-459.4211388
-445.4196859
-405.1933216
-319.1181874
-250.5547202
-247.9969274
-227.6254937
-123.2014314
-24.00064859
-53.0325003
-101.5584269
-15.2782967
92.07112094
29.35931888
-86.20780077
-26.48741477
108.7724021
93.79431812
-36.37505557
-46.37693191
63.76632082
63.5309701
-61.88392572
-139.5557793
-74.60338261
-80.65043647
-173.9762406
-262.0276014
-254.2897471
-186.8553924
-121.4826022
-84.35560213
-101.5361416
-104.7080047
-47.47893219
5.539648089
1.473592018
-48.07875881
-89.01836583
-61.57553017
-65.83752581
-92.62430975
-91.36245024
-97.72466642
-61.26631075
-14.77421397
-8.984893739
-61.41061009
-53.47744629
-45.18575335
-88.42971479
-90.11459491
-84.08943529
-16.60935713
-15.45563786
-83.77202317
-80.73564192
-78.25993549
-65.59750497
-73.39142632
-75.19688224
-66.94376685
-77.87977876
-82.00535529
-58.87316394
-63.57931549
-62.88917798
-75.10343236
-73.58946194
-72.2517017
-49.0980706
-85.43849342
-35.15234066
-46.48722274
-31.63117401
)


100
(
1.92048388
-142.1965309
-96.65198476
-78.51475999
-74.31970239
-63.81036426
-58.88123544
-57.61224504
-63.81274358
-84.53735619
-111.4971755
-140.3468827
-183.1662902
-220.3596863
-260.7862745
-320.1417681
-371.7877568
-398.10834
-437.668292
-497.2012196
-509.9462956
-468.1656062
-426.7318159
-412.9492276
-384.2839379
-336.8816381
-284.1902715
-237.4700841
-155.2046693
-44.16479994
-11.27386744
-75.66448625
-85.9491928
31.80918335
98.62027888
3.827661094
-54.65295327
52.95646703
129.877938
21.76531724
-84.77936989
-11.5867127
82.67653496
11.86408561
-114.1152169
-131.9983393
-100.0117435
-148.4827015
-244.5562434
-279.3459812
-236.3497499
-161.5854404
-92.05277873
-56.46153785
-75.45304614
-100.8619632
-54.90339443
-1.695315681
-10.43475374
-68.5769785
-116.1577513
-83.59181727
-87.8772425
-112.1378443
-86.5531537
-74.23064143
-83.43312034
-33.87341486
8.440973542
-28.12016494
-74.95149
-58.79286173
-74.38593237
-68.52543048
-58.87111649
-63.10472986
-13.88338132
-32.56766808
-81.70141827
-83.36324862
-79.32425355
-79.32442409
-82.70011295
-81.20186245
-75.30060024
-90.62711652
-74.97130122
-54.93012549
-72.38760814
-64.3824405
-36.3204354
-61.01323248
-48.16330285
-54.13465164
-53.14118194
-50.01042442
-74.38489897
-44.40187541
-39.71501331
-39.04526914
)


100
(
1.490114874
-124.7026533
-72.76550391
-54.88210012
-51.75872844
-51.25708131
-53.08234022
-65.14516285
-84.1262115
-114.6489689
-165.0582033
-207.6504695
-259.8607084
-327.1602575
-368.4988938
-408.0902246
-461.3449415
-499.0642408
-466.2934653
-446.2692024
-441.1571824
-400.7492096
-321.3945557
-238.0197073
-201.1445694
-186.4609039
-173.599467
-152.2009451
-104.5595761
0.4666668446
103.7856763
74.50212198
-44.02088397
-38.2042217
86.7536612
102.0144773
-22.67801953
-57.11611156
44.93755191
62.90464743
-59.29061982
-152.4404073
-114.3237904
-109.2870243
-200.2164199
-299.2183268
-303.7854535
-229.7455085
-144.6254736
-81.59535719
-64.0369923
-95.84480002
-100.118856
-43.95443779
7.684585161
-8.517510685
-63.93996731
-105.1860297
-93.68181218
-97.31895806
-118.8551745
-108.7460739
-114.4673612
-103.1060573
-39.8191829
16.69800712
-12.64765006
-75.50069553
-89.64715721
-78.90903467
-86.65273242
-48.58705404
-69.02455891
-50.79975685
0.5199154668
-36.22758765
-83.68830973
-78.21427208
-72.62143497
-71.92750443
-72.57231802
-71.72697071
-65.80429221
-98.90976695
-106.6944912
-88.8883696
-69.30241881
-50.74317932
-85.08917476
-93.7868314
-117.6172739
-82.87918988
-112.2438667
-92.61609956
-79.90384054
-49.1189778
-67.66494555
-51.11992566
-39.226758
-38.97371804
)


100
(
1.257702439
-114.2452056
-54.30874235
-33.11436899
-34.24619607
-43.16474379
-55.92502042
-78.65244018
-117.8260434
-158.192421
-217.0167508
-287.9365248
-337.1996193
-398.6000077
-453.6495435
-464.1971888
-462.1189807
-462.9547017
-423.2535855
-351.4974932
-287.1764438
-258.6552888
-221.5482409
-156.9802423
-83.7273446
-57.31576487
-75.66295524
-107.1387946
-113.6049528
-52.21113295
78.10513549
157.51497
69.10424666
-59.44669039
-27.19809066
75.7482732
33.17137615
-99.94599561
-141.1541371
-96.41541567
-124.0932997
-231.0095916
-308.9835556
-286.289362
-215.0443833
-150.2686073
-120.4954143
-127.56181
-132.8717286
-82.93080099
-10.49773723
15.91588663
-30.98836734
-94.33160452
-115.3195608
-89.56425193
-91.71594837
-111.565568
-106.3479961
-101.9579174
-99.16458297
-47.30048719
-3.123995355
-31.61799389
-91.2899963
-89.06568912
-56.38945303
-82.12525411
-85.86846677
-86.52457209
-82.95073093
-18.29866182
4.46216657
-51.97963934
-90.15925727
-79.09762479
-73.54513164
-72.44594631
-72.90376183
-73.77020464
-73.19860669
-100.7032441
-111.2877217
-101.5055931
-86.8418632
-81.82244642
-95.72479018
-82.56911827
-60.19511959
-66.74841462
-37.52495574
-90.54142041
-63.15132644
-81.34567235
-166.4274321
-76.82541667
-61.50979374
-55.69569623
-48.69826489
-28.15400129
)


100
(
1.170444466
-103.1282415
-36.98832281
-14.15626104
-22.92311264
-38.82658857
-64.28237301
-99.06508267
-150.7753987
-213.670573
-272.7246444
-343.9289725
-401.6354633
-435.0551652
-465.7071099
-461.7225582
-418.4999237
-363.9921298
-319.8916398
-259.9388624
-184.2548049
-121.7265113
-109.6996509
-107.4236658
-75.50544457
-23.46849684
-0.8312062623
-34.16581569
-94.63244292
-114.8370906
-36.41442833
99.77786866
134.3869651
3.969752323
-120.3698421
-104.5924237
-72.06048412
-141.2830646
-253.4337416
-304.0673623
-268.3822846
-201.6315852
-157.4987618
-146.0833745
-149.7476489
-123.6921083
-58.0926551
-7.064829079
-22.81124808
-82.12243534
-118.7101725
-84.69999597
-56.2140233
-74.98437592
-120.1736769
-153.2972242
-159.8580562
-110.6575994
-39.21256403
7.359872378
-26.3071142
-85.74893537
-80.50403677
-47.97991451
-68.78101226
-100.2903134
-95.02941766
-97.75400143
-40.92658153
7.249786502
-43.96201549
-93.94029321
-55.97206522
-67.59764561
-69.79037678
-69.60937494
-76.11630204
-83.40754476
-88.63373056
-99.02548489
-100.7519495
-97.38920381
-96.91326744
-89.72559576
-105.890758
-137.9196589
-105.6848348
-110.3461107
-133.4300468
-114.1936305
-150.9036308
-123.196056
-129.9958672
-192.5945965
-122.5155822
-112.5770335
-70.12187359
-56.72086192
-59.25536498
-55.27792579
)


100
(
1.218146672
-91.84715687
-20.82125015
0.03370215595
-13.94644325
-39.52221607
-74.53451574
-127.7082407
-186.8834125
-260.8861422
-326.8683011
-382.5050522
-426.0871158
-435.2047523
-422.0451902
-397.0461702
-338.1150437
-266.1647612
-200.1426864
-167.9232126
-133.3595713
-81.43796017
-37.91200147
-38.69430467
-61.33707406
-61.00734371
-24.28522799
5.027143607
-21.40049947
-92.01781215
-134.5953919
-80.42647465
42.17744377
5.170859408
-133.5344854
-251.3788443
-273.2788761
-253.4345972
-227.4078842
-220.4264659
-216.9977215
-181.6940386
-107.0982344
-32.68756044
-14.52488983
-56.49104211
-98.74785787
-83.68754622
-42.14932975
-38.94767836
-80.9948539
-135.252873
-172.8599464
-152.6194962
-95.53792179
-37.58220896
-25.52105788
-75.81212466
-110.8245811
-59.15298842
-19.27565806
-49.46836609
-98.69477282
-125.5348787
-107.923563
-48.89825375
3.384976047
-46.55757179
-113.2148493
-47.97995933
-44.14516043
-65.73513542
-76.22929579
-84.38419651
-87.14156575
-90.06899499
-81.70482867
-71.95497134
-88.04122246
-96.22014073
-104.2086681
-107.9607523
-111.6286053
-138.746549
-114.5393775
-106.8079407
-108.5352691
-135.3322779
-99.07229009
-121.4316755
-101.8634399
-137.3935468
-146.3036223
-141.6660933
-72.8241951
-145.1941323
-144.4330386
-61.88865453
-71.20715246
-35.72865028
)


100
(
1.089221292
-80.01988791
-6.874043913
9.166357155
-7.642516385
-43.0852965
-87.5073997
-151.5918708
-224.7897127
-297.9316824
-364.1573146
-400.906065
-416.676525
-401.4483243
-354.55736
-300.2917272
-250.7552804
-189.1686247
-127.673804
-84.32131806
-77.44480845
-72.11712501
-45.72452135
-16.1360302
-16.58940219
-48.71906065
-73.32096243
-57.903874
-30.87326059
-44.65714544
-113.2372834
-184.3292526
-186.1602798
-156.4670326
-177.7607167
-228.7814928
-259.9223144
-247.9541362
-191.5813268
-113.2124553
-71.05284406
-84.95213
-112.3164668
-91.69054292
-35.66549907
-6.246874525
-38.21071288
-99.22859889
-146.3653727
-153.4941694
-131.2505445
-86.91538439
-60.94366692
-78.48199611
-114.970245
-85.27656268
-22.23863547
-5.974579216
-56.25745693
-113.9041608
-144.0236417
-118.2577775
-63.93656615
-24.93180753
-54.87150567
-102.272354
-39.13976794
-13.96794181
-61.99423386
-105.4157258
-131.8023711
-131.625799
-115.5151375
-104.2214963
-90.4503987
-74.19747498
-76.92943885
-79.11469613
-108.6048861
-131.556004
-138.7765327
-133.1959316
-122.9144601
-123.2792147
-124.2628214
-144.8660598
-126.0706057
-95.21404881
-115.3255999
-142.5820697
-165.7715535
-136.8129645
-118.5573479
-105.0922922
-155.6304443
-174.4917248
-164.4537617
-113.2257023
-96.13053249
-125.7266545
)


100
(
0.8873282513
-71.23352665
1.310617608
16.7638043
-5.141187026
-46.35967413
-103.8601936
-173.1700304
-257.5158614
-325.9467667
-377.1382843
-394.50413
-381.1943813
-346.422861
-287.5421885
-218.9433358
-162.693737
-128.1635143
-93.84573956
-57.32673698
-34.77262444
-39.11519331
-51.58916227
-48.2968295
-28.37579064
-22.64044254
-53.03470148
-97.11006345
-118.5755804
-110.9854026
-114.806402
-158.545687
-217.8797381
-245.4182846
-223.3625627
-177.262321
-135.2074938
-124.4088485
-132.1029073
-116.8428072
-62.68561181
-15.30197625
-26.06131687
-79.58418824
-121.4649941
-115.9238276
-95.82298733
-92.59461207
-103.967373
-117.0332341
-133.7684438
-114.8047962
-49.97134183
4.930561961
-17.90119365
-85.41732361
-127.8106753
-100.9316974
-83.8884258
-73.55627237
-65.27496657
-86.91308976
-95.29116733
-32.54604434
10.0929222
-42.18299677
-92.92715268
-100.4212193
-90.9105975
-84.15030561
-86.26488647
-90.53787304
-87.79043263
-88.26769822
-101.5171161
-136.4023334
-162.8744889
-139.7607814
-111.1186549
-111.6153146
-122.8392634
-136.1907014
-160.5278749
-161.203355
-146.2260929
-115.2198085
-126.5257049
-159.0486987
-193.9752735
-166.6008305
-190.1797418
-130.6375968
-195.9276398
-213.7136324
-191.8574993
-190.1549519
-151.5505338
-103.1612121
-105.621524
-28.49352663
)


100
(
0.8376434049
-65.8748469
8.078119519
22.00775854
-4.795562841
-50.73872757
-118.3345325
-194.2205343
-274.8436847
-341.2685022
-373.8883523
-371.3865552
-330.015177
-278.2117443
-223.7223588
-164.2065815
-109.4826633
-73.83085978
-61.64749621
-52.79651039
-37.37811807
-24.5329291
-29.59389431
-52.60519676
-71.65994622
-66.98853536
-61.57713363
-85.24094684
-138.3359863
-187.1653286
-195.3352788
-174.683869
-155.9198737
-161.4202911
-173.7988774
-160.9187548
-110.8615942
-49.54437797
-29.42232197
-60.24852715
-95.47709473
-87.93633696
-54.85434171
-47.63966173
-83.00223145
-133.767189
-166.6939364
-154.1755711
-102.3928408
-38.33943723
-19.47358644
-67.33203741
-114.73684
-81.19729148
-32.44214929
-40.13721784
-89.42022834
-129.3949687
-143.6289027
-99.73452555
-20.45625931
13.70623157
-51.82208664
-106.6009764
-62.62128696
-53.34932475
-70.80355508
-83.63441655
-91.62172113
-91.72106134
-94.06379023
-102.3027973
-104.2272722
-99.20097918
-103.9064533
-113.2160002
-120.5743438
-115.5069145
-112.5780885
-140.9500706
-180.2901745
-157.4346939
-148.7975804
-134.7716483
-151.6505195
-169.641889
-173.5859269
-187.6760442
-175.5359971
-195.6808458
-177.3411345
185.8873704
-237.9497643
-256.2126252
-191.3269262
-189.4449682
-160.7887247
-126.8246723
-103.4534333
-118.7317424
)


100
(
0.7562659341
-60.52554553
13.98153499
24.73546237
-4.740978722
-57.50782284
-128.5919503
-214.4508343
-287.5109528
-339.2629903
-353.5910627
-333.92316
-283.6079013
-214.8717438
-159.624183
-120.2717857
-85.00094015
-52.99235384
-35.11726226
-35.41825146
-42.16495477
-43.12417063
-36.07206288
-39.0067724
-67.06771788
-105.9733435
-127.4174463
-127.5508274
-132.2943637
-161.1688079
-196.1176076
-198.8913601
-157.693029
-100.1038307
-71.134092
-83.44772425
-103.95092
-90.69055257
-45.58935821
-16.29041459
-38.75997862
-91.9114069
-133.062449
-135.7441956
-115.9321015
-90.61585283
-80.80116957
-98.32362884
-124.2755402
-94.88987524
-25.0111207
9.112330621
-41.54105835
-114.1898306
-148.8749422
-127.1354983
-87.64891731
-41.91009564
-36.07310826
-91.06335995
-88.01004141
-19.77802977
-6.212399395
-61.56531361
-104.2044637
-129.3169746
-127.8332771
-111.3362477
-101.3619062
-94.45858068
-78.34661515
-66.05273844
-75.55136208
-91.70028584
-115.2756658
-138.8401202
-157.9510731
-145.7997361
-144.1571743
-138.455384
-151.6355304
-155.7193993
-168.609443
-176.9268416
-142.7253588
-161.0519707
-178.1741294
-201.0653408
-229.8504932
-210.0633349
-261.5104773
7.788157902
-169.4258474
-206.0697064
-222.164421
-193.035216
-178.1681
-155.5384528
-144.6695075
-159.4520927
)


100
(
0.6840611651
-55.17082072
19.11129981
26.0267618
-5.667216454
-65.09807534
-138.8688018
-224.589505
-294.5954178
-329.6749477
-322.2472485
-284.3128449
-232.7104482
-171.3597946
-112.9458282
-77.87661528
-62.75012139
-49.97111273
-35.05820005
-26.25539088
-30.50581544
-47.05168816
-64.42479838
-68.01436205
-72.74627221
-100.1974562
-149.0798504
-186.3272996
-180.0969977
-149.9806851
-130.644169
-135.4277696
-139.0384242
-114.7786715
-63.73898834
-23.91326333
-30.92171401
-72.10505217
-103.1239666
-94.66159053
-70.46005228
-67.13627006
-93.15711798
-128.0343664
-147.3562162
-126.8815988
-69.61116145
-17.86633817
-28.14111021
-84.91324426
-116.6244295
-82.37930491
-54.09030897
-69.66742099
-102.6836941
-122.9442119
-127.556587
-69.93086726
8.597660992
0.7333005001
-81.73105225
-127.1104717
-91.41826364
-80.97361043
-87.44924573
-94.79864002
-100.0799422
-95.42934367
-91.64588055
-97.59069742
-112.2209918
-137.884744
-132.5874918
-123.3889021
-118.0362028
-120.93354
-124.7162343
-133.1254626
-174.3724233
-207.3356778
-184.8743791
-175.6814012
-147.9067771
-166.5081569
-180.297923
-242.8579331
-241.0759313
-209.7336314
-214.6899106
-239.1308464
-255.1778886
-648.6664355
-269.1330615
-294.5830739
-242.5292954
-218.750325
-178.8057949
-166.6064797
-165.2741265
-106.155908
)


100
(
0.5949628427
-49.81707044
22.55822316
26.92896398
-8.213726941
-69.32186782
-149.8110836
-230.8772767
-292.3664496
-312.3341533
-290.9704757
-233.5022955
-178.8120731
-131.7591291
-88.52407393
-53.36071118
-38.29157914
-38.53829555
-39.57650212
-37.2581859
-34.08482497
-39.63470298
-62.92951885
-95.93056309
-116.9064005
-121.9028933
-132.2056497
-160.693144
-182.9576785
-167.0716438
-118.9379018
-73.08125814
-63.3928925
-83.34860408
-95.59543755
-71.82788774
-33.91489398
-24.72186783
-59.40082829
-111.2747243
-144.537139
-136.8740702
-102.7832719
-67.66006876
-62.69460665
-91.60873159
-114.1423124
-78.64738712
-22.79023542
-16.2407023
-67.96355739
-120.5372911
-139.2927125
-115.4182813
-68.64433856
-33.46898961
-60.83991431
-111.3103026
-73.75074144
-10.59692356
-29.43286189
-89.98829095
-125.7703637
-146.026159
-154.0798686
-138.3144644
-124.7682358
-113.5363138
-96.56883079
-88.65437917
-93.93893022
-106.4632077
-118.8842235
-132.6521751
-149.3439499
-179.8399754
-177.4747644
-167.3935587
-173.022303
-181.4743409
-159.4349613
-206.4177597
-211.628631
-192.5478438
-220.6557471
-225.6422258
-219.389656
-223.4658732
-218.9810948
-240.3755016
-234.0532682
-301.5397918
-272.7193051
-241.3056982
-246.3235964
-229.5598717
-196.0718248
-175.2404762
-177.9662486
-189.8657715
)


100
(
0.5610667802
-47.59338859
23.99030713
27.28957567
-11.94456966
-73.65069032
-157.1267122
-234.8019416
-283.352561
-285.6803417
-254.7193427
-198.9120525
-133.6304589
-92.76470279
-68.67582654
-47.3700768
-29.22527883
-24.88092184
-31.6757026
-41.78793082
-51.94173453
-56.93513938
-65.49830228
-91.17255417
-132.2393473
-160.6998278
-153.7579772
-132.3968577
-125.3459588
-131.8139022
-123.5543405
-88.81840713
-43.98599767
-25.324593
-47.44990009
-83.43404246
-97.38805342
-80.524386
-62.4779114
-66.74868392
-94.22949853
-125.0580204
-134.1735887
-99.38407494
-39.04523426
-7.958865304
-39.29974916
-91.33975343
-107.2350529
-80.6923436
-64.83270152
-68.70172711
-82.92789104
-104.6620654
-103.0713455
-44.81482092
8.435531236
-29.95959984
-95.90665306
-118.7108726
-101.2908317
-92.34466854
-94.59324145
-102.5081582
-107.9634457
-102.0208211
-96.64304742
-104.2054321
-127.2272495
-159.298507
-161.3566275
-146.8101537
-134.4634977
-132.6352789
-132.588846
-134.4987378
-158.3905891
-206.2659802
-239.401851
-211.086359
-173.0199146
-160.7625352
-201.6778976
-227.9515828
-227.5575636
-185.4964939
-192.8301756
-216.8780492
-254.7044792
-221.6351182
-240.4178462
-219.70559
-211.1083026
-219.8548563
-228.7609586
-225.8119923
-210.6532356
-195.7537212
-190.8829127
-166.8247524
)


100
(
0.5923930611
-46.49612343
24.90705074
26.71545645
-13.66573737
-79.03566033
-159.8202231
-234.0573544
-270.8407716
-259.8160235
-214.4041808
-162.748698
-109.9594121
-64.47023084
-45.50225013
-40.88585547
-33.11273504
-24.95583983
-26.10696655
-36.66510094
-53.40997518
-75.9662955
-92.9244199
-101.5077759
-116.2093515
-143.4169704
-158.6705472
-138.6130696
-98.76984798
-72.02778928
-73.85919778
-84.35479732
-78.29510425
-51.11744528
-28.13494455
-36.81437328
-74.64094489
-113.1938855
-124.5574631
-104.3824479
-70.11642912
-50.11170863
-63.51289899
-93.80129823
-93.72467045
-49.90908597
-12.25620806
-27.55945613
-77.42205144
-116.7083462
-124.5047809
-92.67812446
-38.57303351
-16.89558693
-59.66254047
-101.4000448
-66.14262756
-29.73544522
-47.04697526
-85.68936634
-111.4924677
-121.6196006
-125.184394
-125.5789282
-117.7878349
-106.6530079
-91.34154985
-87.81098021
-98.3503198
-112.007387
-123.781326
-133.0045064
-146.637245
-173.0563272
-189.021776
-167.3612253
-149.1007871
-178.7792811
-189.7402255
-190.3782264
-217.3446048
-184.7499152
-208.6195245
-226.1708741
-207.0649032
-199.4464038
-217.0481088
-215.143144
-230.1848433
-214.7500598
-242.9622796
-181.1073302
-228.2530647
-168.750556
-192.0986758
-203.4318596
-201.5288118
-209.9690371
-197.459026
-273.7499801
)


100
(
0.3903572767
-45.50770358
25.16864925
25.49648507
-15.2647606
-85.09160601
-163.2236247
-227.6646794
-252.0001832
-233.0116654
-180.991112
-126.4511844
-86.79816232
-53.76193593
-29.33114217
-25.45006795
-30.72262328
-30.98326376
-31.55098923
-38.14057193
-50.9172983
-73.13503026
-104.6873971
-126.9578488
-124.8799213
-115.6483895
-118.0988843
-121.6789167
-104.4294148
-71.13397488
-42.64625199
-39.21994691
-57.69040125
-76.50074266
-75.73656444
-60.04026771
-52.34077048
-67.30392028
-97.29693006
-119.0808132
-107.7634456
-63.78424353
-19.62921797
-18.63896018
-61.00098152
-97.33355973
-89.9828347
-63.57394163
-50.94082577
-56.34745175
-77.06390252
-102.5020486
-84.70265207
-23.16394465
6.745657751
-38.50721214
-88.56560679
-101.6499143
-92.72878619
-85.28996031
-88.38108888
-95.52997761
-94.70635669
-84.58068242
-72.42385373
-74.56574748
-95.4238167
-121.5361347
-140.2430979
-131.179928
-118.4612863
-113.9315018
-118.6863513
-126.0917429
-142.553534
-162.7836309
-178.7288208
-201.3180442
-186.0702169
-166.1051041
-178.1318947
-186.8068904
-210.7927453
-194.1059458
-159.9682302
-186.1535236
-191.8694006
-204.3082824
-199.7251188
-194.7758477
-193.9185523
-164.5186632
-176.5369976
-116.7538099
-156.0697133
-168.8385535
-174.8562885
-190.9125125
-190.9255651
-59.93612971
)


100
(
0.2279183994
-44.73481487
24.42222936
24.55188861
-17.14855387
-86.16650147
-166.5519168
-222.3675946
-230.4450819
-202.1640255
-153.4870276
-97.83518595
-62.07896734
-44.73821024
-28.6168604
-15.71270777
-18.42425867
-28.43051567
-35.87784061
-46.16182401
-59.72871236
-73.31587148
-92.82688071
-119.5048265
-132.0868942
-115.265166
-88.12259208
-75.74301316
-78.02890954
-75.99519441
-61.52526739
-40.92574543
-30.53815585
-42.6848133
-71.22289683
-95.34407775
-94.69206335
-74.23416432
-54.96696818
-58.80105566
-82.55557347
-97.04378096
-72.30654698
-28.34069341
-12.26189931
-43.64501968
-90.02048331
-115.7965454
-102.5049695
-61.74339606
-19.22111673
-21.51464068
-69.74050582
-87.85814576
-46.21997199
-22.08844284
-43.13370346
-76.66595804
-99.89720115
-106.4971043
-107.9833418
-111.0506725
-106.6350084
-95.93219005
-78.93935554
-74.22331366
-83.94488561
-93.35150087
-100.3544843
-97.88783534
-99.10680938
-113.9313854
-142.9960768
-139.0744597
-127.0714477
-132.886079
-142.3951006
-144.5837305
-167.7046153
-194.7314363
-182.0148642
-205.7986746
-202.6188495
-163.1201231
-166.9377092
-183.1816587
-168.8677151
-161.7861348
-160.7586661
-152.0695654
-157.7211599
-143.8782366
-120.7924809
-56.61011577
-114.1369501
-134.6311795
-130.2647015
-157.7809253
-189.1681241
-308.7694005
)


100
(
0.2781815458
-44.73794665
22.18085021
23.30672655
-19.71444021
-86.39317799
-165.7018605
-216.9932276
-214.4098819
-171.2360909
-125.0968885
-80.11257932
-42.5383175
-29.06520391
-28.79624284
-21.65722703
-13.91069002
-19.60879331
-33.12091642
-47.9545765
-67.37266736
-84.93977043
-91.68560928
-97.23764837
-108.5532161
-109.7579632
-88.57226036
-60.83540354
-45.95493273
-47.81118835
-57.42282004
-62.45244015
-55.32342342
-42.14648886
-39.4374337
-58.08133412
-86.40517372
-99.14208911
-79.11442127
-43.45599681
-25.3143533
-42.78108242
-74.55573045
-83.75420466
-60.97646936
-39.2602524
-40.50708095
-61.09692463
-87.28223748
-98.09070219
-60.98196261
-5.239393001
-0.7934964785
-53.6571063
-92.34190438
-87.35808878