/*--------------------------------*- C++ -*----------------------------------*\
| =========                 |                                                 |
| \\      /  F ield         | OpenFOAM: The Open Source CFD Toolbox           |
|  \\    /   O peration     | Version:  2.3.1                                 |
|   \\  /    A nd           | Web:      www.OpenFOAM.org                      |
|    \\/     M anipulation  |                                                 |
\*---------------------------------------------------------------------------*/
FoamFile
{
    version     2.0;
    format      ascii;
    class       dictionary;
    location    "constant";
    object      la_i5;
}
// * * * * * * * * * * * * * * * * * * * * * * * * * * * * * * * * * * * * * //

la_i5_table
100
(

100
(
394.1551011
0.00160128938
0.08557535908
3.049841128
30.30153103
1.474521666
18.52722213
2.24472242
4.396053011
0.822467002
0.2620407162
-2.00709906
2.991916424
0.477905807
0.9012400455
-0.4014854447
1.2039844
-1.161339596
3.202700064
-0.9591716732
2.433558573
-0.002394690318
2.252090611
1.521207815
-1.171362289
4.337486841
1.313831487
-1.214488365
3.802415808
2.73036971
2.642608846
5.176351586
-4.093321101
4.61765197
10.87066418
-11.43307475
9.013201389
-2.788216642
-34.37144307
53.40746967
-12.52154946
25.75353333
-30.5363859
-33.96006083
50.3035116
44.80146413
-153.2872187
103.3339914
-0.1287588168
-52.58698332
57.03052756
-84.76792931
63.74048007
-33.87930955
-32.63172288
128.821384
-163.3756892
101.4151586
-86.00363518
34.14695206
5.805850032
5.121393058
4.064217245
-2.527753216
8.890225724
17.51765673
-1.782513689
-29.76782033
9.106629699
25.42523112
-6.50516244
-19.94352445
-4.806469214
1.359908292
15.82138521
-3.880106335
-8.298845254
-4.374010588
1.405871728
0.5121468573
-5.246909757
-2.906435679
25.02185624
-7.747353236
1.912614282
-2.013217436
-0.2974953764
6.28330863
-2.332233582
15.35844812
16.66590827
-8.986595537
2.76189981
-1.513106327
-1.25383591
-0.05710500868
-6.005362216
20.97497498
26.2215643
-0.0002068552086
)


100
(
394.0041361
8928.284846
8351.450614
7695.300449
7188.883382
6782.562493
6241.254975
5936.611927
5523.626218
5247.43351
4958.114574
4662.570059
4430.722883
4161.560073
3909.653182
3704.539867
3479.771282
3238.003841
3074.102395
2898.756981
2706.060183
2556.385317
2423.014949
2275.689834
2120.69835
2017.33645
1903.660971
1777.609996
1647.911922
1566.713558
1475.625744
1375.254677
1277.309349
1208.164299
1133.06153
1052.005407
967.2880085
900.3495198
844.2913891
779.6566634
711.0051126
651.8866327
606.7362299
556.8705361
505.7362222
460.7157286
426.9859775
391.1085282
352.0930055
315.3159216
287.9136051
264.5917566
238.4409829
214.1733758
196.39761
182.8981534
167.3129601
149.3122433
129.24896
108.3380267
89.8711879
75.02588403
68.65702905
65.17515475
56.27914965
44.7721854
38.58275408
34.73262039
26.55474995
23.5971154
24.03246061
23.16371934
22.51035514
20.96451926
10.29058317
1.420916929
11.36379498
11.20382908
2.514669118
13.1288051
5.828619291
9.487935423
12.84601239
-5.507648469
17.30135835
6.604138301
-0.1968294078
17.36179323
-2.425681783
15.8419918
8.243753041
17.78201183
11.72405742
17.32050469
14.6422829
21.99763119
23.02754546
16.21197516
8.153618818
2.123827843
)


100
(
393.8689301
8626.324992
7928.624551
7156.514084
6679.687921
6129.004962
5635.926596
5192.456995
4822.741643
4447.120456
4181.714761
3865.183355
3610.561861
3369.014075
3101.786553
2880.23677
2686.340193
2478.691407
2276.602168
2137.709783
1990.871701
1840.601452
1713.849987
1607.12928
1493.221096
1378.080995
1285.277244
1196.787441
1104.524366
1013.330297
938.7473911
875.5381306
808.1742823
741.3861325
682.544511
633.0411868
580.1288215
527.1689602
477.7112861
439.2275013
403.7734669
365.2653308
328.0587791
295.626457
272.2857977
248.191957
226.182716
207.1608157
191.9450126
177.0763889
162.009973
147.5931388
133.7730387
123.2668473
112.4534786
102.9512644
93.74800363
88.50064023
78.27896043
61.15986853
38.09661841
19.98686706
8.513878254
9.14080309
14.07035589
16.34756128
15.53126259
17.01351262
19.89625144
22.40230005
30.00652977
40.44874317
53.00640825
63.84125027
59.83373422
32.79809634
7.180080924
12.5020057
28.19544423
35.94729388
38.02423715
31.47514916
42.82013575
15.39060798
22.86115388
45.32393338
33.32803642
50.25163334
65.01516805
62.62585545
66.32287511
78.25045353
82.93312572
66.39310452
92.34984375
101.3543133
114.2283538
77.98993079
36.58494132
17.87768756
)


100
(
393.9096993
8366.490077
7511.601848
6797.949635
6192.324683
5526.488298
5077.470554
4544.1286
4200.765167
3827.238577
3519.7748
3245.821642
2948.435497
2730.884473
2501.913161
2265.790486
2079.353178
1910.268571
1740.297987
1578.30931
1470.376433
1357.864588
1244.934878
1141.740537
1063.955681
980.928027
897.5286524
821.5994813
760.827184
697.3845347
635.4458887
577.8156125
536.49213
494.7699961
452.773701
412.5306318
378.1690064
347.2039958
316.6762551
288.1095884
261.8875151
240.7573656
222.2711222
202.4040463
183.1104585
163.6885806
151.017838
137.8736564
125.4723715
110.7783882
102.5746465
93.03998723
83.9279341
74.04784014
68.80772724
63.36575908
58.19378758
54.52410738
57.73411996
60.04219829
57.15599168
50.69895461
45.33440054
43.93064448
51.78827452
64.97147442
79.54958641
91.98287919
100.7542423
103.2293229
98.79748046
87.48825968
73.66073218
66.4647461
66.08853245
55.30937581
35.72939889
47.40015709
66.32109867
45.61741942
47.75169526
67.79380191
64.8045544
86.48079131
115.8908539
124.1470581
121.8841725
125.2182518
154.2821177
151.7215468
145.2645568
159.2120207
159.1428377
196.0159009
201.2458252
231.4083914
218.2823414
159.5331954
90.12126729
56.19769248
)


100
(
394.1421483
8258.151846
7263.185383
6449.057342
5707.441818
5095.246929
4561.211025
4078.840015
3657.134728
3327.005039
2979.686271
2733.556791
2478.296694
2226.571843
2032.897569
1834.651633
1640.022011
1488.791856
1354.017337
1224.855623
1104.355554
1020.324722
938.8047272
857.6660605
779.0731059
721.9104742
664.1553606
606.4677499
551.0670742
507.4458421
466.3761146
426.2474416
388.4046924
354.914892
331.2519101
305.653719
279.7957472
251.4243407
232.2496184
212.7081847
194.1264891
176.9045922
161.4341369
151.1950324
138.8863697
125.7364354
111.5291532
107.0495558
100.7435459
93.97460683
87.68745186
87.08417912
86.18424782
86.34494607
88.52412352
92.10604853
94.43606063
96.38827239
101.7203543
110.8945818
122.6751447
132.7673183
136.9913323
133.9262439
126.3354436
117.742152
111.1166378
108.050123
109.4065805
114.1748965
120.8947454
122.117742
104.1396973
66.50976802
41.69836406
54.51315998
81.94428026
92.0697165
104.7409879
131.3832093
164.1740393
183.9797831
167.3551972
151.3558972
164.5930197
194.9590276
246.0269528
260.4086452
249.3721257
188.8756936
270.4780167
301.8246943
298.9014109
337.5362607
366.7448816
432.0157074
286.2031487
253.215147
165.5972431
126.9792225
)


100
(
394.069782
8138.537475
7015.873856
6088.081307
5278.650165
4705.922271
4103.502557
3667.701798
3224.508381
2901.956844
2600.632938
2317.453637
2100.23932
1878.242125
1673.81861
1510.330755
1349.907645
1197.434282
1079.85817
979.652315
885.9789167
799.204108
734.4132982
677.5243825
620.0221553
562.9221952
515.1991671
475.5420954
436.776677
399.4203912
364.35139
338.2605338
311.8039525
286.714334
259.736688
245.0873502
227.5913957
209.8737191
184.5177522
173.0774753
160.0511444
148.7148031
137.3358427
132.1189262
129.5449616
125.9409756
121.7737541
122.1924558
128.0706699
132.2318091
137.1594197
143.3152636
150.2584506
157.4186362
165.8233139
173.8114057
179.3233481
178.7448826
172.1102945
161.4471146
150.625467
142.9195115
138.8314346
136.94602
137.3908671
140.2830884
145.2133954
153.0391
165.8621293
181.6946263
194.1480526
197.9149909
190.023
171.2342913
151.779239
149.9802212
178.9508552
220.0411567
244.112078
238.7131026
221.699898
224.5705385
256.091958
291.3250051
314.4381045
322.9605472
385.6893775
436.6069173
318.2616544
383.5802119
491.8158692
422.3307594
510.3415967
527.746798
595.7233407
686.2638383
554.6842244
421.4472518
270.2634503
239.2279914
)


100
(
393.8183971
7995.700222
6754.172866
5733.949727
4986.077015
4344.120732
3774.980711
3306.32893
2909.52394
2548.703105
2286.596304
2024.707045
1800.941876
1615.416963
1431.911015
1270.698289
1141.042341
1017.624863
902.7414674
813.3537699
742.0181186
675.3983611
613.1611994
561.2377101
520.3616215
477.1191533
432.8718657
396.3973197
367.0269096
338.7717271
310.4153548
282.6669015
266.077222
248.1169935
229.6553549
211.4897981
204.5120905
194.7919614
182.8240639
170.7634153
169.2041935
166.6431776
165.6833184
167.6926916
173.1437921
179.8962857
185.2992645
193.3394499
200.6095887
209.84267
217.1531036
223.1164249
225.0612566
223.6136811
220.5845135
217.5438126
215.3211481
213.2555649
210.2954143
205.5209341
199.9161326
196.6903164
198.2836738
204.3172747
212.3204679
221.0339072
227.2245706
227.2946731
221.6032908
214.7468504
212.7794198
220.3592855
238.180503
260.2994395
281.6151262
296.8906667
300.6754025
298.7119988
300.8167927
324.1994106
373.1414146
418.6184393
437.0385475
442.3113474
475.1418881
521.6176995
550.59745
578.8358426
503.6073738
499.722744
640.6049772
721.9114096
787.046388
849.0612824
915.3318457
982.7045016
791.9421153
582.851632
441.9719253
394.4455499
)


100
(
393.9494344
7829.771381
6485.61717
5470.18374
4712.487861
4013.603348
3496.722223
2995.141143
2639.525696
2301.849252
2026.693874
1802.071175
1583.407813
1410.746488
1259.903367
1114.076163
989.5025063
891.3965143
800.2128423
715.0038749
646.5147218
595.9008195
547.7081122
501.5422223
456.8644308
424.8592257
388.7875614
351.4889004
323.1807189
301.3485297
283.4608421
260.3284779
246.4500132
238.9347029
230.7279
220.189012
215.6299333
217.4109638
216.9717736
216.1920067
219.4927337
227.4802948
235.423801
245.0426767
255.8827501
265.8439666
273.8415665
278.7703649
280.4558174
279.3754432
277.1927797
274.2487177
270.1274465
264.9196062
259.9109764
256.9737714
257.1722088
261.0978468
269.9446485
281.894969
293.0103012
299.6631021
302.1613808
300.3129311
294.9748506
289.4685104
286.4192626
285.6814269
288.8248779
299.1820189
315.2436159
332.0574893
347.4876169
356.2100301
359.9592669
368.4058179
386.3824989
424.5116535
477.5701702
525.6801541
556.8354771
584.2503517
623.2085206
668.1108657
709.7309981
729.1307211
739.428052
768.0060954
801.058501
843.2585912
910.5336539
955.8845882
1023.215477
1115.390122
1231.843446
1166.744193
1056.607217
794.2297327
595.6221767
629.9979859
)


100
(
394.3868329
7700.46032
6286.194695
5259.399055
4442.183363
3771.524306
3241.142014
2782.797388
2404.754126
2105.943828
1825.340056
1619.12236
1433.874034
1257.238229
1126.864542
1008.69602
895.6933185
798.2188337
729.161043
660.8762545
597.7750716
543.8387321
508.6277388
473.7417212
438.3768607
400.3126108
369.4395341
337.5238339
305.6303721
285.5704059
274.6584627
267.9726725
257.8418474
258.9668393
262.7010393
264.8717099
268.3756428
275.2642786
285.4699503
292.6928306
302.3311354
310.8176064
321.2497533
330.847372
340.3037707
347.1296101
350.0760858
349.0696992
344.3258648
337.3594073
330.5317134
326.1197296
324.6012702
324.5059249
325.8316512
329.5004429
336.0076793
344.8867879
354.7051398
365.6499157
375.9394753
382.6264027
384.4210619
381.7285269
377.0424116
376.0094371
384.4824315
401.8626607
420.8039485
435.2252485
442.5530285
443.121799
446.1294219
456.0085797
478.6160443
523.690164
580.3877662
631.1986026
670.8030786
706.6971509
750.2120693
808.3865499
872.8337682
916.74376
952.0397949
975.9292063
995.80956
982.911906
1103.562181
1219.924666
1288.63725
1338.936755
1412.748127
1529.016448
1834.162692
1427.874361
1389.274556
1046.933457
743.1472227
867.7922198
)


100
(
394.7970068
7643.688634
6143.328111
5051.914121
4184.50317
3565.372964
3007.121143
2594.453307
2213.317473
1937.279784
1691.983941
1468.240298
1311.719081
1163.43496
1024.511647
927.5389526
837.3693221
751.8268177
678.6425117
626.2923567
576.1863609
530.1596974
487.290504
463.5738237
438.9662138
412.6573999
381.8714175
351.2284923
323.315361
297.1409984
287.6236345
294.2536363
299.4674728
308.5973816
322.0918083
336.2078283
347.998581
361.4828974
373.4062074
384.6617767
392.1542519
397.7369712
400.0140991
401.7559109
403.4422772
404.9124395
405.4756851
404.6614675
402.4101849
399.4031429
396.6425152
397.2376857
402.4169374
411.6043795
421.2954714
428.6825675
433.9393546
436.4557282
436.977161
438.2684714
441.8383152
447.5951425
456.7489368
470.5942824
487.4874582
503.470023
518.2428551
533.117278
544.385389
551.983463
557.721725
565.0840798
586.6111286
628.3767613
681.4117567
734.6430711
785.2626925
834.17688
887.6224039
949.4290634
1014.264139
1075.668714
1136.906832
1192.000083
1241.766734
1291.122771
1320.648773
1375.954519
1498.644336
1609.906699
1699.411938
1775.940826
1914.465329
2118.232783
2479.842714
1852.466918
1832.503241
1361.223869
925.4429831
987.908168
)


100
(
394.8243378
7573.941296
5998.773913
4838.367339
4001.715838
3367.069049
2833.622778
2421.551454
2083.069722
1791.66803
1578.030298
1380.41868
1210.994747
1087.231678
971.3005252
862.2046637
790.2910644
723.1262791
660.7180307
604.3419241
567.7123492
532.4044662
500.2527829
471.0752193
455.2916325
442.5086964
427.1384942
406.27601
379.8708495
353.1254235
330.7641182
348.0513243
360.2273961
381.3676037
400.685047
420.8548615
438.3842409
453.3908704
465.2381371
472.5150972
475.5604706
473.9804553
468.9347898
463.0017996
458.0915046
456.4153344
456.9815075
460.0127704
465.2441623
472.6828259
480.7537818
487.8445973
495.430529
504.6002318
513.2745774
520.0669707
523.3086487
522.0401949
518.9276949
518.6105899
525.810516
541.1819995
560.5155334
581.7204718
603.8794374
622.4544438
636.8687875
649.9432
662.8623722
682.1232159
714.1251474
753.7595274
794.1302286
840.3860379
888.9465695
939.5546211
999.0054717
1070.540354
1149.697067
1228.119924
1297.586316
1363.072155
1442.268783
1531.001436
1588.229018
1677.583192
1729.249273
1851.400254
1989.392485
2117.323951
2255.52236
2387.842873
2558.867737
2900.483745
3072.135452
2440.100855
2358.146391
1745.227441
1209.700849
1727.258366
)


100
(
394.4921664
7486.281471
5842.418253
4647.393892
3842.106899
3179.515953
2692.261966
2267.24734
1966.197065
1696.597722
1481.78333
1311.315688
1153.672438
1025.376116
928.6234657
839.0920752
754.5471329
702.7212403
654.9012108
611.4109136
569.1521906
546.5076797
524.6907031
506.4301831
492.1636741
485.953358
486.7086516
484.9028685
477.8869113
465.6982071
452.1351476
439.2991312
450.4099228
475.9989373
493.6621189
509.7194126
524.5913392
535.8385681
544.0676643
548.4519688
548.7385081
545.8174247
540.0471021
532.9731265
527.5713928
526.3934717
530.3568188
537.7427615
547.360116
559.2662191
571.5018781
581.9087693
589.7280487
594.8131311
598.0450825
601.1843407
605.9972842
614.1115374
624.103603
633.2736344
645.4474833
662.8536347
681.6616303
699.3995119
715.2922041
730.1044639
750.2444678
784.0669732
829.6316434
878.4588751
933.4674013
989.2914
1040.528844
1093.092451
1151.247872
1213.649052
1278.217145
1351.425234
1440.382673
1541.554757
1645.026882
1739.100894
1827.25334
1927.697127
2006.800966
2115.304771
2196.595895
2380.946557
2537.842698
2692.977298
2906.605419
3030.364468
3323.512954
3833.096472
3717.718834
3224.562417
2904.866293
2214.635122
1686.569612
1127.565184
)


100
(
394.571274
7380.020427
5688.770827
4531.525273
3689.367965
3036.128445
2561.802828
2170.675954
1863.24514
1626.6662
1412.581555
1255.543642
1119.593037
993.2970408
896.2165605
822.6658273
755.5220711
691.6216538
655.8939937
625.7929687
599.0889556
573.754502
562.1839675
554.8340402
550.3023171
549.6704549
552.8085997
563.2180053
571.4961175
575.7117547
574.8107445
569.3247678
569.5397467
575.8817893
585.2137059
594.4213851
601.927185
606.7727921
611.7618693
614.918511
617.3609685
619.1468544
620.7624134
622.1416434
622.8903726
625.9968614
632.4772352
642.1606648
653.521683
664.5961149
673.8893424
681.6192428
687.2672569
693.6654737
701.9951043
710.7309489
720.4908577
735.4495128
753.6899297
772.3440245
788.3717618
801.1633357
812.881215
827.683494
850.4684929
881.7797028
920.0759057
971.5260536
1038.325305
1111.253606
1185.774432
1255.981641
1324.28138
1397.283622
1477.198279
1558.723792
1636.224852
1716.512989
1826.761233
1965.366905
2097.780656
2203.609593
2303.57103
2422.182635
2535.292695
2657.098212
2813.059895
3040.66978
3211.850509
3420.548288
3797.136868
3229.594191
4171.790494
4950.970876
4616.098174
4219.508605
3532.702023
2781.067066
2344.374848
4513.211181
)


100
(
394.9552022
7302.954218
5603.009255
4420.916332
3545.266581
2932.879544
2444.036728
2090.16965
1783.810047
1566.701258
1380.108337
1209.678184
1093.147899
985.2455401
885.5374482
813.2994067
759.6594916
712.306595
667.7808619
646.8778799
633.8822405
623.6552712
615.350308
614.6621779
620.6302486
627.4446249
635.5242431
645.5325369
657.5845921
670.0386935
677.7201185
679.852434
678.7912528
676.431665
677.059281
677.2478822
677.7568204
678.7667301
680.6970691
685.6819192
692.4640128
700.7158602
710.885625
723.0345755
735.4024896
746.1428451
755.5980239
765.5239514
774.8977874
784.3876698
794.4374159
804.2170883
812.8507729
823.5365963
838.3557656
857.4032753
877.0327653
894.5594697
911.0204448
927.3440327
942.7788299
960.1359224
982.6179343
1010.11764
1047.772555
1098.910243
1158.197783
1221.661238
1291.383696
1367.385195
1449.021757
1536.834299
1632.361022
1736.827866
1851.101396
1971.6772
2088.565873
2199.212689
2325.92155
2479.311462
2628.383892
2762.95902
2909.769952
3047.209092
3177.430134
3356.519405
3623.253657
3891.93125
4108.624619
4405.645644
4970.738464
1190.624618
5077.060754
6324.626275
5891.051541
5383.427477
4317.804928
3493.507792
3040.998147
1101.328055
)


100
(
395.2194649
7256.600596
5527.164808
4309.849547
3440.930928
2836.363907
2361.222683
2017.403409
1743.56078
1513.892521
1351.102977
1202.180485
1071.050084
980.428496
897.2717579
820.1718198
769.041011
734.4354436
705.9339958
681.4608214
674.7379599
678.2691437
683.2659978
689.8400364
697.5256882
712.1379673
724.2608795
736.1065301
746.9608464
755.5919466
764.4469398
769.6579572
771.0926682
768.717005
764.8616006
761.5549639
760.8725227
760.7639825
763.8763895
770.9638563
782.7096049
797.6340633
814.1783937
832.5047128
851.6866816
869.5435193
885.0595804
897.7946396
907.7974597
917.7427507
930.2189245
948.0151363
968.8140333
988.5683541
1008.352056
1031.01851
1053.342978
1072.935892
1092.074051
1110.492071
1130.699697
1162.075617
1208.629684
1265.304832
1325.385563
1389.739672
1459.976966
1529.366154
1601.824708
1685.769863
1781.938756
1887.187437
1999.282825
2126.856137
2274.73132
2439.450574
2609.155381
2769.536687
2926.896019
3094.574642
3275.845327
3449.734065
3629.415283
3793.089339
3990.767167
4268.678761
4610.703272
4942.517252
5232.718608
5637.963134
6271.002707
-2781.301326
6556.921269
8030.857061
7490.802668
6730.341033
5351.48273
4394.831215
3690.221955
4015.424939
)


100
(
395.1756501
7199.91828
5445.676088
4201.90395
3367.833079
2745.61593
2304.749657
1951.198558
1704.986087
1492.316134
1322.691724
1193.91994
1076.201512
976.2851956
908.6192569
848.310731
793.2272253
761.5210674
746.3915845
736.6467906
731.6235671
737.2661472
754.744556
771.5644204
786.9457356
800.4556455
815.0175839
827.9597605
837.6155581
843.5782894
847.4489437
848.7305281
851.4865658
851.2870832
850.5807878
850.4071832
851.7723801
857.404668
865.0392616
876.4610364
891.9587877
911.4497645
932.4990731
954.1539824
974.1877314
993.8617256
1011.537651
1029.430182
1047.482491
1066.272942
1084.491492
1108.119297
1136.160813
1166.106602
1193.711279
1217.991495
1238.503294
1259.716413
1285.332662
1320.245107
1366.482345
1421.763862
1492.867954
1575.001494
1657.21184
1739.52632
1818.28912
1897.288041
1982.489948
2079.029476
2189.890088
2310.983421
2442.028183
2590.792419
2778.861763
2997.791184
3222.37705
3432.395302
3632.631396
3829.995553
4038.819918
4246.283041
4463.770842
4720.788174
5016.057956
5363.783509
5747.081775
6146.143776
6523.847548
7087.293867
7839.727265
847.6347497
8355.680144
9983.568931
9348.626128
8281.122294
6641.559841
5519.9938
4382.418693
5058.283405
)


100
(
394.9780294
7127.32765
5355.063634
4133.43603
3296.060395
2674.002692
2250.452159
1918.262731
1667.821177
1478.312156
1309.143274
1184.046514
1083.803428
991.7551009
919.113215
873.9598721
836.6519223
804.4545225
791.3822491
795.2716358
802.8786175
814.2159438
828.2012219
853.5343884
874.7965243
893.3831738
907.8314503
916.7449249
925.5725774
929.4079527
930.9378048
931.0763322
930.1306565
933.0869763
938.0424646
944.5372587
953.1467077
965.8412813
981.7771942
1000.359649
1019.722392
1041.658271
1063.840354
1085.309485
1106.253972
1126.436925
1145.991349
1167.545794
1192.399566
1220.943988
1250.649664
1280.624255
1310.334529
1342.590171
1372.102004
1401.466678
1429.583607
1462.334113
1502.394716
1559.928404
1635.766077
1723.281088
1818.152722
1915.238135
2015.491134
2108.628018
2200.865247
2301.088645
2410.991901
2530.27425
2659.972164
2805.00481
2965.951043
3150.713776
3375.219533
3639.051003
3914.074287
4178.257708
4444.517836
4689.971924
4909.302812
5158.169146
5461.208278
5843.867768
6230.730174
6625.681423
7077.659461
7558.844426
8008.53562
8698.358631
9723.745554
16527.1041
11001.88819
12048.70384
11432.3336
10021.46796
8144.321352
6855.341649
5272.015867
2787.501582
)


100
(
395.0912795
7040.901916
5276.360727
4077.6265
3224.479885
2634.253181
2198.757735
1892.703027
1640.100772
1462.301059
1312.787497
1176.335409
1087.713273
1012.937195
945.4124732
898.7996612
877.267378
863.1020783
854.3740856
857.429595
877.5272191
898.7927523
919.3972921
938.6836066
961.6631121
982.4009676
998.2178649
1007.259053
1011.345424
1012.54905
1014.556999
1015.164279
1017.212532
1022.402849
1031.785033
1047.752828
1065.046851
1085.929582
1109.417691
1134.674402
1159.680362
1184.261842
1206.039009
1227.160062
1247.521127
1270.340371
1294.579966
1323.413196
1352.370922
1386.842461
1422.643344
1457.00485
1488.134561
1519.084841
1549.298708
1584.772195
1630.536334
1685.390709
1753.846751
1833.420284
1931.955385
2041.189365
2151.433698
2266.13579
2378.945526
2490.574606
2604.431172
2726.355451
2862.374399
3009.676432
3168.276366
3342.475016
3544.147782
3779.419127
4045.573225
4339.87488
4665.432464
5007.059807
5353.267837
5648.767893
5884.938592
6198.907246
6626.642969
7125.555959
7615.781864
8082.438167
8591.550056
9151.690174
9666.552364
10506.82197
11786.2373
17261.10847
12989.99782
14221.11878
13536.07462
11893.1403
9812.552172
8367.77462
6474.174736
5383.259066
)


100
(
395.3136074
6984.150614
5228.708384
4018.966255
3162.573919
2594.00316
2165.0852
1867.589959
1636.962697
1444.786072
1312.089866
1194.84119
1088.730578
1028.924827
980.0701823
938.6883647
917.3938043
920.1744406
928.100545
940.0231166
953.1553117
984.0766519
1010.658738
1034.471078
1053.849147
1068.301063
1083.306561
1092.008636
1096.613302
1099.4692
1098.315173
1104.493107
1111.149396
1123.119285
1139.298441
1161.470164
1187.657909
1217.374786
1245.838524
1276.104057
1303.861309
1330.311359
1353.955603
1379.543984
1402.818838
1430.823485
1461.399987
1495.897191
1531.582742
1571.212003
1607.174102
1642.502387
1676.114173
1707.237489
1744.990771
1795.245393
1859.984093
1940.729751
2037.528897
2142.454514
2255.931424
2373.131005
2494.466048
2616.834999
2743.236691
2876.046374
3016.13024
3163.337964
3322.376223
3501.404162
3698.51758
3914.967693
4161.586479
4445.39357
4756.500239
5092.410023
5469.66479
5894.482137
6296.318223
6639.547207
6965.800529
7393.101836
7943.685284
8515.177477
9088.734618
9615.363845
10205.01867
10847.10154
11455.35883
12462.73195
13650.93138
16472.60654
15375.29241
16323.77558
15823.57567
13861.81227
11578.71575
10041.5581
8072.074637
4152.276289
)


100
(
395.4528583
6926.570857
5174.651415
3956.683907
3133.711102
2555.053573
2151.407937
1843.186067
1630.682296
1451.329783
1307.434636
1205.400599
1117.213211
1041.665596
1008.48326
986.9235223
972.8169245
974.9837915
1000.700522
1024.017115
1044.967842
1070.273605
1100.957426
1128.093828
1149.449445
1163.007359
1170.190341
1175.242789
1180.871345
1185.961237
1192.507339
1199.968258
1213.751547
1234.289557
1258.589569
1287.921423
1321.313391
1355.194649
1390.079006
1422.061176
1451.938442
1479.488929
1508.738769
1537.621427
1571.667623
1608.027158
1647.156616
1687.855814
1730.606822
1769.998502
1808.487096
1847.986776
1884.501753
1930.490601
1985.968929
2055.218374
2146.040877
2247.642835
2363.935879
2485.730489
2606.789616
2732.27986
2862.866141
2997.424065
3137.486505
3282.082901
3441.960822
3615.074775
3805.689651
4017.298637
4254.992287
4519.628823
4807.469297
5121.667299
5470.997674
5861.566296
6306.07184
6802.356167
7269.031905
7682.869162
8119.304381
8635.667565
9287.123692
9969.660805
10609.84295
11198.63273
11903.49495
12654.47198
13418.10593
14509.0128
15603.19918
17274.05366
17775.23022
18441.10017
18078.23868
15888.71484
13410.53396
11869.65233
9999.800634
11596.85909
)


100
(
395.5413969
6859.267706
5111.232272
3904.470685
3101.704459
2520.292216
2136.753255
1842.009238
1622.32666
1458.427329
1316.506453
1211.399167
1138.172609
1078.104937
1033.962209
1028.623298
1033.725577
1045.5975
1064.951906
1101.764078
1136.895523
1168.369656
1195.07812
1218.299927
1241.331351
1257.237584
1266.442457
1270.36183
1268.416749
1276.816944
1288.213451
1306.500507
1328.185037
1354.991688
1388.028546
1424.420018
1461.990287
1500.202907
1536.553289
1570.756842
1603.518555
1637.095938
1671.664415
1710.837403
1753.557916
1798.411526
1847.500969
1895.656555
1941.032613
1984.982022
2030.396895
2072.091349
2130.196118
2197.757681
2284.122291
2383.166041
2494.982031
2615.339109
2743.32344
2873.280073
3005.709114
3141.111012
3283.982831
3433.542981
3586.840618
3744.497388
3912.30872
4106.364084
4322.672728
4569.773491
4839.357621
5142.107711
5471.755762
5833.300383
6230.240858
6668.968289
7149.752709
7643.304847
8165.225425
8716.946402
9299.939176
9889.879737
10594.38307
11370.8642
12141.46351
12863.20449
13667.17263
14468.6836
15425.05785
16538.74474
17661.15253
18953.71827
20095.57839
20174.42177
20317.75752
17999.00977
15304.07378
13814.11212
11874.65383
1381.285872
)


100
(
395.6243777
6779.788586
5043.608265
3874.097363
3067.852752
2513.501063
2121.533415
1845.023465
1621.514097
1461.801419
1334.301403
1222.846589
1153.954157
1110.825575
1080.956259
1067.202843
1089.116427
1118.159597
1150.060528
1182.085309
1223.568315
1260.838483
1291.599298
1314.649598
1331.426698
1350.047486
1366.940414
1378.213238
1381.226415
1379.712605
1392.729629
1419.309031
1451.496079
1486.570758
1525.679917
1565.293113
1607.50758
1646.611807
1685.589881
1722.905851
1762.586363
1801.394403
1850.500158
1898.966574
1953.189283
2007.507364
2061.504352
2110.838425
2162.479151
2210.662532
2265.126446
2332.937471
2410.615531
2509.364993
2632.271904
2760.819366
2901.416084
3041.125994
3174.01512
3311.46082
3455.50368
3603.681408
3759.018664
3914.859137
4082.593084
4260.249786
4455.839325
4675.590963
4925.884559
5197.20608
5485.309736
5796.970722
6130.877135
6528.158923
6973.437109
7464.491403
7984.680424
8507.428463
9025.687312
9595.005968
10233.92412
10902.12784
11691.38261
12552.20078
13425.41018
14348.93407
15304.59479
16278.39074
17489.40614
18469.868
19533.8023
20770.90371
21697.39324
21636.5582
22382.69632
20103.27214
17211.54107
15830.37148
13607.66687
14332.19861
)


100
(
395.7202676
6704.291771
4999.532945
3838.604867
3033.726081
2502.400783
2113.28479
1845.635529
1636.539324
1461.94204
1345.46824
1250.205065
1170.377028
1136.34711
1125.080063
1126.198266
1139.898123
1183.552197
1228.895342
1272.351962
1310.480691
1346.341514
1379.754573
1404.819949
1424.168422
1442.583621
1464.034461
1491.893542
1506.473634
1507.992211
1513.427406
1538.990373
1581.41303
1624.391669
1668.674145
1711.664917
1753.466477
1790.870316
1834.520919
1877.596041
1928.959097
1984.123968
2043.501392
2105.888333
2175.288267
2235.617304
2293.662765
2345.930089
2399.285209
2448.193435
2525.41465
2614.018603
2728.87167
2862.248138
3007.516498
3170.885608
3329.451544
3490.07073
3644.052689
3797.619699
3959.642847
4129.224697
4296.919211
4463.186018
4631.626959
4822.342048
5031.272961
5276.218495
5541.493213
5838.821977
6157.16999
6501.532795
6885.817926
7287.435517
7720.899648
8178.559521
8653.180242
9187.745835
9785.426025
10370.42591
10901.15179
11514.44873
12347.31612
13424.95669
14638.7213
15739.68216
16752.27198
17779.54101
19303.78634
19968.59065
21068.22645
22168.34065
22999.55564
22078.7873
23939.6254
22114.72579
19086.19867
17857.68357
15063.91737
11155.44216
)


100
(
395.7719843
6637.159235
4952.094924
3797.509306
3019.693458
2489.262506
2119.858841
1843.360571
1646.898269
1483.851727
1351.651073
1267.957883
1205.989975
1160.9355
1160.708418
1180.511899
1209.62522
1246.26931
1300.54847
1353.708713
1399.437846
1435.368479
1460.030602
1485.561993
1505.304458
1526.676167
1554.808425
1586.839762
1622.543052
1636.669269
1641.990861
1666.014581
1708.75763
1757.715377
1809.910973
1854.466279
1899.220426
1942.081108
1983.919719
2034.117388
2100.296142
2174.656567
2255.521774
2339.995326
2419.546524
2490.891322
2553.800741
2604.418667
2659.282706
2729.909277
2809.44108
2926.170234
3070.597627
3232.10479
3409.089008
3585.046231
3759.578091
3934.849013
4107.683253
4284.817944
4462.017619
4644.785118
4836.084266
5026.992824
5228.036444
5444.229635
5685.937339
5938.470654
6202.570494
6480.532751
6770.719915
7127.457983
7525.089169
7970.049795
8418.670911
8883.606341
9334.127247
9748.461733
10172.73021
10635.51742
11056.57345
11551.4656
12316.80564
13671.54853
15331.85497
16754.49172
17985.90467
19087.64135
20846.21984
21194.98235
22200.54472
22905.39801
23093.65429
21991.40292
24904.78156
23784.54065
20779.26762
19714.20234
16562.48309
5489.35021
)


100
(
395.6052779
6562.23996
4895.842147
3754.674943
3003.398142
2474.248333
2121.882037
1854.212167
1652.533648
1500.232309
1373.024156
1280.208384
1231.116599
1204.0717
1195.619724
1225.618495
1271.366861
1321.380222
1371.965568
1425.98393
1477.898477
1518.143859
1546.101536
1563.750724
1578.95873
1600.857547
1628.75965
1665.882648
1707.836002
1745.329186