/*--------------------------------*- C++ -*----------------------------------*\
| =========                 |                                                 |
| \\      /  F ield         | OpenFOAM: The Open Source CFD Toolbox           |
|  \\    /   O peration     | Version:  2.3.1                                 |
|   \\  /    A nd           | Web:      www.OpenFOAM.org                      |
|    \\/     M anipulation  |                                                 |
\*---------------------------------------------------------------------------*/
FoamFile
{
    version     2.0;
    format      ascii;
    class       dictionary;
    location    "constant";
    object      la_i19;
}
// * * * * * * * * * * * * * * * * * * * * * * * * * * * * * * * * * * * * * //

la_i19_table
100
(

100
(
-0.002049521942
-0.0001333090898
-0.001323680139
-0.113297547
-1.421951811
-0.4246569388
-0.7067672109
-0.115955716
-0.350803691
-0.02909469094
0.0250859507
0.1504439395
-0.2135358915
0.002028120873
-0.01316715196
0.02618674568
-0.03760891927
0.1033550464
-0.1170211053
0.06521121264
-0.05187648843
0.03565687654
-0.02813903872
-0.001427368651
0.04846590791
-0.04357125551
0.005426783754
0.03095465416
-0.0162104637
-0.004787158698
-0.0004242992599
-0.006489011026
0.01914411057
-0.007376638945
-0.009756052181
0.01635516806
-0.0112959562
0.009790426466
0.09736539381
-0.09837774916
0.00220280769
-0.004481895171
0.01185661518
0.0378691045
-0.04037743921
0.003536948046
0.07199452841
-0.06460579257
-0.003662104459
0.01537464376
-0.01335782216
0.02515995432
-0.01669156291
0.007399690379
0.0106867474
-0.01603419531
0.02298115371
-0.01680282012
0.01305509809
-0.004883219924
-0.0003366978447
0.0003756428759
0.0003172552341
0.004463064149
-0.0003954961411
-0.00348532455
0.0002957915013
0.002291028633
-1.328059505e-05
-0.0006309671304
0.0005548737469
0.0043978149
0.007346026746
-0.0006972331796
-0.004832946821
0.0005706642407
0.003631051861
0.003057644534
-0.0006368942628
-0.000817114961
0.002033933844
0.0009124037968
-0.003518989395
0.002054002995
-0.0005671057438
0.0008953443285
6.387254943e-05
-0.0008065769532
0.0003428266858
-0.001718541326
0.001551458087
0.0008014696065
-0.0002661686464
0.0001878076283
0.0001076717769
1.524501732e-05
0.0002093658108
0.000259687422
6.415866903e-05
-3.886689133e-07
)


100
(
0.003228396958
-106.5267219
-107.2030296
-100.9994002
-94.95636747
-95.60490166
-80.06619716
-83.76469584
-71.84466367
-72.42658038
-66.544351
-60.56253332
-59.48565332
-52.92486716
-48.20603572
-46.85064455
-42.33156401
-35.79130861
-36.08779107
-33.01181111
-28.20991961
-26.74690881
-25.48766017
-22.80721895
-19.11309662
-19.1779674
-17.51308679
-15.42264405
-12.60708931
-12.82246842
-11.57828212
-9.984388589
-8.266484728
-8.107215784
-7.244397964
-6.299557817
-5.071681575
-4.52508781
-4.298075314
-3.624467825
-2.851071787
-2.295159998
-2.218911359
-1.83537008
-1.442785425
-1.076800492
-1.069831318
-0.9167233131
-0.7041138501
-0.439119114
-0.344551106
-0.3342969958
-0.2081481407
-0.06357561346
0.008688216292
0.02306973065
0.1119674819
0.2447998785
0.3921311942
0.2738103554
-0.5330913508
-0.04531848188
0.6667263098
0.2223545742
-0.4047640525
0.004491728178
0.5480903734
-0.1018988178
-0.1911520204
0.137394054
0.232583329
-0.1606994824
0.002040080061
0.3423517892
-0.06538381962
-0.1895773762
0.3783283947
-0.0213248845
-0.1592654512
0.2961198761
-0.1097761552
0.0555798225
0.1341638739
-0.1282055019
0.1710273062
-0.006381133522
-0.001618464736
0.08613859367
-0.02486014894
0.06686107555
0.01840384993
0.04822276575
0.02619526607
0.04068615472
0.03388834709
0.04934722831
0.04463860844
0.03294660682
0.01290259357
0.001791549637
)


100
(
0.01205346377
-93.75691171
-84.7681659
-70.52142815
-71.44074128
-64.22779297
-57.08008405
-50.80016844
-46.60934826
-38.98718247
-38.64873442
-32.34856005
-30.29666336
-27.54352656
-22.12892862
-19.86178187
-18.3139637
-14.95144799
-11.53286071
-11.59489121
-9.773624223
-7.631862877
-6.534616776
-6.124705011
-4.862010408
-3.541526163
-3.151198053
-2.748188765
-2.018106117
-1.254974642
-0.9090332842
-0.7978966787
-0.3991391013
-0.003333249685
0.2730610026
0.3018795
0.4530202821
0.6062575321
0.8607130216
0.9475558855
0.9239723302
0.9653845063
1.023062976
1.227672419
1.172402918
1.209214604
1.189732908
1.258694195
1.27924803
1.245712402
1.206766465
1.156396632
1.154599394
0.9102499589
0.7380545473
0.5185847337
0.7402218552
0.5499109118
0.5287313103
0.5243359051
0.4986666189
-0.5806874554
-0.2787400115
0.3236815793
0.4137777368
-0.1956474627
-0.0393100617
0.3067018256
0.04623658329
0.07078155732
0.1744336325
0.398564191
0.1782744612
0.3173063266
0.5762429563
0.3556709017
-0.3452128131
0.114248901
0.4420914217
0.0581500054
0.3882863186
-0.05408940352
0.5153783542
-0.05060697601
0.1539574411
0.3232418219
0.1263996212
0.2526305001
0.2839374464
0.2564661232
0.2732021315
0.320639883
0.3428878176
0.3283909116
0.4015487309
0.4470117482
0.524650426
0.2985842695
0.1192552295
0.02765998435
)


100
(
0.02037431453
-81.51312094
-63.83065299
-56.5131528
-50.52916155
-39.2926163
-37.19658166
-27.39656642
-26.98633134
-21.37220894
-19.15966576
-16.62078975
-11.9685008
-11.47574529
-9.099698716
-6.035596962
-5.032319946
-4.003631984
-2.508736687
-0.8332603931
-0.9515930854
-0.3313335007
0.434699222
1.254518889
1.252576343
1.582324698
1.994118419
2.414569943
2.293642338
2.35436249
2.486118945
2.969129382
2.868946342
2.749288272
2.673527122
2.835489698
2.993348489
2.92271488
2.865298831
2.919034418
3.186784929
3.171516898
2.654210682
2.17167497
1.766588166
2.053635704
1.493307873
1.133937833
0.6946902137
1.303171278
0.7742442898
0.4909299531
0.105285371
0.6500272056
0.4975104559
0.2258008845
-0.05832540655
0.5717111247
0.4594163647
0.1466860175
0.3339741921
0.6786443024
-0.0514880739
0.1578515269
0.4990050992
0.8351072979
0.5416792656
0.6957531112
0.8924109007
0.8975109875
0.7031921759
0.630969638
0.5154161493
0.3916576139
0.8047967915
0.7779751583
-0.3092633532
0.5404446419
1.198074482
-0.08008872281
0.417755258
0.8365630362
0.2442082054
0.6816526596
0.773758313
0.7431308974
0.7287469422
0.7387247341
0.879673296
0.8910537103
0.892372583
0.9895391382
1.058185211
1.201760909
1.322025925
1.529295231
1.393373216
0.8197270432
0.4364151162
0.10993193
)


100
(
0.02317325658
-77.87269772
-55.96750551
-42.71255766
-33.99795804
-27.51323792
-22.07181901
-16.90641741
-12.72861258
-10.84037158
-6.695991836
-6.411425334
-4.291343729
-1.926706066
-1.588402991
-0.3820043398
1.244644977
1.703557075
2.024330513
2.556294078
3.662432374
3.604200745
3.68939047
4.012277855
5.030178317
5.062704937
5.106256644
5.113494364
5.490752761
5.363384633
5.167555808
5.068923293
5.269733664
5.756696629
4.914779249
4.150064315
3.390666203
3.890742184
3.023920019
2.212929968
1.535819154
1.413252853
1.910941368
1.158612917
0.5932431822
0.3159986865
1.694054878
0.7699033848
0.2821990722
0.1874057854
1.248080708
0.7552200987
0.2670268003
0.3182511522
0.9940430461
0.9131250354
0.3774322995
0.7704313578
1.136590122
1.271031929
1.15451124
1.428853085
1.729502586
1.646814543
1.364360305
1.14305448
0.8605482184
1.136039801
0.9442010225
0.7874854324
0.8323673841
1.15774661
1.507906422
0.8975547378
-0.1777451224
0.8943674091
1.679810775
0.6515243419
0.8738004406
1.262400002
1.416791922
1.557811393
1.405852465
1.324070465
1.398423292
1.510997558
1.787285168
1.849820791
1.881703549
1.852974201
2.175741886
2.316704902
2.550304885
2.800148046
3.199574959
3.752912474
2.510161124
1.930870402
1.045043942
0.181151069
)


100
(
0.02449787994
-70.60637592
-47.17249516
-31.55439223
-21.26994753
-17.79215095
-11.02807578
-8.861563259
-4.574648295
-3.700860221
-1.801959839
0.3475458598
0.5885150588
1.904169534
3.187354318
3.268565842
3.876002537
5.181335055
5.556626768
5.546646945
5.817636903
6.890971256
7.081370742
6.815967395
6.904264225
7.73888179
8.13753823
7.623031775
6.893827729
6.321038862
6.295807595
4.900284749
3.717470744
2.884233761
4.11423665
2.779528523
1.880487671
0.6466053656
2.97704805
1.71693559
0.9838909151
0.07741203434
1.196269621
1.649185203
0.8177207212
-0.1579982601
0.726450914
2.24851764
0.9544242212
0.4874676986
1.07168022
1.980143856
1.610714776
1.431844776
1.806063804
2.490221158
2.565069234
2.925771379
2.417313993
1.909792551
1.885913162
2.021376262
1.620794564
1.25686591
1.261792213
1.704882383
1.702051956
1.46615632
1.732952596
1.961849015
2.393077594
2.173436844
1.999066106
1.776083319
2.124494231
1.103903461
2.02297178
2.33150289
2.601533445
2.498137495
2.296951252
2.249821778
2.620909774
2.80103696
2.976891883
3.009611733
3.529592184
4.05864352
3.621765905
4.011019664
4.833654811
4.710768699
5.401372856
6.012241057
6.871638332
8.719824266
6.087307052
3.661067049
2.031618824
-0.07374382694
)


100
(
0.02587221172
-62.58679391
-38.90352624
-22.24360719
-15.57819333
-10.40549377
-5.95047908
-3.19371025
-1.009430945
1.518343713
1.742435068
3.39862634
4.430784556
4.640055597
5.775926867
6.811188697
6.760772139
7.276098082
8.616096204
9.100802617
8.636949412
8.504549528
9.018903664
9.343379949
8.258960277
7.381644028
7.142680399
6.411735873
4.971231515
3.747434345
3.540949792
4.539139406
2.615881457
1.168565505
1.073989734
3.199032302
1.563185624
0.2129474578
0.304706405
2.949336615
1.556843002
0.4585929697
0.3955717928
1.899548642
2.442373312
0.8022663294
1.468742677
1.971905993
3.75950517
2.176835047
3.006861977
3.405983556
4.177580052
4.268657523
3.621890297
2.999011248
2.37776494
2.59465221
2.86614671
2.381833881
1.880500632
1.936341074
2.33756691
3.160460896
2.687977753
2.97896143
3.31089011
2.988235668
3.281758683
2.940271196
2.601085813
2.445447221
3.053833289
3.192960562
3.321344992
3.775634507
3.581433643
3.799079184
3.437265175
3.621470884
4.521684141
4.766817459
4.953523572
5.051794642
5.548943796
6.142870158
6.422286851
7.368788826
7.283676247
7.21372318
8.938789943
10.3136392
11.77345783
13.18569448
14.78613744
15.26148304
11.54443517
6.990659644
4.054952116
-0.2653376857
)


100
(
0.02725213997
-53.24002444
-30.63432299
-16.77608589
-10.44912688
-4.780324625
-2.477561899
1.142786003
1.78861197
3.850518225
4.968704149
5.488213548
7.429083454
7.876415111
8.139368947
9.422299144
10.43783128
10.11383825
10.0878506
10.84169333
11.05247088
9.561634729
8.254265563
7.458061652
8.232391343
6.737873147
5.551762912
5.044982114
3.548759207
1.956664429
0.3099497341
2.767375471
3.357041345
1.27858367
-0.5746393333
1.376905654
3.276301802
1.251625063
-0.1645853048
1.375007109
3.699784899
2.335113341
1.299056978
2.340211327
3.8857379
4.039395718
3.634106651
4.497424313
5.112638225
5.617691566
5.345272414
4.448168856
3.611794483
2.773429932
3.084597645
4.307378641
3.370339632
2.8213966
2.974555533
3.549121707
4.584401978
3.940325182
4.389511092
4.63506666
4.193290909
4.10506523
4.490921505
3.969346132
3.319368055
3.992069947
4.967062569
4.877673698
5.261632822
5.027900284
4.844619708
5.561423472
5.020995952
5.58793132
6.813383358
7.183069091
7.508033536
7.849997197
8.607978565
9.532573536
10.15638898
10.94710439
11.5329632
12.62511157
13.30040144
14.05111129
14.91524778
17.0395933
18.43148247
21.33583994
22.94143623
24.35445311
19.12247054
12.57165884
8.041824186
0.5396392848
)


100
(
0.02591487285
-45.67032626
-25.00231285
-12.96287914
-6.458835873
-2.109568542
0.2276713993
2.7087355
4.460750546
5.464477248
8.051014374
8.212083215
9.138055968
11.6097338
11.36332729
11.4057311
12.39016694
12.86413682
11.12639895
10.10311465
9.48300943
9.858499593
7.591802785
5.424920943
4.111539192
5.583210665
5.266015382
4.092328056
3.673284685
1.710468407
-0.1644115369
-0.8808435515
3.35379735
3.303838116
0.6504535592
0.2281689758
2.708006989
4.543972868
1.461261676
2.316396676
3.4355745
6.097625062
4.439903568
5.090109917
5.913818545
7.036351304
7.43855486
6.395035784
5.298786896
4.15051098
3.506576746
4.659240971
5.202820166
4.279389376
3.232795253
3.849190942
4.670220221
6.122521569
5.69139452
5.921259431
6.277953073
5.684155832
5.877142891
6.14999205
5.337662376
4.569608312
5.174283376
6.655774362
7.340503936
7.236760984
7.66116544
6.395647414
7.458681515
7.604199854
6.730643939
8.291495204
10.19425956
10.50999216
10.74334945
11.01705459
11.8488961
13.32325168
14.55607244
15.48930189
16.98308351
17.96031142
19.22796609
17.26174184
21.74366379
24.92986141
28.19300558
28.88367499
32.92192454
35.52264024
40.05804699
35.99322023
29.7436067
20.80139386
15.26108883
3.7790215
)


100
(
0.0227451545
-41.52008083
-21.24542392
-9.434881723
-3.06201064
-0.3392265239
2.731156949
4.093549923
6.993598946
7.579965419
9.284958093
12.26582105
11.76070907
12.76460688
15.05276756
13.47764527
12.37660284
11.78067151
11.86911963
9.403097298
7.061594165
5.716254176
7.580991683
5.443916369
3.189791161
1.791473312
3.507091219
5.282261705
3.984631988
3.593105898
1.396164588
-1.478002352
0.7256946136
4.603466542
4.244324322
1.130912051
3.007995744
5.368757345
6.865492218
5.074927542
6.504054912
7.401284926
9.305141021
8.895692449
7.511825697
6.198498377
5.079542464
5.494361894
6.966513846
5.660978655
4.548582039
3.949972024
5.066773966
6.629135664
7.930786739
6.740893888
7.397780785
7.604660286
7.093700084
7.27431857
7.959060095
6.822079903
5.704226994
6.705691895
8.769554178
9.489758871
9.071065171
10.25198875
9.688169869
9.691383471
10.81286523
9.14383688
9.178217768
11.94294051
14.4272572
14.44576088
14.61497462
14.67627527
15.73365764
17.79625844
19.51143148
20.76796515
21.85145529
22.43875426
24.8536122
25.92051679
27.44791566
29.46301155
30.73611595
33.57078269
33.84734812
39.4026595
42.1571834
46.4965319
68.06187878
49.80229142
44.94647429
31.79364246
27.88349834
15.97084503
)


100
(
0.02245661
-36.35525934
-17.38468511
-6.3957486
-1.539494542
1.209536206
3.991403372
5.63237507
7.90498179
10.78045107
11.36116443
13.47189332
15.41938713
14.31209954
14.33786514
15.56876025
12.45956209
9.881607114
8.477069913
9.350709132
6.495755531
3.770097395
2.737116534
5.360699026
4.963501495
2.522484205
1.055355182
2.660733369
6.330473544
6.176138335
3.333838826
-0.7650983574
0.3946236348
3.509547607
7.752669934
6.588539259
6.075327122
7.580008283
9.557952859
10.94551636
10.24923702
8.696836984
7.138198213
6.078015841
8.062369301
7.805939744
6.215006902
4.552496306
5.343527147
6.968442398
9.526300657
8.049968889
8.020723334
8.664572721
9.636582938
9.712262194
11.33957051
9.470410646
8.069335499
6.507450906
7.779497194
10.9933843
11.74911798
10.95858332
12.68795769
13.84922677
12.5253635
14.06926149
11.95555081
10.04029366
13.67211003
18.214196
17.35457988
18.80943753
18.19560225
18.02506338
19.96365697
23.13971496
25.57936053
27.04299732
27.15676151
27.20641286
29.97713298
33.67205566
33.33583069
39.64882134
40.25335822
43.92112015
49.31103388
52.4797066
60.66202247
60.37057422
66.84900122
81.02287814
84.43632745
66.36309508
62.43676233
44.36582304
40.47528763
17.97181978
)


100
(
0.0256830258
-31.12564414
-13.62119873
-3.818516538
-0.3289300794
2.712710625
4.715511775
7.957906692
9.321490772
12.49900567
14.31026606
14.77941499
16.20524542
16.10501083
13.67381861
12.22119074
12.94663627
9.046790224
5.991534744
4.781509001
7.54588311
4.903123836
2.377787165
1.661053453
4.308399307
6.085425949
3.394137325
1.834594773
3.22405654
6.34319272
7.44346495
9.010941155
1.976953471
3.55883987
7.731949855
11.92255977
11.83477383
11.89508179
10.40336248
9.231634496
10.2519105
10.18188039
8.12688507
5.927179971
4.83428428
6.701885893
9.923411839
9.740701831
7.875817179
8.911798036
10.27145662
11.7789546
13.76484776
12.9428712
11.10728397
9.265368731
7.597724731
10.79049561
14.48656604
12.46933436
12.16295934
14.39101823
16.76425872
18.14856323
17.89911142
14.76567072
11.61739829
14.84418658
22.31814793
18.75656
21.79187529
22.90601259
22.61087375
23.30371236
25.82206513
29.43953888
31.45784975
31.92182687
32.10983705
31.39114979
35.25987362
40.35485929
41.1711407
46.11723232
45.53821877
50.82396907
49.32562154
58.81563608
62.12605191
67.73540986
69.13578308
80.18341625
86.50332304
95.73355587
84.93945705
84.21181537
70.15090849
60.04203569
52.14411536
-7.154255919
)


100
(
0.02517949031
-25.79593725
-10.0678086
-2.746424564
0.7302274176
3.684261962
5.584575896
8.788001759
11.46684152
13.47333785
16.76201998
16.2419137
15.45981336
15.47948654
13.50056061
9.900110814
7.925972004
9.446131675
6.117685833
3.22687111
2.825619423
6.125944719
5.08988137
2.492143843
1.900810231
4.240514459
7.931725224
6.097479478
4.750698023
5.814794394
8.215301349
12.0673117
11.70761029
9.785634748
11.76584949
12.33345948
12.02334054
13.90515345
11.28270323
8.786682651
6.48399647
7.396116225
10.96564063
10.36931586
8.387960362
7.627287976
9.609751623
12.1655657
15.48566619
15.28345909
14.93577227
12.90449307
10.96670056
10.41913364
16.29547009
14.28994304
12.19550756
12.59763368
16.40741001
20.04238178
24.27047228
21.96081862
18.92555331
14.70236906
16.49912746
24.68632742
19.91059502
21.2974949
26.3663153
30.35619988
31.61840151
32.58577795
32.53637998
33.58894231
36.35313837
37.84695014
36.89117235
34.54874963
39.98148206
48.71902446
53.4665951
53.22886103
50.58285632
54.49711359
63.24934096
65.94971988
65.7242505
69.88199128
73.8058418
80.19158256
88.38408651
93.91912494
94.19560595
102.899388
98.06665668
99.54427488
84.51664562
71.27415314
56.03105998
11.10494048
)


100
(
0.02188180442
-22.01350308
-8.205402905
-1.525367981
1.707518914
4.009826679
6.961940845
9.505017357
13.74972979
14.80121753
16.30834133
18.20990187
14.96908421
12.7100118
12.08992836
9.431589676
5.687463758
4.173784395
6.89282203
4.881016806
2.21119519
2.253567869
5.507575361
6.647996429
3.897949596
3.316642476
5.630530765
9.230236208
11.07740761
9.660315055
10.34468263
11.98891256
13.61401728
16.4031959
14.26990943
12.20698673
9.459374483
7.751147245
10.7679982
12.16242798
9.279085271
6.635067528
8.065651346
11.33588576
15.80926737
15.16206998
14.85295554
15.44750774
15.7368106
14.28623065
17.24811227
16.58328038
13.60884997
10.17953075
12.90758634
17.98272019
26.09318079
22.11704031
24.39619963
24.13925759
19.51854051
22.06125561
25.41617668
19.54508486
17.50573192
25.06470094
33.46652429
35.93010238
35.05404697
33.46731494
32.11026134
33.63995871
38.21481158
43.45787741
45.70908771
48.28333447
53.52311216
52.809412
54.04251561
58.23607258
55.645775
56.63360224
70.18110449
77.88300016
72.9152972
65.40822868
79.81447693
88.89296618
96.3968413
92.52296395
102.1021074
84.23578566
117.1118123
126.3872407
102.8272405
116.3722755
100.3483948
90.57500301
61.89349288
-73.99660461
)


100
(
0.01963290074
-19.38655032
-6.479567061
-0.5638246186
2.302997606
4.411691241
7.877673985
10.51779588
13.86356222
16.9446591
16.09396092
15.96741231
15.51877054
10.98144584
8.239308652
8.524776892
6.378453728
3.014355855
2.304070001
5.59895315
5.322581834
2.505970048
2.724235
5.713983828
9.733573015
7.276727148
7.104774841
9.008438469
12.02850199
15.94945261
15.52565163
14.45176663
12.8033292
11.49150676
12.3698328
14.63761546
11.12628979
7.75519305
5.644808029
8.765385053
13.97969783
14.52514993
11.70967959
13.31026489
15.93313677
18.68138107
21.61865182
20.59247079
17.20237028
13.34616713
10.26956426
14.48392617
23.40746765
20.5014204
18.39441456
22.94726735
27.13748263
30.375454
33.2269722
26.0102424
20.14159324
14.02967014
23.30502323
37.12104991
30.48235976
35.33794446
36.25768472
34.62029262
34.2545382
37.25066509
43.74724454
50.88735721
53.0423681
51.95533306
51.53966802
49.70085282
53.64296388
61.74697273
63.44484679
65.79910633
76.80650333
76.11905524
80.54683797
70.91268342
78.2157252
97.12987013
103.9900721
104.4268083
98.93758968
116.4538752
112.2434503
7.982894888
135.8745607
154.7889145
115.1808314
133.6257886
121.4554022
106.5337753
99.7620247
37.73513761
)


100
(
0.01952060913
-16.67595104
-4.931898544
0.321486128
2.498745425
5.005449613
8.072734539
12.32069556
14.30476748
16.71548905
16.65812335
14.12108015
12.66534176
11.15216913
6.500017904
4.37890312
6.0993443
5.12747985
2.039110843
1.924146226
5.266988132
7.229792662
4.125709733
4.373672446
7.553353894
12.08934946
13.11439741
12.44323704
13.1669843
14.47057896
15.60171802
18.13777024
14.44172162
10.99618539
7.648744995
8.051357918
13.45378591
13.57402604
10.07361732
8.224138104
11.49558882
16.11445323
22.09518027
21.03516147
20.92595285
18.95384083
16.56045392
14.34595344
22.64703549
19.20895744
15.48031972
13.26157088
20.35285274
28.71030906
36.50935525
33.3760191
31.29857922
24.45859181
16.77110991
29.05226901
30.79562657
22.67452861
27.16878851
36.79441605
45.09203772
47.7911592
47.09541125
45.1030551
43.56387675
45.40147324
49.24189747
49.78221566
49.07678901
47.09599167
55.37813602
68.65186059
80.7121866
78.06296306
73.89506065
63.16437767
74.9211023
88.42559618
89.50201479
91.27209073
85.34500013
89.79330989
95.41269763
110.1954963
129.5339576
121.9387174
143.6839589
-1.95240982
91.75215313
100.2572206
133.6277968
154.0680354
133.4280847
123.1915603
149.4003093
198.4386632
)


100
(
0.02067478531
-14.03798843
-3.542727641
0.748811952
2.724334515
5.644955567
8.400269131
12.64255609
15.28007633
15.85694619
16.24434639
13.13601545
9.761864215
8.702393913
7.441843876
3.370629905
2.08680428
4.904682367
5.437668042
2.359803688
2.592724213
5.839633506
10.71594569
7.940910594
8.603285126
11.42018086
15.07183853
19.42456172
17.23448568
15.45174385
12.87637566
11.10176361
14.20238049
14.40502487
10.07880589
6.122104612
7.244390669
12.2947641
19.25814213
17.89000025
16.53398388
18.38387208
20.9596885
22.47482184
25.1486536
23.29188606
17.85111161
12.30418417
12.32923164
20.44447862
31.56320582
26.73933403
28.14614941
32.31700917
35.62986989
31.68478742
37.36279849
27.17716414
17.87668884
19.42706094
33.4416646
50.08396255
41.98337689
47.07937514
43.39483146
38.73555485
39.00268328
43.88722987
53.30530961
59.98279366
62.10858229
70.52780626
66.12455713
63.25138658
65.31799114
70.06151275
70.79842405
66.04659639
82.33045251
103.0959468
100.7664018
92.90870599
70.20501631
92.02330894
105.1330086
119.5214127
121.1069248
115.1777137
119.1971696
134.6209164
147.6974532
275.1679721
142.7308078
173.764857
125.4404631
158.3406283
154.6056823
135.4128745
205.9022756
271.2667274
)


100
(
0.01958473787
-11.58817394
-2.445533343
1.077068328
2.956426762
5.602445636
9.175475029
12.5963748
16.1108392
15.30692211
13.93285417
13.21668484
8.361612961
5.563586721
5.972853938
5.518423646
1.973957211
1.499060667
4.674148813
7.155385136
3.946791137
4.416904188
8.075170023
13.33573442
14.2272742
13.97349564
14.9375899
16.41511361
17.67221658
18.52876485
13.94901165
9.40327079
6.472179286
9.642607819
16.84437765
13.55802162
9.931499818
11.29639794
16.49679026
22.30542252
28.93255526
26.43354748
23.72108588
19.23262189
15.03181484
17.25571693
28.52491827
21.86700032
17.0786904
20.00311743
29.14409465
38.15115733
45.26246253
39.67623922
32.20955235
22.05813791
21.84187517
39.57554633
35.2280985
26.71311252
38.10637464
47.00322982
52.9869679
54.50074991
58.73721953
56.73802185
56.36564904
60.13329572
61.11775731
60.54402121
54.88202253
48.87669747
59.5057433
77.42933355
87.30897188
98.22165134
91.92539846
82.0003837
81.76760416
93.41552135
84.62890962
103.1905004
114.2737678
107.9859483
118.0514862
114.3064494
115.4076606
126.629328
112.1792617
126.9897201
113.0950468
128.5415106
126.0277258
62.07565138
132.1436943
154.406806
151.6652781
147.9710518
280.7061281
342.3030935
)


100
(
0.018103877
-10.14132826
-1.820040181
1.347911275
3.329470531
5.64568599
9.676803361
12.67076376
15.07374995
15.59932952
12.14587936
9.954077068
9.477842624
4.615517666
2.842948828
4.624199815
5.202445321
1.902568168
2.00335449
5.158991765
10.36366923
7.497139751
8.630368117
12.03754914
16.30403387
20.47533163
17.95565396
15.73835115
13.20155403
11.52144728
17.18696496
13.26790495
8.589899677
4.82383502
9.254103805
16.56954435
23.07285033
18.73859711
20.85462597
22.89209407
24.97938975
24.03302245
30.13612611
22.74459998
16.55942772
9.582908708
16.56960426
27.97805262
39.63365885
31.95741661
36.87824025
39.87240224
33.70616256
36.24167039
39.84521246
26.30182564
13.86898421
27.60063101
45.02094761
59.82856256
54.53352029
54.28671457
47.86923366
42.74122046
44.16087361
51.171873
62.42846149
67.441579
70.46496625
79.94704128
79.44570909
74.99056671
74.96387607
78.43246039
75.42460311
63.9762637
77.30506725
107.538373
129.2316969
115.1665657
82.88839267
70.38061224
101.8209155
119.4273812
113.4432332
100.0718415
100.6299941
111.5208813
122.1702243
98.58099408
96.74982549
88.32823744
1.995706517
50.61694179
73.37488431
130.0091792
139.5622959
146.685712
305.2199594
435.4244548
)


100
(
0.01761922167
-8.871105651
-1.235413731
1.533754743
3.283664128
5.818068242
9.436290695
13.26047474
14.17206205
14.00488687
11.75705214
7.827393545
6.288153648
6.644839348
2.533693793
1.567189599
4.211282711
6.123909276
2.763200798
4.054769863
8.137715967
13.00924871
13.42444984
13.78674465
15.27887638
17.09405054
18.77936302
18.33762799
13.01072032
8.217105828
6.707195861
12.60399902
16.92890049
12.18206378
9.427405684
13.80033147
20.74211347
28.65853063
30.4053477
28.49911549
23.53091755
17.76349489
12.95836531
22.93730004
27.69865437
21.11356951
17.14240822
26.87715112
37.07463232
46.92745752
51.29706225
39.51070017
28.43957462
14.60984605
25.37065177
48.71209173
37.30040861
34.74230876
45.94167577
52.41056259
54.34090097
54.47169574
58.75591043
66.32386499
66.44449632
71.30540167
67.13829074
65.83938648
55.31435296
48.48661715
59.57063181
78.78650601
88.38079484
94.47832463
103.321637
90.83281918
79.96189652
89.54164481
83.38516561
81.525077
113.6322234
105.9330381
111.9139005
111.6666981
121.1034183
115.5888011
109.9585314
71.73109479
52.81050109
59.88096107
63.73986374
14.14130856
64.22765954
-94.95815866
34.03654732
107.3908966
118.0654861
128.7115353
302.3438956
462.8606746
)


100
(
0.01525598454
-7.647140032
-0.7557334299
1.684402194
3.254252227
6.255261171
9.317077636
12.76294453
13.70088691
12.25075471
10.6198283
7.372972052
4.321977206
4.214585229
5.384368635
1.82027437
1.583613889
4.508813601
8.463823246
6.253912924
7.302600785
10.94815326
15.78873487
19.34856357
17.47736819
15.53319637
13.49290958
12.89024902
17.7234648
11.58635104
6.879060576
5.329069704
11.42665804
19.97790341
21.90257944
19.31505313
22.28438205
25.43527571
27.14663741
29.17188781
28.75804057
20.01383517
11.93509357
9.339644612
20.90157116
37.53498737
38.50253168
36.40021749
40.96635713
39.75920064
30.50776685
43.14780463
35.72443407
20.73326961
13.83073682
32.80232859
53.11798579
62.70638172
58.7033518
54.89527752
46.75158361
40.67080465
41.53656885
49.12444337
60.71290933
62.46409082
65.31675112
69.47528788
83.50092329
77.89073494
76.68799003
75.71763723
68.58688358
49.81721683
52.68713284
84.07663835
104.7647448
117.5589874
89.09203146
46.27600755
61.45901292
78.02713288
82.6343638
72.65499234
38.08754032
33.64824884
27.54757428
48.85281289
14.61441718
13.98771251
-62.08238009
-73.88253205
-174.0187724
-146.412314
-20.23202874
77.02555396
86.81214943
110.6103619
291.6368502
266.3188225
)


100
(
0.01338385285
-6.498505406
-0.3570999265
1.688910006
3.179018368
6.009913755
9.484437576
12.12067112
13.18360691
10.87862849
8.481214332
7.403144759
4.163262495
2.266812227
3.335749516
5.375701258
2.156187115
2.390355532
5.689566671
10.51993159
10.53261682
11.49348259
13.99338278
16.83244364
19.56869817
17.36761351
12.31890162
7.872754865
7.396467298
13.84470981
14.75196975
9.705584835
8.782791496
15.03132759
22.94765033
31.88396642
30.38938523
27.62093544
21.9998387
16.86697282
16.99728658
29.53965778
22.77878074
16.1029571
17.33556125
30.35375576
43.45327917
55.9531525
49.38796686
36.84793736
21.60447062
9.173495556
29.83054232
48.9776133
29.64220359
37.94747213
48.38391782
51.02401152
51.09457986
51.30677577
57.09676693
68.51529235
67.64077831
71.16782242
63.43966677
60.42967788
44.56493654
34.51947864
42.14864515
60.0312573
70.19333038
66.29355823
91.33644014
79.61048915
61.96991002
60.35684895
48.64387075
17.86310141
53.59472886
102.0153039
81.3360796
77.57882429
64.84094326
50.27475404
57.73996048
37.9065225
-10.40307939
-60.52010527
-60.95786036
-103.2846224
-99.74961451
-117.1445127
-151.141052
-333.441128
-100.1066718
14.81262236
46.26767262
78.27628687
396.4420667
821.218059
)


100
(
0.01356718184
-5.682222693
-0.1758362526
1.702646248
3.245669598
5.769660048
9.503749213
11.61243692
11.83723462
10.6299977
6.997922912
5.222500415
5.394596714
2.507758033
1.387442395
3.178742111
6.194376472
3.691048364
4.520285028
8.126553734
13.05988344
15.909585
15.12648964
14.71423529
14.03474872
14.47055726
16.12745929
9.640713404
4.937393213
4.728281854
11.55172861
20.64965177
18.28041275
17.54659128
21.35489676
25.98806313
28.19383975
34.14150057
24.90896086
16.19138554
7.054119383
10.49276125
23.47331668
38.96912253
30.74880602
34.60096112
39.92712502
39.54391349
32.50257906
48.36434313
27.78991228
11.61860167
11.96889314
34.77971871
62.08335679
57.43484812
58.09701047
49.88072648
38.77827536
32.95870837
34.32078755
42.69410796
54.53624624
55.81195692
58.88771279
63.29993804
78.07204407
68.33574462
65.03697695
60.11007867
48.00276408
24.31778039
9.330417352
39.04796478
65.54454963
64.30293803
66.51390507
17.02612114
-20.89858937
1.192341193
21.22751162
10.97751631
-12.43634714
-52.41793452
-74.61087528
-87.7461291
-59.75709174
-92.08467577
-114.8977936
-145.7567636
-203.641074
-338.6330065
-457.4731593
-375.6124917
-210.2206652
-92.41128388
-34.35619618
16.41813821
593.5543098
1000.573915
)


100
(
0.01420957782
-5.123426694
-0.02577087444
1.665845851
3.13206062
5.56067958
8.860373351
11.34738546
10.68365742
9.046500914
7.019235746
4.013528072
3.32629489
4.455801007
2.025187887
1.361539252
3.626394598
7.064252704
6.679342797
7.743016748
11.04398387
14.87922283
18.84528609
15.83610464
12.15941306
8.825225326
8.539445643
14.07914844
10.09728569
6.532686182
7.528462509
13.68859169
22.5502536
31.16119562
26.85226822
25.6828841
20.42614273
15.89956947
20.2133288
25.53430564
15.17926576
6.948976827
13.40045984
27.03430417
41.86741844
49.95291775
40.87448735
29.09591843
14.87347063
12.13145617
36.93951053
38.75939795
19.18456137
32.20516693
45.92008235
52.41006623
53.15947065
52.88696983
59.66219787
56.7557095