/*--------------------------------*- C++ -*----------------------------------*\
| =========                 |                                                 |
| \\      /  F ield         | OpenFOAM: The Open Source CFD Toolbox           |
|  \\    /   O peration     | Version:  2.3.1                                 |
|   \\  /    A nd           | Web:      www.OpenFOAM.org                      |
|    \\/     M anipulation  |                                                 |
\*---------------------------------------------------------------------------*/
FoamFile
{
    version     2.0;
    format      ascii;
    class       dictionary;
    location    "constant";
    object      la_i18;
}
// * * * * * * * * * * * * * * * * * * * * * * * * * * * * * * * * * * * * * //

la_i18_table
100
(

100
(
35.22102955
-0.02475067883
-2.242721195
-20.81525215
-22.49561248
456.8589263
-347.7918674
-7.110550756
172.0594994
-13.8922901
-54.75168073
-68.00531905
146.2733379
-60.92035059
6.535041722
-21.57037755
60.29688291
-102.0470978
91.37696799
-69.85277416
57.9669224
-43.63925023
27.00458503
0.7875544717
-41.56651063
36.50184387
-7.027271988
-24.83319418
15.8608319
5.311467617
1.401610173
10.37692817
-20.88219413
6.919802656
18.31140985
-23.96437992
9.081522713
-5.490134173
-27.87104857
42.62140337
-0.7147704961
0.9603427908
1.121245083
-7.420408265
-4.746508331
-20.60978454
59.11966194
-17.76373215
7.663236175
29.69679913
-34.15715043
42.53013227
-36.85267611
25.70242743
18.3978729
-106.3726228
136.1181541
-86.56846459
76.36953924
-27.25321076
-6.321828835
-5.085572651
-4.454100201
-7.548539132
-15.77244131
-12.97691097
5.644389782
39.9463476
-13.03023009
-32.59410841
13.8834922
7.98258187
-24.65690265
2.879827357
19.3852294
5.012896051
-12.07326386
-17.84575443
2.595395905
13.15055334
-10.40439182
-5.451989067
25.69567486
-8.404273043
5.87910662
-3.987050101
-0.3018273666
5.176380487
1.553136808
4.265744935
19.21294254
3.34316395
-1.411691587
3.679461248
1.834517601
0.5819117785
5.112567822
17.2973648
22.99905347
-0.0148723438
)


100
(
34.11040837
216.740919
100.5965008
38.92177467
48.88486058
41.21840049
-1.355495614
-3.764522468
-10.7792726
18.07845073
49.60103996
46.49334654
81.59517978
49.36942156
-60.77177817
76.94830116
150.5678949
-127.6787675
-100.6620418
187.1216134
22.12704417
-199.4738624
18.56492332
98.71192088
-302.536219
-245.2115664
185.3968657
100.8863023
-486.7483665
-365.9408405
174.4097379
114.7404373
-514.6709808
-341.2719164
268.4873351
400.505965
-245.6829903
-523.3899167
-5.686905455
405.4624384
-47.52183395
-523.1682548
-25.59838255
451.9616992
55.29677728
-724.6648966
-151.2296913
528.15319
454.9173892
-298.3924965
-361.9188746
276.0663393
371.6555597
-224.9042238
-318.1842187
331.0929581
347.5398917
-348.3938831
-476.308947
392.7477793
986.8027005
-602.973758
-3.392566636
817.3217594
406.7562364
-644.2642473
284.1017521
870.5083179
-199.8811459
-269.9154124
697.2107379
430.89702
-665.0233874
705.7180876
401.1837815
-632.6453118
939.6217156
111.5450169
-669.8509717
1388.848194
-749.1448688
267.7919473
800.1866393
-1146.864033
1429.817849
-565.5788609
167.6827789
408.9893706
-413.6350092
416.8538259
-112.470066
58.09447144
-207.8769403
-8.900843774
-119.1746229
-63.37726028
-184.9434014
-150.7061354
-149.7925541
17.91732224
)


100
(
30.6852569
331.0792212
171.6053986
17.40396338
21.77885582
22.75672536
-24.77029944
-72.15734411
-72.53006028
-67.67019923
14.6102296
0.4752911947
30.18981634
105.3635113
-129.1079435
-160.5344265
200.4638789
22.63616504
-420.5408493
-106.7841619
227.6095919
-154.3780654
-372.1677676
33.5698014
67.01024118
-392.5714358
-317.4646201
218.5981856
158.2517346
-452.4674044
-537.6557601
38.96799559
163.046804
-370.3745066
-616.867351
-29.60275394
379.1102513
3.776535254
-695.8376655
-613.4548542
-4.856476017
138.1761872
-361.9931305
-845.7717499
-259.7621436
111.3339654
-83.15108376
-672.0316154
-561.301176
-11.58164458
246.604736
-143.3661456
-753.6630653
-235.8967879
506.7317843
427.2560447
-1001.313351
-127.8581799
737.1551753
683.5059811
-623.9181437
1356.298208
-174.4785745
-1058.193152
608.1600053
1091.629246
-197.6256635
-925.7941188
942.9231955
574.5961907
-236.9451766
-357.5018132
417.7352992
315.2772642
84.74708738
-90.4947797
-529.6985787
397.8324299
412.5858614
-806.0123026
669.1547936
-103.4864374
-26.16485132
-262.6124894
227.4127545
-157.9978561
-76.56847843
-88.20199395
-292.845601
-409.6254152
-418.7022374
-396.2995815
-508.2116978
-385.266751
-504.7997047
-582.9890627
-559.7269026
-693.8394391
-179.5778255
-123.3998237
)


100
(
24.7482145
476.8617899
285.4100498
33.54894326
-15.93524773
-5.083372123
-43.9857771
-124.2355599
-132.0054961
-143.2640034
-69.88947154
-44.04254818
-101.0703045
47.40656801
-12.26322483
-339.4790705
-163.91851
187.039984
-171.2736113
-576.162477
-166.6949999
156.7979137
-252.8053012
-574.8100331
-204.5977185
-14.95490099
-423.7550511
-655.684823
-186.2278948
89.03663594
-364.6272423
-908.883723
-626.920353
-150.9902301
-205.4910822
-711.472803
-821.7330361
-307.4550582
29.46504142
-399.8986026
-1100.658766
-1136.735208
-346.6976106
242.2028692
-88.43146249
-996.5767236
-190.5329327
932.8286616
645.893101
-1329.128657
-392.927209
1219.558121
1437.680235
-810.5207436
-510.438968
1301.923165
1485.443169
-896.5259494
-393.0475062
1573.334286
791.3087462
-1038.027394
580.3598537
311.2594808
-701.4657613
-510.173834
365.8475899
302.606457
-131.2163495
-812.6317544
-197.6526731
160.820408
263.323126
-348.6229496
-1045.081439
-216.4504604
977.016652
-232.8799011
-1274.675123
297.4047587
298.4813479
-500.5300518
-590.4095195
29.56249337
-529.6415551
-752.0763505
-731.6134267
-683.3180898
-792.3620559
-752.1352963
-900.8468943
-916.5162917
-782.6734926
-1127.95572
-1151.334712
-1200.874905
-1535.273769
-1418.286846
-623.2036447
-383.6011545
)


100
(
19.02573389
551.6999813
400.5513138
67.74046012
-51.52535005
-27.81669802
-50.47339506
-133.4126583
-171.3693574
-183.4359175
-160.6601379
-87.7240026
-145.5086129
-134.0669281
25.5631817
-145.6097929
-441.4994529
-205.9316383
116.2896634
-215.704136
-581.4302031
-255.1813717
84.11675839
-278.2207573
-781.7813662
-619.7151679
-336.4062344
-577.3471414
-976.6659855
-775.5348408
-318.6588318
-344.5221069
-960.574218
-1412.836287
-802.455116
27.81828801
-249.9323018
-1263.840027
-787.1872332
539.8268191
901.957125
-26.19558611
-944.8952985
388.7366485
1795.636902
817.6465065
-1449.362087
-3.123969194
2029.552201
1045.395076
-1503.982796
-241.068709
1970.732429
1185.044105
-1052.491729
-307.4263173
1587.73251
576.055547
-896.9027376
-646.5176663
216.9798706
-277.5990286
-1135.154483
-1156.688074
-334.7872884
171.842036
137.0763405
-1433.947454
-585.8195932
451.1041856
327.0835838
-891.6835193
-1947.751514
-316.5381713
1582.523853
30.85067483
-1584.139321
-352.2745867
495.6639779
-345.197783
-1376.944337
-1476.127016
-400.2428795
-393.822848
-918.0188408
-360.2683851
-1257.43076
-1416.046702
-1366.620244
-754.3441551
-1004.541799
-1796.129474
-1296.231655
-1630.960977
-1743.959474
-1804.198172
-2450.574916
-1413.544432
-1112.48773
-810.5963297
)


100
(
19.07842911
666.1594397
546.3092458
129.0593688
-74.29940228
-63.55426863
-55.44718228
-122.7898688
-185.8096812
-193.5597647
-197.8710011
-161.0681587
-131.9199691
-193.7037131
-141.8781489
-6.07611335
-201.0497819
-488.6794772
-286.9950485
44.55313271
-153.6084682
-506.8943682
-363.1108749
-35.44019486
-258.9249285
-866.0284788
-1037.98163
-636.7899729
-463.6575217
-797.3433641
-962.0674382
-233.1282591
506.2320158
-57.92332651
-1053.641977
-153.9863339
1453.004869
976.8967259
-1164.940427
-629.0148759
1375.925901
1799.202129
-358.0236922
-1045.955578
1217.602951
2672.288557
260.4255297
-1890.420455
328.4934935
2159.975103
481.3838714
-1312.599187
-130.0114126
944.5535703
-61.8470565
-1402.229018
-1307.734901
-1125.290445
-613.7671709
-346.7473611
-920.8301132
-1313.507321
-314.380452
540.5369216
67.13391419
-1171.606361
-906.6122172
131.7666689
-202.1453068
-867.8510858
-1783.59188
-1063.270625
-186.6768238
358.138413
-1969.686952
164.9566608
-35.47658443
-1005.0758
-2216.860367
-1763.250974
-41.67051234
400.0516876
-1925.421009
-1128.9107
-1611.055114
-1128.498994
-1616.453616
-2021.86219
-1161.122665
-1671.632331
-2146.525452
-1551.269969
-2063.856727
-2157.756736
-2387.54721
-2281.76456
-2669.130256
-2100.344092
-1555.422421
-1325.343104
)


100
(
21.84114247
805.3917842
719.5291678
216.8753105
-62.23717355
-100.2941543
-66.99337509
-99.35908731
-175.797945
-206.0362978
-198.3120992
-207.9957287
-181.1746666
-161.0122803
-219.9293999
-163.6650513
-30.21145564
-199.9446638
-485.5936431
-365.1246802
-14.21069363
-34.88387873
-389.71627
-495.3515239
-221.5227878
-238.8425541
-721.4417471
-678.6201288
142.523955
576.6422832
-176.4173963
-772.3966965
336.3821372
1365.375997
278.38108
-1032.819293
420.2389704
2214.60492
867.2289425
-1446.095631
-347.6353997
1944.435123
1535.648973
-756.1105417
-640.0294825
1681.064265
1637.573469
-526.4052378
-1724.786649
-9.192069711
198.7064059
-967.6066711
-2170.43173
-2196.624466
-1316.980298
-501.9580326
-155.3023426
-995.279985
-1444.452959
-350.6010464
699.5739634
473.5040012
-707.9139758
-1761.108508
-788.5781061
-666.1593324
-1081.776651
-1005.614329
-1775.491119
-948.0232691
369.8171247
465.9803771
-1354.788206
-1099.411465
-681.513197
-2100.846509
-1583.008366
-1832.80975
378.1273829
333.6460418
-2099.614707
-1998.195237
-1807.979332
-1267.490274
-1472.660901
-1908.62869
-2067.001983
-2130.192053
-1622.469058
-1445.183324
-2220.850756
-2409.362688
-2749.767149
-2860.03825
-2948.168167
-3546.800877
-3350.651162
-2407.73216
-2246.668913
-1642.677726
)


100
(
18.2232102
974.9545494
908.6058474
330.5725239
-29.23669083
-125.571045
-94.92261483
-86.14192204
-145.0100204
-212.8022826
-213.7369849
-211.8150316
-249.9546129
-216.7290923
-183.9071175
-247.7713591
-204.9803238
-53.39954244
-140.1892125
-428.0126037
-431.3246172
-65.67910316
104.4247831
-265.0862519
-631.9627747
-493.1912162
-456.9848507
-656.7374759
-126.0287189
1085.13218
1257.190928
-266.4977226
-758.823169
945.6990511
1822.65677
13.33094861
-956.3990442
1063.204003
2418.610357
414.9217924
-1444.175176
13.80715014
1767.02283
658.7274895
-1124.939833
-915.9210211
-13.05135464
-550.4367332
-1909.075152
-2573.228465
-2232.625363
-1253.08796
-203.9135498
225.2812104
-697.7339672
-1728.989456
-668.8200314
529.017176
288.182681
-961.80334
-1983.52006
-946.2270681
-981.489098
-1513.934091
-1021.694379
-1101.656844
-1653.819434
-146.6537165
1242.481807
-263.2697886
-1942.142926
-1291.214602
-1983.756001
-1665.374402
-1139.034771
-1572.883793
634.4518752
-234.7286602
-2299.847122
-2772.1052
-2042.381982
-1575.919988
-1637.07855
-2141.829331
-2219.242336
-2754.803657
-2253.579053
-2626.931621
-2199.673646
-2679.751198
-2888.353899
-2957.77836
-2639.692675
-2711.917323
-3027.052538
-3352.549919
-3018.806769
-2735.598078
-2328.684611
-2065.483496
)


100
(
12.19204944
1120.418292
1076.890484
458.6234644
24.38835839
-123.6192951
-125.8075777
-95.99173389
-113.4938675
-192.1679341
-249.2711854
-227.6609632
-254.2788938
-316.4716672
-251.485191
-188.7401636
-265.4301454
-278.1006284
-60.02423992
-42.34564928
-360.3716168
-534.1879699
-156.4235107
226.3034883
-37.52151658
-528.0636847
-693.7334256
-758.354842
-602.1582834
511.7042981
1883.338572
1354.146126
-649.4809398
-597.9405573
1376.351511
1551.913988
-422.7763846
-703.4320297
1270.095626
1573.13025
-381.1117963
-1646.958823
-605.3995802
-225.2911754
-1299.682784
-2571.310304
-2728.720553
-1869.183525
-846.2138721
-78.5362377
-118.5253388
-1215.178072
-1485.048077
-253.2144968
870.5314918
330.2248204
-955.2813199
-1904.188314
-1420.2155
-1370.141525
-1779.443193
-1360.901818
-1601.49101
-1641.927929
-234.0253331
1092.179761
118.2788169
-1673.865276
-1892.913492
-1673.189964
-2423.740081
-1075.233913
-1983.627202
-1171.449369
1036.964211
-776.2196875
-2844.275186
-3012.250031
-2191.644779
-1652.096601
-1597.478925
-2043.16693
-2523.717918
-2706.36783
-2586.58036
-1774.070775
-2507.362718
-1385.415864
-2700.583925
-2807.291077
-2791.053601
-2478.243252
-3039.094506
-3035.937048
-2940.695307
-3256.948008
-2804.323315
-2692.626598
-2364.796396
-2058.879081
)


100
(
8.812980056
1193.898803
1218.676718
579.940854
88.68342623
-100.2620107
-141.9621076
-123.6586545
-110.9493232
-150.1540338
-247.2334785
-280.8421968
-244.0736744
-302.3162375
-365.8436471
-253.5382463
-143.0904504
-240.8062545
-280.6271334
-48.21822382
80.83266584
-266.396566
-604.9767899
-275.4238824
254.2288831
225.4543454
-324.6154102
-869.7843173
-1045.296767
-449.734662
1215.118874
2358.63397
1019.505071
-903.8098099
-254.8810904
1453.760778
848.6604452
-932.1897954
-1102.470807
-84.8684568
-401.8515039
-1897.608488
-3007.739472
-2731.586623
-1753.493633
-771.7558949
-417.8263611
-983.9794847
-1588.715134
-849.0213759
393.4625503
787.9851818
-232.5538042
-1482.534981
-1762.19161
-982.0576998
-1126.16823
-1681.734385
-1575.131782
-1638.672751
-1752.316272
-375.8313281
882.2160155
-28.13314162
-1767.09196
-1812.456133
-1154.131898
-2361.452643
-2314.923422
-2042.543673
-2150.404699
-141.5782405
432.7048731
-1652.869876
-3189.630912
-3053.704198
-2220.420343
-1657.943343
-1629.9781
-2019.684062
-2514.949626
-2848.01771
-2453.541769
-1717.977285
-2164.747776
-2130.736063
-2303.019153
-3198.402851
-2766.022786
-2887.133895
-2370.9388
-3049.895745
-2724.169601
-3306.180937
-2846.847534
-3902.442953
-2508.775136
-2642.667654
-2430.339359
-1851.834964
)


100
(
8.146261044
1263.673198
1336.053479
673.0196545
162.9486177
-62.07215962
-135.1897659
-144.7512031
-134.7103976
-129.8628333
-195.3747575
-292.5197069
-281.5131378
-232.2944022
-308.1808094
-369.4647458
-211.3718925
-53.86884409
-175.988689
-306.3622041
-54.76811425
199.3030133
-98.68344815
-528.3368886
-387.3420492
182.3783365
408.9561568
-128.4284411
-935.6653472
-1205.103288
-389.9044266
1452.471241
2023.887036
278.1494071
-1263.99609
-690.1226499
3.988420417
-805.9161986
-2128.326012
-2647.508007
-2187.327416
-1392.418131
-902.9757323
-1010.400158
-1587.106689
-1389.52518
-218.4138198
741.3102605
284.0466477
-1003.53271
-1790.878478
-1022.876788
-497.363358
-944.3431849
-1841.554911
-2391.545072
-2585.008418
-1600.225813
-141.1174471
836.1454803
-170.7830601
-1813.146548
-1614.457019
-797.3867849
-1891.191815
-3230.982794
-2612.355304
-2580.859101
-787.8991734
826.7724407
-1178.905405
-3112.448168
-2165.662585
-2779.450082
-2139.367871
-1655.673241
-1798.038165
-2197.035297
-2736.551989
-2933.253795
-2231.568294
-1634.237378
-1834.502691
-2546.006326
-2342.310541
-3227.422785
-2345.927898
-2744.268701
-2990.204965
-2817.267775
-3411.817969
-3110.106295
-3418.940159
-3476.017046
-3429.766931
-4078.402011
-2308.232003
-2679.450268
-2568.939524
-2611.396664
)


100
(
9.338235945
1321.885902
1417.989042
732.4504515
222.9736532
-18.79632324
-113.477133
-147.4077845
-160.6135762
-147.1241539
-146.7272903
-229.8487515
-299.1278079
-237.6081089
-167.4917651
-255.4305501
-326.5578824
-144.6492135
48.30286747
-114.9704921
-333.1656655
-95.57430484
235.3913551
63.13957291
-440.5687254
-559.7363485
-34.10399004
406.5641749
46.73443418
-861.1294513
-1438.425887
-678.5403832
927.6945925
570.9324065
-1083.494581
-2367.368703
-2421.260723
-2081.813473
-1641.560817
-1550.028352
-1771.439866
-1601.368816
-681.9367191
391.9177276
519.7804161
-486.091374
-1403.614536
-983.3197824
-58.75545808
-138.55126
-1083.63811
-2184.242589
-3010.416098
-2535.065369
-1341.492992
-12.89269559
347.8637547
-1063.34863
-2146.226185
-998.87378
-284.5697439
-1423.750507
-2991.187075
-3794.271226
-3142.440222
-1414.294076
256.572599
-1064.299622
-2923.596083
-871.7378787
-1624.567315
-2624.563299
-2165.752198
-2110.42506
-2345.451135
-2769.505036
-2812.043844
-2592.541773
-1983.974193
-1456.689373
-1786.970082
-2532.089483
-2772.274131
-3103.203971
-2143.966634
-2660.933375
-2300.189992
-3199.706815
-2774.221984
-3188.807504
-3192.479969
-3655.235834
-3782.33056
-3737.806261
-4634.491252
-4099.855022
-3022.69536
-2970.959892
-2632.80702
-1434.238435
)


100
(
7.995528968
1364.930305
1448.549793
789.6974651
259.6513358
22.51876023
-83.93300207
-136.2958823
-166.9703941
-174.298229
-141.9946782
-144.7690699
-226.8303727
-260.185918
-155.1971085
-65.13276591
-166.5705746
-264.6560609
-88.936861
117.8276532
-43.46965692
-293.9797655
-152.2133248
198.0212435
165.9983551
-358.8491549
-715.9992164
-396.4756862
82.72048407
-22.40005134
-869.2927424
-1696.027615
-1575.143009
-1067.872314
-1316.426369
-1927.342996
-2305.459408
-2292.563712
-1605.704024
-468.5194839
115.4778625
-362.4892753
-1115.231716
-853.2160252
120.5671571
555.64724
-195.1448705
-1414.429782
-2330.283294
-2531.857764
-2334.705857
-1384.216199
-639.6637633
-943.1555365
-2020.310354
-1430.272123
-27.32393651
123.9203142
-1410.837742
-3083.730977
-4197.824291
-3732.254378
-2080.769848
-669.1288518
-1301.456922
-2680.681931
-857.8396843
-373.7813635
-1978.117046
-3190.118307
-3245.901733
-2947.492352
-2326.909914
-1933.632142
-1812.537844
-1940.409867
-1747.63663
-1533.5649
-2146.112489
-2900.013089
-3472.981008
-2867.758306
-2038.9112
-2151.874525
-3273.339203
-3630.168456
-2741.855017
-2734.537755
-3206.145949
-3727.524845
-4287.733094
-4390.251636
-4837.195827
-5262.140055
-5518.306223
-4420.280734
-4387.322968
-3461.010251
-3178.377317
-4828.760493
)


100
(
5.660889788
1367.657154
1452.899532
809.797435
272.6590215
53.61011156
-50.24898111
-117.8829169
-159.5868828
-179.591958
-160.4291928
-104.7160893
-108.7115449
-183.7784866
-196.0320116
-69.08673161
31.77562991
-80.74063818
-214.6526403
-76.51363393
135.2438072
34.50592781
-255.4143291
-270.8861507
46.95391141
147.2952148
-296.8243143
-835.6576743
-956.8125069
-690.3457251
-635.4600383
-1123.52665
-1808.91853
-2122.030121
-1854.250946
-1271.750581
-677.7901747
-654.2936756
-1103.923442
-1094.489513
-206.3683
631.7751043
339.3864869
-717.1450841
-1483.374798
-1377.317269
-1204.481607
-1481.063957
-1884.269104
-1988.753747
-2255.215117
-1902.702054
-554.9101248
621.9683267
-116.3996453
-1895.724639
-3061.462524
-2564.34586
-2777.279759
-2865.92435
-2230.998726
-2376.314801
-2376.768746
-542.0928586
586.2871684
-1125.841256
-2815.265537
-3375.236643
-2828.355484
-2204.821893
-1772.962856
-1652.892303
-1830.886763
-2162.212458
-2442.41769
-2681.284587
-3307.220335
-2828.057298
-2447.367738
-2703.51335
-2123.509196
-2183.435237
-3334.23784
-4300.641223
-3119.701507
-1937.459801
-3357.763134
-3808.595055
-4339.416564
-4032.991694
-4231.427856
-4366.699991
-4843.382112
-4557.656964
-5583.202342
-4791.367599
-4698.979568
-3262.531285
-3232.78911
-920.4148363
)


100
(
5.045830896
1330.175948
1426.002298
795.7914665
281.492341
66.35978477
-19.559774
-88.20526202
-144.8894254
-163.6603677
-159.0498429
-111.7396368
-42.20548033
-45.95197068
-124.7702831
-140.6919243
-13.94869442
92.69814581
-18.55501193
-188.0773245
-114.9482264
103.0327414
69.14681619
-270.8269026
-481.1396594
-300.9453615
-179.9366797
-502.0838056
-1136.75366
-1628.794108
-1615.864199
-1296.033642
-966.1151758
-968.720912
-1222.25803
-1278.589556
-694.3399408
211.2873259
446.786427
-266.1565186
-992.6633559
-805.6925535
-205.438404
-279.7410618
-1153.928509
-2188.990341
-2840.780572
-2597.347489
-1727.763558
-538.2601309
-163.9088808
-1195.988322
-2233.033219
-1471.268852
-583.1244022
-1294.140019
-2865.92935
-3955.591553
-3903.706854
-2599.453772
-488.3458538
538.975669
-1137.348449
-2593.799531
-1473.415315
-1818.022511
-2416.432211
-2247.325036
-2054.299383
-2130.554209
-2443.320527
-2943.308939
-3175.201933
-2769.839037
-2262.83704
-1840.886861
-2002.679847
-2459.159341
-2728.642953
-2913.502913
-3808.041377
-3114.506265
-3603.449323
-2619.826531
-3107.858651
-4441.74075
-4482.094861
-4528.516856
-4330.814068
-4758.434498
-4645.444128
-4711.592004
-5088.598216
-5979.270235
-6171.358928
-4765.906413
-4742.315162
-3843.082944
-3174.474425
-3607.129536
)


100
(
4.661935457
1276.924851
1371.395841
754.1118978
286.8748516
66.6374006
-2.354197232
-49.69018562
-115.5464124
-143.0555911
-124.0810738
-102.5563754
-47.49325672
27.28639494
17.65777924
-75.34118385
-109.7778058
3.377220251
117.6156765
21.45784485
-191.5236454
-212.6167078
-16.20722918
-4.268524084
-365.4222663
-764.2118529
-885.7899112
-842.9169062
-943.7300494
-1292.880008
-1650.622026
-1652.96929
-1129.815063
-318.9802075
121.1911376
-192.6712195
-755.4098613
-668.5388382
63.73615764
487.8604531
-86.19444992
-1161.939023
-1959.936495
-2138.03012
-2104.377591
-1809.135228
-1464.176506
-1566.945051
-2088.266065
-1697.646613
-482.5737683
41.11278716
-1142.854163
-2667.974643
-3458.508315
-3255.88859
-2680.968426
-1575.468855
-1075.25668
-1941.43958
-1616.878411
-8.962366596
-102.1235324
-1895.643279
-3158.900402
-3472.684846
-3206.424564
-2592.386452
-2164.758271
-1987.98562
-2012.971785
-2137.700419
-1973.179239
-1910.083188
-2420.629373
-3118.969148
-3828.23699
-3452.628983
-2836.37551
-2185.925785
-2862.9059
-3741.678857
-3796.033326
-3900.601032
-3260.206609
-4066.880696
-4246.315042
-4576.779628
-5010.164165
-5044.231098
-5866.131325
-53.61689069
-6550.093078
-6746.398385
-5896.978176
-4908.397764
-4620.64879
-4475.279741
-4045.731793
-4661.166336
)


100
(
4.369184744
1209.877305
1286.921024
725.0927619
280.3988947
67.55294313
-1.035983445
-22.27243561
-64.84564064
-112.6928821
-85.98581654
-41.23808162
-35.53389833
11.8589397
82.46581683
63.5573742
-43.55782784
-101.4915151
-10.45667784
111.0502576
29.14231742
-242.1239296
-404.7153319
-321.4241156
-347.4057757
-698.428658
-1209.76908
-1531.794731
-1416.316223
-1087.558625
-817.4726966
-832.8997973
-948.3652288
-720.4508418
14.04556475
650.1475964
432.7629345
-422.3927683
-1043.730784
-958.512838
-766.891401
-1095.812555
-1849.601924
-2514.600635
-2761.077206
-2436.567889
-1423.53547
-358.6852931
-507.5014513
-1666.844556
-2406.082709
-1874.960247
-1627.330831
-2272.25643
-2914.319542
-2844.571107
-2656.914107
-1427.966717
203.9294265
41.23891003
-1657.791913
-2654.097532
-2077.787103
-2268.277966
-2170.714035
-1886.357069
-1785.328416
-1879.071894
-2165.007973
-2579.74781
-2997.357811
-3346.426864
-2899.91897
-2482.421558
-2383.889141
-2747.020914
-2717.122407
-2230.748542
-3191.989256
-4348.297033
-4264.270378
-3573.978398
-2320.157935
-3548.207998
-4658.738398
-5055.423794
-4949.952256
-4778.415241
-4997.195134
-5314.71489
-5590.137417
-5329.725702
-6282.059046
-6662.213725
-5626.904292
-5519.269141
-5389.977541
-4752.693809
-4408.740523
-2818.626614
)


100
(
3.635258392
1129.121856
1186.437124
687.9084328
271.6872054
77.99255847
-1.166768342
-16.6631208
-18.15782916
-55.3452045
-62.51205999
17.74511875
46.40129906
18.24342893
50.76669508
114.4151603
90.11290156
-27.46953481
-112.7721873
-61.73194133
43.57245628
-47.8946809
-381.6499277
-711.3510104
-853.5796857
-922.410673
-1081.731611
-1316.954811
-1408.051831
-1181.23366
-656.005262
-66.27915412
69.57015245
-309.9508951
-585.1081365
-193.7106016
399.0603135
327.4529678
-578.9955661
-1710.567589
-2501.092119
-2614.327609
-2256.746044
-1616.892381
-1316.700999
-1750.22614
-2269.145349
-1677.808499
-626.4650235
-630.4694189
-1831.644562
-2990.313754
-3453.649001
-3009.698254
-1915.35525
-783.1542249
-975.9545825
-1942.10793
-1275.508951
-224.2692111
-974.4473057
-2321.210756
-2783.023508
-2905.169051
-2902.036514
-2489.755857
-2203.592748
-2129.056572
-2152.830624
-2140.574483
-1920.251634
-1848.270973
-2213.356406
-2845.306949
-3490.472716
-4029.623178
-3374.829518
-2611.435489
-2777.458243
-3690.673968
-3316.55002
-4069.887192
-4066.673716
-4295.377304
-4766.865307
-4976.919003
-5296.534318
-5670.067806
-5815.682568
-6098.776976
-6185.313617
-6346.227681
-6852.019345
-7076.241375
-6505.173123
-5798.098743
-5849.888781
-5323.057915
-4752.018842
-4731.490402
)


100
(
3.324404943
1035.22062
1092.138709
635.2009079
265.7102897
90.27284533
9.06044612
-15.8916668
-4.266519674
9.675812485
-20.06436017
16.76282844
110.9412876
108.1983053
47.48928159
66.78070842
128.0597646
103.3197869
-25.61107052
-154.2140998
-190.2906289
-172.6020894
-327.9034527
-707.6889567
-1138.145285
-1375.309632
-1282.817765
-1015.432152
-760.5706831
-681.6313133
-618.275382
-287.069837
288.1169984
527.6783617
81.85059556
-573.1732358
-821.1710104
-706.5978502
-886.1591177
-1514.017885
-2236.028333
-2693.334771
-2704.988205
-2090.135178
-913.2450277
-257.9191043
-903.2365258
-2005.784696
-2389.125786
-2030.539915
-2117.14059
-2388.676282
-2337.182439
-2342.416882
-2122.001741
-832.6908426
345.8778959
-520.4067372
-2013.30574
-2724.134563
-2622.905026
-2349.176921
-2034.417597
-1823.216936
-1792.096164
-1872.417163
-2094.080534
-2403.967475
-2675.00232
-3064.822102
-2944.898978
-2584.647247
-2455.093973
-2783.023361
-2785.461771
-2522.652866
-2824.909672
-3806.98507
-4654.813427
-4098.520088
-3247.42041
-3180.862283
-4462.583068
-4955.079354
-4939.532006
-4744.869401
-5061.06562
-5530.131721
-5989.623748
-6167.981431
-6629.307219
-6781.832546
-6899.648838
-6876.631605
-6449.366601
-5849.834353
-5998.016506
-5699.633697
-5104.944718
-4689.737406
)


100
(
3.614467533
932.3501289
987.5587252
572.8051522
266.3827852
106.1447324
25.30997205
1.738326294
-2.007842579
34.11719691
50.52963996
23.01849549
74.55690651
168.9474237
143.4754147
57.27242052
66.07635288
124.9893048
94.32314719
-68.04388776
-270.5420254
-450.0824474
-589.1703879
-777.2989004
-1031.92706
-1249.864441
-1257.208764
-968.2474123
-472.5067601
-16.8185263
42.0491421
-173.0871483
-206.4014743
112.1222579
309.2949637
-115.6376797
-988.2238411
-1784.012707
-2208.150133
-2271.336454
-1976.896593
-1567.34439
-1571.681557
-1905.441552
-1821.564348
-968.2654128
-351.10102
-931.8354696
-2162.732308
-3061.270588
-3207.459755
-2469.697845
-1095.776849
-311.7348353
-1050.225529
-1986.980482
-1379.086968
-931.0163886
-1626.295875
-2406.473811
-2529.956422
-2472.230973
-2537.895934
-2645.374282
-2566.214713
-2513.611526
-2448.561212
-2296.282579
-2096.035091
-2002.747546
-2300.661881
-2788.206898
-3232.026979
-3514.760423
-3635.030204
-3148.183262
-2933.314381
-3732.640974
-3620.755428
-3288.056046
-4416.065061
-4439.977523
-5067.625113
-5376.033517
-5517.670455
-5594.229297
-5790.46293
-5924.43477
-6086.041775
-6316.099009
-6616.588533
-6660.562919
-7072.017581
-6751.584572
-6018.819632
-5984.554317
-6025.982598
-5899.519366
-5328.933311
-6892.103009
)


100
(
2.22426599
831.5344051
878.1119965
514.8289297
252.0199513
122.0509003
40.87273833
23.39496542
28.41822954
37.30574666
92.12126699
101.8944977
47.73623569
102.9112392
208.8922671
169.4517121
55.70634482
40.79967292
70.36898368
1.856976271
-222.5013865
-535.9880689
-839.8384766
-1031.108369
-1046.391625
-941.9314429
-799.9329604
-670.402355
-440.2118789
-57.49721395
354.9566645
403.2122323
20.9529506
-417.4880181
-597.2410793
-713.5040684
-1122.629724
-1746.859293
-2267.867687
-2490.885392
-2294.141548
-1617.147737
-807.3225465
-688.9057761
-1327.277884
-1881.433341
-1770.902044
-1588.770826
-1812.214935
-2040.205627
-2158.27546
-2201.471905
-1567.116726
-230.6007304
262.0763092
-966.8121797
-2268.140303
-2735.212341
-2656.043579
-2355.572633
-2012.394093
-1790.267568
-1735.656227
-1894.654102
-2116.799775
-2347.888946
-2496.582635
-2812.513423
-3188.129952
-3008.688573
-2899.519665
-3071.591258
-3059.083975
-2638.156592
-2719.291318
-3446.023766
-4191.099981
-4531.251893
-3676.634036
-2897.688569
-3888.935477
-4676.157304
-4987.91222
-5028.528822
-5086.711815
-5532.985047
-5830.90181
-6146.433565
-6427.852576
-6674.303651
-6887.781365
-7052.273262
-7177.841322
-6370.151057
-5779.37124
-5994.206946
-6271.517804
-6006.788926
-5426.466182
-1499.332902
)


100
(
1.089606761
732.5716654
765.8915016
470.3016828
230.3963182
132.3731453
60.40912017
31.24711971
67.25801024
75.93609389
90.40960245
172.0823141
150.1987033
56.71701588
120.3860171
241.826306
185.085601
26.05696029
-55.21915655
-111.1587201
-256.2671616
-533.9468202
-850.9718227
-1059.8035
-1031.844337
-768.5810447
-407.3061981
-134.456231
-76.80893944
-83.91567371
47.85121291
274.6618878
260.2236976
-234.8796996
-1009.692192
-1704.016148
-2059.991127
-2099.046771
-1867.514367
-1668.921427
-1742.863419
-1814.433323
-1440.560166
-742.1092607
-583.2131681
-1272.989494
-2150.79329
-2625.142582
-2426.162682
-1731.040265
-809.1852413
-594.9691966
-1247.388476
-1473.200765
-795.4105911
-833.4294073
-1691.328023
-2283.923917
-2377.233658
-2335.482106
-2406.770844
-2562.507079
-2538.952786
-2509.893663
-2453.568165
-2297.122939
-2087.333683
-1959.549909
-2281.65486
-2698.323701
-3045.912461
-3192.5901
-3690.403787
-3479.649924
-3190.706979
-3581.478168
-3775.619223
-3205.79416
-3586.733189
-4541.383587
-4715.513785
-5075.598247
-5251.613974
-5263.417874
-5490.260213
-5780.19106
-5929.598038
-6019.074502
-6160.150982
-6369.309344
-6350.301484
-6475.49749
-6298.035036
-5381.681687
-5277.841232
-5664.885765
-6405.47684
-6182.890318
-6011.437455
-8080.060887
)


100
(
1.510175224
641.1503227
668.6710734
422.1264378
211.9334038
128.2365617
81.49304596
39.47041834
66.97273583
129.7377159
112.2505202
151.3130513
250.0133236
185.9630979
57.1715481
122.5510818
239.9860114
157.4298954
-69.69124606
-270.9404056
-437.3151108
-614.6029387
-786.4030479
-885.565243
-837.062729
-614.494391
-258.3368156
76.8817984
287.1983787
233.2703085
16.41930578
-199.0374756
-313.2741595
-533.3894916
-1053.052663
-1739.741063
-2275.743582
-2369.085807
-2040.918971
-1341.267145
-817.2134526
-905.0585593
-1358.505018
-1572.606414
-1392.84072
-1375.913992
-1634.085374
-1821.989135
-1897.443225
-1796.219141
-1119.821167
-179.5923919
-186.6194994
-1229.40263
-2018.232845
-2073.049535
-2040.837184
-1878.884067
-1649.480031
-1497.751172
-1541.816548
-1771.041268
-2021.436424
-2251.239399
-2403.265175
-2674.275785
-2948.282054
-2799.21414
-2746.634797
-2905.795732
-2897.4107
-2416.423462
-2421.572281
-3036.851436
-3749.636725
-4071.044903
-3981.881713
-3283.194841
-3286.334006
-4329.027004
-4527.037912
-4697.698382
-4771.619568
-4906.03323
-5185.507757
-5377.469745
-5742.566111
-6082.004088
-6178.584405