/*--------------------------------*- C++ -*----------------------------------*\
| =========                 |                                                 |
| \\      /  F ield         | OpenFOAM: The Open Source CFD Toolbox           |
|  \\    /   O peration     | Version:  2.3.1                                 |
|   \\  /    A nd           | Web:      www.OpenFOAM.org                      |
|    \\/     M anipulation  |                                                 |
\*---------------------------------------------------------------------------*/
FoamFile
{
    version     2.0;
    format      ascii;
    class       dictionary;
    location    "constant";
    object      la_i22;
}
// * * * * * * * * * * * * * * * * * * * * * * * * * * * * * * * * * * * * * //

la_i22_table
100
(

100
(
0.1680663095
-0.0003705614455
-0.01763783198
0.05548032558
2.621237903
-1.259063029
2.904117158
0.1909826124
-0.7750501695
0.1408517361
0.4055303707
0.3805490005
-0.9691075499
0.5274319655
-0.04311631273
0.1656226194
-0.5141549866
0.8703321449
-0.7712258604
0.6199108271
-0.5425612913
0.4237887605
-0.2608532085
-0.007096435482
0.4305436405
-0.3884619545
0.07835371959
0.2769079607
-0.1994583296
-0.07002714968
-0.02026345025
-0.1643172144
0.3530767272
-0.1225281994
-0.3484003227
0.5492649616
-0.2399316599
0.1636167502
0.7608314549
-1.258154433
0.3606580762
-0.4546918328
0.6226009764
0.4944455806
-0.7120339203
-0.6027055576
1.897585881
-1.186630597
0.05562660947
0.5230892073
-0.523347279
0.7500558432
-0.529722013
0.2737529313
0.2378766673
-0.9124896999
1.104676562
-0.6391293047
0.5401003228
-0.2220864719
-0.03377336417
-0.01126594863
-0.01090566105
0.09759662166
-0.06640582288
-0.1464890212
0.03104466021
0.2139730857
-0.03440629321
-0.1158911683
0.0626568947
0.2645483903
0.3387026279
-0.03119971554
-0.3302340051
0.05677171537
0.2265843346
0.2514020339
-0.064622831
-0.05091113436
0.2311759995
0.1000778572
-0.3910121425
0.310352998
-0.06791167829
0.1446286978
0.01084262612
-0.1377983215
0.07357132919
-0.3505516539
0.3921048466
0.203455807
-0.07388635
0.06098143079
0.037481693
0.006560996507
0.09275794056
0.1650048227
0.111910049
-0.0001310864025
)


100
(
0.2219291358
54.26795997
76.3497601
91.57493755
106.2770869
113.4182688
104.3716601
108.8885115
102.2631273
101.9977594
99.80194751
91.48310378
86.47587299
78.73285748
70.80861251
64.52692605
57.51322205
50.34628599
46.47528854
39.55730565
35.22511064
33.51095864
28.62780397
24.52781296
24.15939331
22.14462952
16.31748553
14.12053057
15.90330109
14.41611234
9.601249932
8.225702788
10.59684872
8.92179722
5.048634095
3.66411099
5.961789683
6.72587223
3.991644483
1.913352442
3.512712696
5.534629404
3.532032413
1.72856937
2.649687172
5.26435919
2.95466802
0.9718408515
1.416018894
4.57888365
5.333897509
3.426525272
3.629632225
6.447251127
7.678140839
5.952689648
6.311700833
10.36108949
18.88897413
22.88046826
-30.31456075
-3.614680385
42.97745953
12.69376243
-28.44399006
-2.80365549
43.84013352
-10.61460385
-16.32189806
9.136482709
20.881774
-16.23595798
-5.097863451
38.85809737
-7.457428862
-32.76642055
54.01798707
-5.996709143
-31.10306351
50.71241499
-25.05155274
6.62043295
23.83275215
-29.98144171
32.50304173
-6.640038627
-2.202862466
14.16646203
-9.210189478
10.50956924
-0.1533187372
5.402441648
0.7326763924
3.279114568
1.467456042
1.967978267
-0.5251835253
-0.549952033
-1.447395585
0.2322824872
)


100
(
0.3465789897
38.0216644
48.56720435
56.95072019
75.30519961
75.77008748
69.61826725
61.524948
58.46140805
50.36427679
48.30787907
41.40610235
35.3996636
29.28672541
23.79987082
19.08278098
13.23960817
10.60862738
10.60492606
6.124684134
2.015556115
3.980842012
4.506713681
-0.03567398069
-0.8885112989
2.866396475
2.045795153
-2.390481061
-2.318500931
2.20264825
3.15061334
-0.6617654455
-1.464905864
1.950281006
4.036084511
1.342804843
-0.2065850059
1.882070458
5.924383506
6.283645071
4.096126509
4.174121723
7.399976834
11.79415576
10.36241373
9.956214562
11.48619097
14.98440857
15.60546795
14.58220196
15.54793777
18.86550254
18.9986689
14.26862381
10.35522933
8.880594486
13.49207084
8.837827786
7.042113892
14.74276921
19.67318903
-31.60771903
-15.48070782
9.176038263
19.69356166
-16.95799621
-6.78217702
11.50098941
-1.276736359
-0.3316065748
3.766569157
19.25755092
3.528698054
12.07055058
41.14910076
28.43171001
-53.36280004
3.446522178
39.95839051
-16.10798282
31.66144617
-20.24718116
42.66589815
-20.70342582
5.510059166
17.72877621
-2.560510322
8.332640668
8.969344706
4.371250333
4.18781161
5.683472038
3.865800012
1.989982303
1.205829282
-0.8682983039
-0.9015416997
-3.359237132
1.959813539
0.4338511841
)


100
(
0.5436704873
23.83611551
20.98798001
33.44647902
45.84750996
43.2985442
40.87796333
28.42302551
25.8568827
20.88686397
16.00069592
12.94569755
9.413525928
4.946174582
2.131877106
2.08951579
-0.8612066288
-4.301574239
-2.124384026
0.9058229795
-3.292756996
-5.368883207
-1.587140843
1.091181996
-2.703410091
-3.820195439
0.2572142158
3.096308585
-0.168585703
-1.574367943
2.334788368
7.61139456
6.36130039
4.17174024
5.578542497
10.46515111
12.82775152
11.38910652
11.63756908
16.13948943
22.54418426
23.49182183
18.43520029
15.29166452
15.37545313
16.74428688
11.59103628
7.155896032
6.266983872
10.73166609
4.67948969
-0.805236667
-2.573531651
4.45013283
1.838901975
-4.279864811
-5.434685549
5.015241556
1.647475585
-7.015749293
0.9377481713
16.5414101
-12.83662402
-0.984169809
9.34680704
26.46554315
9.810672365
18.12281123
33.87649456
28.55342708
17.60202763
13.0677902
10.97817819
2.492104343
15.71789513
22.61231495
-35.15255708
14.49420481
50.61343302
-37.67235718
6.26670097
28.78817445
-25.82798112
11.77716819
7.719364293
2.392011299
-1.286212974
-3.537421109
-5.742636769
-8.708447046
-9.747585292
-15.76845443
-18.15164114
-26.31807286
-32.32363655
-38.7234259
-48.08218521
-31.45635614
-4.315702781
0.008394791202
)


100
(
0.7264534773
16.3715014
5.319176951
10.2332226
19.3826357
22.6801635
19.12763267
11.66208048
5.723708379
3.966432922
1.364640772
-1.633608457
-1.694592051
-2.54107938
-5.728192207
-5.1756269
-3.16321914
-5.451237187
-7.507762889
-4.28547682
-1.022356574
-3.95589632
-5.827583913
-2.208387819
1.906359724
-0.5207707469
-2.561809006
0.8810907847
6.625434048
6.487800396
4.238798922
6.836925035
13.74640056
18.72942167
14.72522357
11.86999839
13.78001368
17.05205448
11.86628687
6.243289051
5.155613546
7.372776686
7.421590177
1.743091669
-1.675130145
0.6124462958
7.250401579
0.9233761415
-4.616482901
-2.28162807
6.055243443
1.175580924
-5.095612941
-2.474694672
5.69155996
3.413562183
-2.818273207
4.412209267
13.73034546
16.14208497
14.74461406
24.35221184
40.39718101
32.7729202
23.55306674
17.62849221
13.20987586
12.58585741
5.519035771
-0.1968462194
-1.097483141
3.983139809
13.38257432
1.949178605
-28.23860003
8.449345996
27.28780911
-26.88335614
-5.792866423
-0.2496220771
-14.42266355
-24.04644502
-10.97375462
-12.42955238
-29.54050583
-31.51013315
-42.01334582
-49.2847222
-62.41627343
-39.95220683
-63.36929909
-90.76403842
-86.49272925
-105.4675389
-116.7688708
-129.1363578
-135.9901662
-78.06237551
-34.36733439
-6.971960274
)


100
(
0.7333567086
9.316465273
-10.09798128
-10.34816211
-1.232039012
5.824327707
4.238175288
1.338103347
-2.934017562
-5.614950828
-5.125868428
-6.45849875
-7.739522022
-6.157481259
-7.016598928
-9.199734661
-7.82378458
-6.212392737
-8.42564734
-10.27561706
-7.732863134
-4.715957921
-5.886638136
-7.623880716
-4.779122829
-0.08457379114
0.1252044251
-2.216106578
1.124297136
7.814888948
9.055613161
4.417564407
3.949971993
8.222063259
10.66883097
4.802459621
1.407581702
3.292745318
8.806342385
3.563596614
-1.119652875
-1.676009939
3.55366376
4.147439024
-1.88053114
-5.796323311
0.4985202588
7.785395998
-0.1443733207
-4.845956584
0.9205011284
8.87075692
6.811721529
5.84970951
12.81719149
23.43808123
30.49190194
37.93079812
29.07352804
23.30251715
17.68573304
8.310230184
3.401207409
1.513027593
-1.869976757
-4.815387254
-8.370633001
-11.32186488
-12.16458876
-12.07058257
-11.16974062
-13.02749045
-11.0790214
0.1884050193
-17.12198805
-48.63510271
-22.4084026
-44.62374402
-71.69758282
-61.8399293
-44.78174695
-43.555347
-90.54983894
-97.10940325
-102.3673492
-87.2608967
-105.545574
-117.569323
-89.9216195
-105.801574
-110.2594776
-86.79645459
-84.25739052
-65.20510816
-46.73827434
-41.59743363
-73.55548544
-125.050686
-96.87788588
-19.96543978
)


100
(
0.7143959729
4.112028915
-23.30497104
-26.91952448
-14.45180068
-6.695572221
-5.004782625
-5.603284604
-6.938208238
-10.04116916
-10.3199249
-9.18537747
-11.63035581
-11.95431712
-10.96441233
-13.15812994
-15.42546683
-14.76293053
-14.21823874
-16.12624912
-17.45241276
-14.56754316
-9.846250645
-8.721229632
-10.283943
-5.938098699
1.073228079
2.143141045
0.05193507492
3.257953889
8.095024861
6.744868354
1.389899656
1.235761175
4.828382054
6.898297104
1.002927593
-2.407214402
0.5777474457
6.505449026
1.589642458
-3.254174051
-2.188229197
3.685692336
4.078007227
-2.841959318
-2.383437693
3.415421452
11.07460053
5.722510369
9.360774194
18.82050708
30.60804854
28.15864287
19.18528364
14.65462151
12.62608247
4.222513255
-5.832515747
-8.680908157
-7.255708089
-11.73650927
-21.12197451
-30.85887582
-35.99566309
-45.35889103
-54.72118782
-42.50414325
-47.88269771
-51.18647976
-40.39802892
-42.06750433
-73.69729957
-84.02861041
-95.24530651
-129.9880356
-98.50333545
-110.8119456
-83.42139468
-88.9792149
-126.1244015
-136.5672846
-118.1949242
-87.89025015
-80.32018049
-70.31683044
-37.40503445
-13.93865999
12.57341239
46.19688011
80.67726134
108.507896
136.5019641
164.2665356
187.053095
213.6000635
164.5054004
26.37499575
-77.64102652
-28.48550279
)


100
(
0.7580002752
0.6365388464
-33.73961368
-37.49506172
-24.40944803
-14.57563464
-11.2624973
-10.68662462
-10.34095832
-13.0042694
-16.95848334
-15.59466997
-17.07924916
-21.5064068
-21.84902251
-22.27292237
-25.46126468
-27.55066588
-25.62630956
-22.52517902
-21.7858282
-21.11418408
-12.40976158
-3.016679601
-2.933955205
-7.139357322
-2.525768766
4.517927324
4.247950944
2.24549306
3.993659508
6.6952059
3.695574291
-0.03833673619
-0.1173110667
3.811878412
5.154552033
-0.4779805129
-3.74968519
-0.01035627369
4.582688023
0.07251516642
-4.192863207
-1.774725972
3.652328549
4.11359375
1.700192345
4.936090501
12.96337387
18.11479031
8.747735687
0.515391092
0.9938614968
3.211442315
-9.071676244
-25.19455153
-27.43949823
-24.90040312
-33.22766846
-48.11326492
-62.80658613
-69.89432008
-92.85201764
-115.3837781
-91.20037097
-79.57517625
-102.8607778
-90.52221024
-68.53953144
-106.3874706
-142.1309424
-146.4940051
-177.0971449
-156.448755
-120.8396971
-120.0615624
-83.17370963
-85.74071076
-88.043689
-73.36380224
-31.70721433
8.709788427
38.49531571
65.60104519
100.9387366
123.9698363
142.898057
157.4918275
152.229978
153.4523979
152.3721041
139.0071726
127.7424157
114.8263404
106.4472306
110.7835353
160.6095281
190.5375544
106.3418277
-47.63197546
)


100
(
0.8058439474
-0.2147975512
-38.72383371
-44.74339205
-30.99619278
-19.85192003
-15.44937522
-15.31822934
-15.77778415
-17.13957238
-24.85608174
-29.14964394
-28.36567747
-34.28282256
-38.91349026
-37.64074847
-35.53283063
-36.33992176
-34.04985498
-23.66877997
-13.1719765
-13.16434325
-14.31778846
-2.23802982
6.730798959
1.94345271
-5.615676188
-1.853501367
5.630576071
5.303315447
3.416881032
3.473863257
4.593189457
1.763148567
-1.405276578
-1.41309071
1.512940788
2.181193798
-4.132391592
-6.502325095
-5.155061085
-2.486906431
-6.554739312
-8.544432495
-6.279087486
-1.451785917
-2.797911847
-10.5280975
-13.39924278
-8.937493953
-8.205291359
-30.72822524
-47.80439962
-47.40675433
-43.73761591
-61.01787065
-84.9561964
-109.8297955
-124.4301133
-153.3393465
-178.6679575
-147.0523462
-135.6033005
-148.3068275
-133.3378071
-110.1724971
-133.0531619
-164.9272113
-169.8612476
-172.5288989
-175.1262887
-107.0408175
-75.54428008
-41.92117851
-0.0082129796
12.71199207
38.63155272
72.77799284
106.1650166
132.6669874
147.7073309
153.7661747
157.5877275
144.2385087
130.7289065
116.4414232
98.10368063
78.17962648
64.65802594
50.63162861
37.95886125
31.69611523
25.89280299
23.06491663
21.85338622
25.01568942
42.52883856
89.01236198
119.8470034
-66.23861454
)


100
(
0.8261212692
0.8538307202
-40.06036342
-49.50737669
-34.41881827
-23.32017066
-18.99293827
-19.46906308
-23.47170258
-26.66601408
-33.3845897
-46.62024223
-48.86854456
-48.57607303
-53.31473045
-52.92886298
-42.93627291
-30.28074811
-26.4861143
-23.43707155
-6.537962249
3.003322563
-5.045759446
-9.999307966
3.003551973
12.06523184
3.495875698
-6.901602237
-4.371478424
4.189480735
5.409264815
2.507559938
0.3154619781
-0.584760514
-3.133921673
-6.934082959
-8.490217919
-8.67898435
-11.27774115
-18.35459389
-23.20956171
-24.75419902
-24.65241818
-28.24250136
-31.56574264
-25.99427039
-20.37699887
-34.54927132
-60.26448757
-68.11470139
-64.53475502
-69.3887074
-96.76371716
-128.362614
-154.8657437
-169.1025379
-205.4236029
-236.0803884
-209.3560526
-184.1630905
-190.7959032
-165.8660622
-133.5556651
-145.6342027
-165.0266394
-149.7608059
-120.9989705
-114.5135999
-65.55640154
-4.589689874
46.68397997
96.45611827
127.2513692
142.7879991
160.6698484
173.0823747
171.9730244
163.2045102
147.8580661
128.253933
107.5415226
83.49155384
63.09040553
47.59152792
36.49939279
27.48961913
20.59408349
18.09761405
15.21652499
12.98152384
11.98833441
10.59890133
10.71503712
10.32405108
10.23853807
12.56176548
14.68853937
21.33972444
10.34738637
-111.3596664
)


100
(
0.7816705687
3.556736755
-39.12302794
-51.431779
-37.49667719
-25.31895804
-23.12997121
-25.69064925
-31.71739981
-42.3894817
-48.13948527
-59.07494042
-69.29095632
-65.56394828
-58.35373818
-51.91543663
-45.42200269
-23.24919216
-7.719408665
-12.68398661
-13.21485035
5.937000043
12.2671175
-1.925965654
-9.442270397
3.121735434
12.93520866
2.17192287
-10.60871129
-10.01036824
1.439515459
2.336052039
-3.183741812
-11.23098253
-16.20744968
-22.30328908
-30.20051865
-36.30957594
-40.21353224
-47.82932432
-55.07358835
-52.3382565
-41.91349276
-38.58507996
-64.5093998
-85.9012381
-84.96064354
-79.65772525
-101.3632063
-137.6991494
-174.702095
-186.9733699
-208.2767202
-242.9933332
-276.8061455
-273.6264362
-256.6420912
-221.1407694
-176.8167077
-131.6115799
-128.0817419
-130.218668
-94.9596785
-46.99532543
-19.17538653
18.98648253
84.75120047
134.5389632
174.9284929
198.0521302
203.3171688
198.191756
191.9589755
166.7730574
138.2085458
110.479835
86.29532667
65.47116595
48.70470049
34.94141665
24.2400577
17.54962008
14.07044579
12.67905291
10.03001336
9.289570171
8.323848755
7.738969286
7.112682568
7.015449505
6.529366116
6.587099297
6.529565749
6.52743246
7.371213921
8.014034046
9.000371538
10.24072115
9.302284244
-32.31280815
)


100
(
0.7493843968
7.831474579
-35.81937433
-50.25209228
-39.50255681
-27.24170313
-26.82439431
-35.59247514
-43.2799016
-57.81915686
-70.05447902
-72.56197655
-75.82077196
-73.13882783
-58.13740891
-39.1028465
-31.92701147
-25.95330631
-1.13573638
7.526810281
-7.717235674
-10.25714607
8.654431359
13.57472889
-3.047186711
-12.76456399
-2.198760314
7.242220654
-2.622454006
-16.64072728
-20.08812032
-15.93606082
-9.990939132
-29.93306108
-46.77582989
-59.19537797
-72.51090202
-82.74280646
-74.45126396
-64.18067469
-74.21829497
-94.59996928
-99.62269878
-92.12719445
-97.99912693
-136.4651134
-181.7774434
-200.6658895
-205.0591105
-237.2301805
-274.1245945
-308.6409374
-336.6859305
-299.8589149
-240.5822573
-178.1254783
-122.7543328
-112.8041202
-89.24370116
-15.83663736
42.88025045
78.43789634
118.3988286
164.9138076
211.0324313
235.3936087
238.2146582
222.4145983
194.1490703
178.7330062
142.485253
108.2752143
78.16297821
56.13605841
40.24453257
29.25675202
21.93324278
16.65373518
12.04488459
9.452187638
8.470780479
8.107134231
7.313002056
6.406101558
5.800556506
5.763839051
5.007885003
5.075007235
4.945347856
4.569209967
4.640768079
4.580214506
4.681034427
5.039200906
5.498482277
5.212237716
5.743785097
6.741288731
28.40460524
31.23270278
)


100
(
0.718704921
13.45453814
-29.88228747
-48.00245448
-40.09680401
-30.54313241
-30.87744811
-44.75699037
-60.2921037
-72.65268001
-88.46379077
-89.1071068
-75.97857495
-63.06359461
-52.31211496
-28.42689844
-10.31194863
-14.57454514
-14.17261306
8.102095967
11.24239725
-6.954604919
-11.00493794
5.387411445
10.16910002
-7.181335961
-20.12572899
-15.70889971
-11.28845666
-22.84716969
-41.242909
-55.51695717
-63.94563519
-78.61034426
-97.35159438
-101.153192
-96.42865449
-109.2151702
-118.1897018
-109.2448447
-102.9541597
-129.1288643
-177.529934
-200.3402974
-201.5682938
-215.0040252
-256.1108609
-299.4832733
-340.2081955
-354.1369809
-343.7184506
-271.4658188
-191.2990708
-128.9502058
-102.6574402
-25.43531754
51.95761719
111.1182987
153.1672389
193.7311269
228.9495696
264.1360857
267.5328756
254.2360597
224.5004847
183.7513805
159.0491467
120.4071932
85.03258868
59.80451474
41.36767965
28.62921249
20.42750668
15.48742806
12.59803818
10.69770935
8.591487085
7.175755276
6.532546708
6.401137875
6.184321141
5.104446501
4.321369865
4.132156417
4.355392485
3.891924084
3.616870424
3.604125477
3.36264226
3.219058841
3.155045816
3.322643732
3.529237438
3.771114765
3.717035979
3.62500893
4.177699242
4.525827232
34.23788509
107.5228147
)


100
(
0.6761891538
19.07973709
-22.64344782
-43.97309604
-39.41091794
-34.23834985
-37.81262783
-53.05159674
-77.9995237
-90.26198789
-96.48641108
-95.37552525
-77.70719686
-49.15929795
-35.47901854
-28.46267293
-3.72902633
8.055639225
-7.257695775
-11.2027195
8.072096988
10.68979089
-8.660186321
-16.75995678
-4.902014596
-1.243475695
-19.35065975
-39.03732464
-49.46927848
-58.41696682
-77.39796597
-98.83951486
-113.9675776
-127.6664481
-137.4716561
-135.0272529
-119.5929116
-118.8940238
-157.8611846
-197.5783215
-201.2118613
-196.6534359
-226.9786384
-275.8249159
-324.1476592
-336.3137433
-343.6344341
-348.2371605
-321.734183
-238.8676242
-170.4978413
-84.61829248
10.96730454
99.08410358
155.2987809
201.5211186
239.6197302
299.6021645
304.0934159
292.9029511
267.2787855
223.8420619
182.5546932
146.7296831
108.4941648
73.04881914
49.80232114
36.03734092
24.9823787
17.61410471
13.2784452
10.85384237
9.518791426
8.568932162
7.546515292
6.303127101
5.710814636
5.23316654
4.936515345
4.511311851
3.64562708
3.239122239
3.432705154
3.527012664
2.813505758
2.472430148
2.826603381
2.642556034
2.431828666
2.385133345
2.3447805
2.071231068
2.403585126
2.549832107
2.780761028
2.867992437
3.138680538
3.297561808
16.86336454
76.44584929
)


100
(
0.6618099175
23.85253675
-14.9775773
-38.73983681
-38.54116437
-37.1703154
-46.56695651
-63.98991522
-88.49131805
-106.0447327
-101.1220076
-88.39812274
-70.57637251
-43.7380765
-16.88761745
-16.69886459
-17.41259847
6.052422377
13.52739635
-7.114817777
-14.40264203
2.289699698
5.455536944
-16.155779
-31.75559482
-29.61936002
-33.90356697
-57.17572027
-86.91293366
-114.6364701
-135.9877597
-150.9830807
-147.8355439
-139.5715514
-150.4494373
-183.5337055
-194.2277599
-185.0034814
-190.3273645
-239.8202257
-300.232838
-322.1438083
-313.5308981
-329.5562962
-347.5928208
-348.5443815
-321.8617309
-230.2062707
-113.706484
5.250909187
109.3539346
171.863234
219.8607581
300.8997638
340.700616
340.9279675
321.4508458
285.4982162
240.8552955
199.6330623
149.0100982
107.1516245
70.11124873
46.83438725
36.16025973
24.9525571
18.01386145
13.35738591
10.61897116
9.147855053
8.300631667
7.646315198
6.935076275
5.869674426
4.940318099
4.289310614
3.978002923
3.823697927
3.530296839
3.039153654
2.956894835
2.759287246
2.633425618
2.105764042
2.050397076
2.365631912
2.196933305
1.975101955
1.888563607
1.97082334
1.953623958
1.786759622
2.015440837
2.239896255
2.441768532
2.33786144
2.478925125
2.475801452
-17.50973807
32.24486431
)


100
(
0.6012914018
28.68036555
-7.389153318
-32.71055767
-37.38058121
-40.06088297
-54.0377601
-79.5094057
-98.96503714
-111.4666642
-102.847506
-75.85724703
-52.84264678
-38.74246725
-13.95914564
4.157459164
-9.260890654
-16.34457782
5.654997402
11.95838837
-11.66600146
-24.2220553
-12.21103763
-10.8449387
-36.07074071
-63.73805372
-82.58492616
-102.1197201
-128.3182641
-151.7299313
-167.5383586
-184.83276
-191.369035
-180.1832219
-171.4809488
-199.3751316
-262.4836707
-297.2445033
-291.4239223
-289.129305
-322.4819106
-357.056259
-379.7486414
-344.1749312
-287.5143691
-187.4474856
-66.02612233
55.46333097
131.8714825
248.3674791
329.2994446
377.6220637
375.175484
352.9639984
319.6224789
288.2412485
228.1203742
169.3834727
119.2778319
75.50770422
53.2009305
37.74426757
25.94898374
19.05809639
15.16025785
12.19553465
10.06495991
8.489481918
7.341690183
6.57395751
6.005537022
5.410260754
4.437589542
3.785290837
3.534504174
3.492641033
3.393030489
2.954280676
2.483153581
2.136616735
2.107792962
2.167071597
1.896271044
1.799781372
1.70565461
1.614261787
1.496986505
1.488525568
1.529130217
1.491141831
1.509033652
0.08772829322
1.465900785
1.508738504
1.848000264
1.95240055
1.913362027
1.957654798
-27.03068609
-19.44310225
)


100
(
0.5505385769
33.27214761
-0.3656545092
-27.0740267
-35.37008674
-43.45822218
-60.95530321
-91.12725066
-111.9291497
-111.638512
-97.82862216
-70.36686809
-34.30283439
-22.16779934
-21.19203823
1.572766822
14.12805863
-8.918185363
-20.91907236
-1.074864433
4.864088172
-22.56057704
-45.00809759
-45.07060144
-54.44895779
-87.17437336
-127.7743224
-165.3490416
-185.3559357
-192.6799161
-185.4247394
-185.8676032
-219.0649056
-255.3049457
-255.7482421
-247.5693693
-277.0601482
-333.996919
-386.1582495
-373.7324642
-341.6637775
-314.3296705
-269.3114942
-185.3072536
-70.68468579
73.76881951
210.2315221
319.5694732
382.089452
395.8682648
388.1645066
392.8440032
342.0277445
272.3775676
203.2534992
146.7881554
97.50974569
67.11297154
43.87359475
29.13332403
20.40170487
15.76750257
14.12444862
11.55321601
9.3821429
7.699434806
6.572559709
5.911913065
5.464686053
5.015498464
4.486988363
3.852372703
3.336580201
2.985271074
2.796440634
2.610447977
2.271720029
1.88247302
1.860115187
1.979271556
1.846094286
1.542176958
1.221071503
1.375860596
1.48470949
1.300707843
1.205356288
1.175248021
1.155581609
1.203342839
1.254559856
0.6204337482
1.306984452
1.555023775
1.338995146
1.571935387
1.64439847
1.542633703
-30.38858354
-54.70950495
)


100
(
0.5089564361
37.43483972
5.914943599
-21.8497444
-33.15645096
-45.75760965
-69.16723477
-99.49007926
-121.5676878
-110.7968603
-86.34604935
-63.61263963
-34.44051699
-5.019428433
-10.13325182
-18.14410744
4.812660141
14.32971603
-14.39316973
-32.2248812
-17.03941891
-13.99691567
-46.59169953
-83.94578692
-109.4025115
-134.9292638
-166.078138
-192.314599
-209.6665478
-230.3837974
-234.2069424
-221.9193305
-226.3461093
-278.9357896
-351.4792637
-355.0568591
-331.5081156
-332.2767467
-347.7950905
-342.0564169
-308.6100731
-193.8993172
-56.0778569
97.19668751
234.3681839
331.938758
380.9183427
452.6137366
456.2343112
412.3454894
337.9646472
257.7571745
190.342562
139.135492
91.59468891
58.24679219
36.88059839
23.27849357
18.76737198
15.47095322
12.44415607
10.63829722
8.827988446
7.475374859
6.376508818
5.636256594
5.010774833
4.546331609
4.135482185
3.631983864
3.015171307
2.57027082
2.390882699
2.362341355
2.268243105
2.068274029
1.74404139
1.521839304
1.424803563
1.396552613
1.237379884
1.198414086
1.227338834
1.175540363
1.091768058
0.9885649228
0.9825301983
0.9922356494
0.9122992565
0.9533953509
0.9341481099
1.186082301
1.064305724
0.9486273322
1.297594868
1.282195613
1.302560343
1.295515881
-39.0112957
-51.28713835
)


100
(
0.4918785686
39.87092822
11.22568209
-17.01125421
-31.44503883
-47.146055
-76.53352389
-106.8317492
-123.7134648
-107.2126762
-72.05722359
-48.6801562
-36.79657911
-12.17148934
8.583083965
-8.971758335
-22.58004797
-0.6443863463
7.063360488
-26.11418038
-53.17462652
-51.08548438
-60.80133687
-101.5610002
-152.8617563
-197.6873827
-219.3892838
-223.7912649
-215.8219874
-226.6944788
-282.4255781
-307.4273779
-299.4891759
-293.1688087
-337.580371
-387.1559638
-402.2360712
-334.0629772
-276.8502566
-196.5211694
-85.77895131
61.62940207
191.6142731
345.9273907
442.5354166
494.2156392
472.9659164
412.8393505
343.4751583
289.5999372
204.3010182
135.1451013
86.68540876
52.53737787
33.50697453
23.78168893
17.79436176
13.68742118
11.41852364
9.891047933
9.139724994
7.534238187
6.293452905
5.308128641
4.63749545
4.181429042
3.830721887
3.459256608
3.004609584
2.603956458
2.328633285
2.116837889
1.976006105
1.818945472
1.584839041
1.318734449
1.247987386
1.312778945
1.327714759
1.135181933
0.9367994229
0.8541975567
0.9512483473
0.9616238738
0.8588409069
0.8054105493
0.7706274412
0.7694047029
0.7747316842
0.7489234946
0.767485516
0.9312449764
0.6167047083
0.9692334082
0.9704310672
1.024481316
1.060320627
1.049303821
-33.50536306
-61.21960002
)


100
(
0.5029342145
41.23953647
15.19629235
-12.65159999
-29.74099232
-48.85610133
-80.51151371
-113.4358983
-120.9744882
-101.4127815
-63.89481777
-29.5993143
-22.68288483
-24.9176594
-2.477591885
13.16898093
-13.11102628
-32.73469619
-15.55255802
-15.14084495
-49.05869191
-89.88365527
-115.190987
-142.7980162
-179.948402
-214.6855511
-241.7501736
-264.0912228
-261.4053641
-249.2173186
-270.1468332
-339.9482637
-394.6934933
-373.2669285
-336.9309061
-329.4118759
-313.6643422
-265.1168424
-150.1695203
6.061483376
177.5701873
332.6198675
446.4710115
474.5311032
487.3103889
473.9782728
410.9594674
310.9863369
216.5899512
139.9531143
90.69999509
58.69256522
35.98027499
23.81331234
16.40524135
12.25046527
11.70194556
10.29528886
8.741593982
7.480032478
6.110856742
5.210681833
4.539769029
4.069482315
3.693320864
3.347551687
2.996313583
2.570607869
2.152476588
1.859953894
1.725307789
1.680171245
1.589942853
1.419804268
1.281318429
1.144940935
1.054480356
0.9835938345
0.8354001759
0.7429312301
0.8611137535
0.8683537258
0.8195171461
0.737977741
0.7596245488
0.7404991676
0.6820441019
0.5647162757
0.5263833119
0.5919850454
0.6430574321
0.6800170953
0.9095543559
0.6639677142
0.8141745824
0.8553639638
0.8790522872
0.8541893368
-29.64067087
-39.99199777
)


100
(
0.3667005921
42.21413988
17.79974334
-8.882641708
-27.51584449
-51.90282487
-84.07552377
-115.8165337
-116.1201189
-89.43075354
-58.47970016
-27.68146889
-4.091056339
-13.01348369
-24.45026526
-2.7519759
9.561287588
-22.38874954
-49.70069299
-43.74191403
-49.1487865
-93.50352132
-152.9599087
-203.6199565
-229.6194845
-236.7096937
-237.5422948
-261.5874659
-318.6297496
-329.3186542
-317.2808899
-322.1653901
-368.4464834
-404.7109267
-365.9271092
-269.3016532
-174.9736881
-57.08102348
89.54190717
243.3885355
389.5556082
500.0740897
544.3071744
524.1266791
436.8021215
333.6645045
258.0967163
180.8520165
111.338178
66.2309866
40.28672944
23.59516797
17.78071838
13.93246612
11.70214202
9.831934486
8.347605704
7.47264422
6.601771817
5.513280696
4.633827477
3.921694604
3.450232278
3.123819968
2.837896692
2.544944659
2.165677052
1.892595575
1.768574805
1.620389325
1.504103484
1.366924049
1.173202063
0.9527182522
0.8569956458
0.9027200782
0.922872111
0.8844962616
0.7137783178
0.5521986776
0.5806208674
0.6199082623
0.59395756
0.5424877177
0.4484560833
0.4228577186
0.4335633384
0.5103438363
0.4878459804
0.5130553469
0.3962728249
0.4827905061
0.3376647602
0.7123565607
0.6729618095
0.7298018236
0.7386915214
0.7197776814
-28.65616256
-34.90469051
)


100
(
0.2601544182
42.67132737
19.17547293
-5.876155599
-24.62451752
-52.29377889
-88.50394158
-116.3127985
-110.9016216
-78.420466
-46.85343786
-30.76670376
-10.07352192
5.896038852
-13.28100668
-30.67915246
-11.08003909
-1.213660958
-36.50075089
-76.09741723
-93.89955574
-118.0164174
-163.5397139
-215.4666202
-256.9027497
-275.4652763
-267.926482
-261.1099072
-294.9499583
-369.2215254
-401.9565137
-366.1836696
-326.1982304
-307.9137701
-266.3852362
-185.2374215
-17.33360214
160.4718822
335.980617
467.7272724
535.246664
515.9121213
502.9992067
429.8202958
328.0483278
220.2531118
135.9224828
80.2190338
51.36903122
31.53292845
20.24152372
15.33241966
11.25566278
9.42955855
9.313019322
7.966023626
6.85464469
5.721527665
4.711356228
4.020230537
3.529693711
3.178126934
2.873019058
2.578057033
2.294381105
1.938330361
1.608541404
1.384927937
1.272002161
1.238402929
1.180878148
1.03483262
1.012199326
0.904713262
0.8008910706
0.7209021119
0.6023160854
0.4474988964
0.5266006732
0.664861726
0.5976941374
0.5288462621
0.481278186
0.4756935271
0.5119251147
0.4668384464
0.3977908006
0.3261246093
0.3791204885
0.3435561621
0.4418584189
0.5216228726
0.6679508546
0.4786812125
0.5832980232
0.6142535238
0.6267568173
0.5952419531
-48.09227081
-92.75784412
)


100
(
0.285340752
42.59264312
20.26424057
-4.075591989
-22.37573427
-50.67432911
-91.16924402
-115.4036977
-104.5611095
-71.59549035
-36.35696447
-22.24975308
-22.10568706
-4.695042746
8.251946667
-17.21487572
-40.1129147
-27.54886192
-25.28924334
-66.09603967
-124.2945943
-172.8460902
-203.279168
-223.7405413
-243.3515049
-276.4190703
-319.561456
-320.1654937
-309.8558108
-324.2898766
-378.3614979
-407.4163444
-330.3084543
-220.4333086
-102.9249951
32.56895955
195.5535165
341.2848523
496.7802782
570.2522754
576.6167003
505.2603173
385.2739796
271.0864044
197.5600457
121.6507186
69.70684434
40.53343665
25.47233684
15.77719917
13.33774068
10.8216784
9.401693623
8.042761897
6.721522288
6.315682523
5.375778616
4.492230252
3.74756387
3.176585805
2.79833617
2.513515824
2.267423898
2.018641574
1.708225477
1.493290246
1.400423066
1.266894068
1.171018764
1.053614247
0.8865761598
0.7138372439
0.5869928418
0.6484712838
0.6968886149
0.6508948105
0.5879472087
0.4501505473
0.3495927096
0.3771425496
0.4106028696
0.3789603719
0.343172746
0.2832484296
0.2428249926
0.2704995198
0.3699479608
0.37059995
0.3934083257
0.3869992836
0.3723363819
0.2132332709
0.2054822419
0.5695491043
0.496436102
0.4878998628
0.5062906977
0.4775640214
-88.86128016
-114.0306721
)


100
(
0.3226757377
41.78457608
20.81314808
-3.029994662
-20.83697219
-48.24538689
-88.97833288
-112.4976475
-93.53464052
-65.52734773
-35.15052313
-11.50014762
-14.23037317
-22.48833614
-5.438241425
5.332506113
-22.88480548
-53.0186982
-58.97596991