/*--------------------------------*- C++ -*----------------------------------*\
| =========                 |                                                 |
| \\      /  F ield         | OpenFOAM: The Open Source CFD Toolbox           |
|  \\    /   O peration     | Version:  2.3.1                                 |
|   \\  /    A nd           | Web:      www.OpenFOAM.org                      |
|    \\/     M anipulation  |                                                 |
\*---------------------------------------------------------------------------*/
FoamFile
{
    version     2.0;
    format      ascii;
    class       dictionary;
    location    "constant";
    object      la_i7;
}
// * * * * * * * * * * * * * * * * * * * * * * * * * * * * * * * * * * * * * //

la_i7_table
100
(

100
(
127.7083142
-0.001409081935
0.008440750427
0.09772072068
0.4944529464
-0.3216519756
0.7206514082
-0.06232408266
0.1642309635
0.08787597132
0.1383626368
0.09821847513
0.2702976858
-0.00601482208
0.362330034
-0.02552606763
0.4103412265
-0.02989094758
0.6865602134
-0.08880861948
0.6853288025
0.1692956691
0.6770091228
0.5512023338
-0.01689559781
1.282886522
0.6070731473
0.008994261112
1.342314142
1.094497318
1.173203169
1.9262418
-0.6540785853
1.87717496
3.744448685
-2.575491327
3.315728374
-0.2058099127
-10.05103144
17.49916153
-2.926169621
8.84496378
-8.618602931
-10.67686269
17.5665649
15.50806875
-51.71143816
37.66394619
1.095055331
-18.02913412
21.51680392
-31.37308119
24.89751487
-12.55313004
-13.56100645
51.91540896
-66.08251973
43.05463173
-36.54453134
14.59689426
2.72487191
2.401475506
2.02814923
-1.85127295
4.392083396
9.286439676
-0.3791714225
-13.98438343
4.514407858
12.54176646
-2.818068393
-10.99136608
-5.834048185
1.12227726
10.51263758
-1.944305645
-6.234604005
-4.206079848
1.149537611
1.47183607
-4.420724052
-2.409729262
18.14369575
-6.176027304
1.918926261
-2.194679989
-0.2457567876
4.870260351
-1.681132144
11.77433617
8.134864216
-6.64662178
2.145380178
-1.230535574
-0.9454027963
-0.06139658957
-4.235977989
10.6765127
15.16790188
-7.733812578e-08
)


100
(
127.7015218
99.52942865
76.30041649
59.87743924
48.58411731
40.66831608
33.07143807
28.52891548
23.83695086
20.66226783
17.73032459
15.2045185
13.35436291
11.4916421
9.964697601
8.833017656
7.687054829
6.599882807
5.927408795
5.214683082
4.501457462
4.026955902
3.627459642
3.187772796
2.78117239
2.524233138
2.221639139
1.90689049
1.653990254
1.514784891
1.340606771
1.163888141
1.035583599
0.948436413
0.8286625322
0.6995546669
0.6024895987
0.5511490675
0.5019307804
0.4370799646
0.3875041284
0.3641319742
0.3382649445
0.2983790201
0.2631739653
0.2375853677
0.2039074315
0.1699251266
0.148448267
0.1474231925
0.1497082094
0.1413744223
0.1343417529
0.1357464988
0.1328307766
0.1352654911
0.1456914957
0.1723634367
0.2021365902
0.1084745791
-0.1612427102
-0.03046033546
0.1954832874
0.08652990432
-0.1208604099
-0.01362555905
0.1250137642
-0.02027048957
-0.06253531984
0.02558142801
0.04623304373
-0.04070450486
0.01018470234
0.09294148297
-0.01442761213
-0.1022686971
0.1251249631
0.01029326651
-0.07366558493
0.08928177176
-0.0273097437
0.00782740865
0.04036006278
-0.03076300244
0.0307091804
0.01269012009
-0.02504011795
0.03283587224
-0.01565820746
0.01885676206
0.003282299269
0.01507729477
0.009164218936
0.01539101548
0.0107841614
0.01747647064
0.01871571651
0.01270241897
0.004366241688
0.0004676064705
)


100
(
127.6868629
99.12700213
74.17019757
56.08279271
45.46166153
36.42803428
29.63588034
24.22877705
20.26769541
16.68437217
14.23572201
11.81488465
10.04654641
8.527732271
7.083364767
6.077999749
5.259340014
4.436391808
3.792443202
3.400853924
2.940911394
2.566492612
2.37475186
2.210747082
2.000585983
1.8288085
1.687389476
1.493296797
1.307068309
1.207518303
1.164736485
1.085536912
0.9954042084
0.9424909312
0.9222690712
0.8858461106
0.8356263995
0.789221112
0.7843697505
0.788576033
0.7565603237
0.6987156214
0.653313682
0.6513823117
0.6694577297
0.6688644337
0.6250706686
0.6035272559
0.626905818
0.6256074063
0.5644987785
0.5019960448
0.4385279686
0.3631618486
0.2351143096
0.1565713204
0.177993969
0.1581916232
0.09465989673
0.09127215221
0.03167152474
-0.2403957866
-0.1532690583
0.06429587783
0.06915886395
-0.08604459893
-0.03659270001
0.05698515055
0.009883261681
0.01610473985
0.07957713614
0.1365393979
0.09701013985
0.1417145483
0.2528002454
0.1529918057
-0.124701723
0.02575498973
0.03322152699
0.1174557077
0.1780558633
-0.1779544948
0.2875831154
-0.103568776
0.0008577011717
0.1411869364
0.02093336107
0.09611517409
0.1305446521
0.1181074967
0.1323639244
0.1564512069
0.1993276394
0.1266653176
0.2192520244
0.2637788151
0.3015399605
0.1686626144
0.04975853948
0.01227620401
)


100
(
127.6655833
98.88052865
71.58506658
54.11162916
41.94712534
31.98928951
25.93748194
20.15583083
16.75357706
13.61620743
11.20119812
9.280984955
7.54610585
6.38403219
5.293991693
4.453361138
3.937566028
3.455904468
3.045141711
2.848537973
2.699158319
2.51352628
2.468437547
2.596307189
2.667317355
2.666459552
2.634914747
2.572302324
2.424538517
2.322559472
2.294791604
2.328191993
2.282392554
2.161087543
1.998310618
1.906739628
1.92946739
1.951401768
1.873648885
1.801452581
1.811989275
1.764711308
1.507863131
1.105536457
0.8589604246
0.7791389883
0.6016444993
0.2857219571
0.1607065541
0.2513997621
0.180505005
-0.0869549925
-0.2030142621
-0.05104227485
-0.003055430205
-0.1455077566
-0.1718287744
0.007139791187
0.0354165353
-0.05689008346
0.02124767104
0.1463595262
0.03984369791
0.09107079771
0.2371349071
0.3105473433
0.2765279542
0.3216054449
0.3915936938
0.3683166407
0.3159741343
0.3120449021
0.2263538044
-0.1075875134
0.6746813254
0.6667242752
-0.9665904106
0.09010796406
1.07433136
-0.4216998189
-0.02799943685
0.4704662909
0.1053232274
0.3438485954
0.5001132769
0.427329396
0.4088034591
0.4019028304
0.6811560669
0.7322967871
0.5898916526
0.7195136444
0.7277192769
0.986712814
1.085350897
1.343265891
1.360122903
0.7343171327
0.2772012136
0.09304223267
)


100
(
127.6475451
100.7263453
71.26026106
51.89124683
38.13109753
29.06385063
22.43484773
17.58261139
13.93029709
11.52136911
9.37533486
7.903240048
6.648304697
5.697264987
4.998385633
4.460894393
4.256379004
4.156805122
4.006365792
3.939307042
4.051516289
4.074430136
4.113602188
4.31519715
4.677739051
4.88047358
4.928945094
4.80559377
4.593843404
4.346459381
4.119726282
3.890345712
3.767671443
3.653676031
3.314910163
2.679430231
2.181840482
1.960332452
1.669140595
1.001798948
0.4261663582
0.3268656655
0.3960800135
0.1306213859
-0.2697572589
-0.245348186
0.03145267632
-0.06379462518
-0.3738717386
-0.2896675487
0.06667165161
0.06103432523
-0.1708182533
-0.09687024136
0.2228555701
0.3116153974
0.2279640166
0.3583590549
0.5824911453
0.7076054093
0.8134378461
0.9823036298
1.071255585
0.9097548425
0.6422853851
0.3258815326
0.1402906959
0.4000855192
0.3630614284
0.1757826077
0.3053278749
0.8828121865
1.4096149
0.3833649433
-1.502252348
0.06460337958
1.365122142
0.1385595863
0.1620682236
0.7727654581
1.252658409
1.643972209
0.7643059242
0.4577772751
0.9662932259
1.086927806
1.642839954
1.710129462
2.266721879
0.804741451
1.756480546
2.782307786
2.324613973
3.165507134
3.593952128
4.358869692
3.41597125
2.093677697
0.9414196688
0.4051345806
)


100
(
127.6464172
101.9339675
70.63659048
49.43806481
34.87695359
26.43681182
19.78788648
15.76171662
12.66259935
10.73797616
9.31672281
8.21136065
7.38587166
6.828536577
6.524912802
6.26648939
6.221778454
6.455980622
6.58938788
6.582746729
6.582620978
6.649027528
6.641627421
6.689259178
6.793362221
6.82067523
6.612082387
6.130138867
5.481643217
4.881917837
4.24981844
3.38626146
2.384609641
1.858547295
1.667316341
1.248847569
0.4480070072
0.1389496833
0.3259148206
0.2234702831
-0.4678728149
-0.8484278597
-0.4778644551
-0.1411376017
-0.4021555371
-0.629924425
-0.1794115793
0.3684246183
0.2805309925
0.1179732017
0.4977239479
1.027170956
1.130022474
1.1191854
1.395103602
1.823790019
2.164432285
2.190212859
1.639382239
0.9483528443
0.7143786224
0.7870999797
0.543265771
0.1578081448
0.3048903989
0.8401830685
0.9584274115
0.8642449672
1.250573749
1.824014695
2.248901655
1.755063576
1.011595805
0.6005435797
1.379835435
0.2327478347
1.340563587
2.374472582
3.30530457
2.279860387
0.9530392309
0.7172294068
2.567624804
3.248127114
3.291057984
2.315691461
3.749219425
5.536684677
3.213723828
5.52699359
6.645944274
4.847676864
6.935893094
7.576435172
9.563700653
11.18283802
8.871628864
5.110275646
2.508258088
1.227694215
)


100
(
127.6471151
102.6249638
69.62475055
47.04595128
33.3875732
24.40146406
18.8284445
15.20164762
13.03263964
11.72937677
10.88650111
10.38551874
10.01818614
9.687386929
9.620646152
9.673997882
9.628675866
9.676727054
9.796490135
9.726359782
9.434865922
8.963757796
8.40153447
7.980864941
7.741225565
7.211156196
6.12092481
4.709729352
3.361333299
2.463700671
2.144598594
1.746936582
0.7704422389
-0.3134765299
-0.4810305955
-0.1784839543
-0.4578909991
-1.054470297
-0.8456280884
-0.1304728428
-0.1285947433
-0.6611350894
-0.5728855878
0.2517486187
0.7369794281
0.6288417512
0.9157783965
1.741616848
2.428927765
2.52728239
2.860964158
3.417192256
3.750120476
3.496169221
2.787659992
1.774669735
0.9738075937
0.9914261611
1.249812839
0.9160208857
0.3951790846
0.6395218195
1.583918227
2.304421343
2.4648207
3.13919995
3.728508532
3.102527997
2.494691352
1.880836307
0.9380051753
0.9121538918
2.339905705
2.958584026
3.864979988
5.26179203
3.464717744
3.226413956
1.485111055
1.892003529
4.98550997
6.781299197
5.93638308
4.438681642
5.700222588
8.252014761
8.232675885
9.594738384
7.146719676
6.143797892
10.97734627
14.46625626
16.64790052
19.35843932
22.38927263
24.93213117
18.00555967
10.58089794
5.95803665
3.186208794
)


100
(
127.6423174
102.6085442
68.22173386
45.95574547
32.23872908
23.43081306
18.88980117
16.34866231
14.95882801
14.45771255
14.26443257
14.12644803
14.27102462
14.13276246
13.86924261
13.76272899
13.64121522
13.23211648
12.56020522
11.81964823
11.01292689
10.07002178
8.662669068
7.18950989
6.381036886
6.170612259
5.308684001
3.372046673
1.047349606
-0.6732438764
-1.023349106
-0.4168979314
-0.1586450249
-0.9901045891
-1.678510009
-1.115744361
-0.3305595008
-0.4926037026
-0.7238820902
0.1064988429
1.253121252
1.468942105
1.406970306
2.192023306
3.42475051
4.124544778
4.474726203
5.025033355
5.408688111
5.19906377
4.511410606
3.492355564
2.111891443
1.085509023
1.188084621
1.784350128
1.621594214
1.177026829
1.703187272
3.055631393
4.073564233
4.485761325
5.54210925
6.09603509
4.531627655
3.105193186
3.11677356
2.126646993
1.19115048
2.927868961
5.204357471
6.381991586
8.210701781
6.785647878
4.080300509
4.463573248
2.634078667
4.550893802
8.661757262
11.59679455
9.548430082
7.832656476
9.058622737
12.72290395
14.09553619
14.90856535
15.36451608
19.76707643
16.93567933
19.68746157
23.54252947
24.92371506
28.56527324
34.54919912
36.8378084
43.09592817
32.22188758
20.20071018
12.15256813
7.507590053
)


100
(
127.639956
102.9999953
67.70811953
45.56485655
31.60289213
23.98923983
20.17422973
18.97034699
18.65760133
18.69255655
19.28464488
19.34320819
19.3656909
19.43220187
18.7580717
17.80086819
16.86561697
16.0486559
14.41383339
12.49922413
10.53941251
9.034481597
7.679050155
5.611533498
3.762887919
3.303494235
3.754613598
3.181625512
0.9249840116
-1.835195015
-3.324972649
-2.629255667
-0.8437978116
-0.0984083349
-0.6688827471
-0.6266347602
0.7705349058
2.000012645
2.13013042
2.71503713
4.232771507
5.779836078
6.295640187
6.795392665
7.54027377
8.00749541
7.609365268
6.429624315
4.566835939
2.513647072
1.47312226
1.972032581
2.609348161
2.209982859
1.761045083
2.796451329
4.773639304
6.311670056
7.151464095
8.482043177
9.086326709
7.317491264
5.674665962
5.132372298
3.5779642
2.075511415
3.795199664
7.223670724
9.454394708
11.59996525
12.40443649
7.846548676
6.844017183
6.252898537
4.148172688
8.62993479
14.3894361
17.18562683
14.45778425
12.05457592
12.97376777
17.93661605
23.68505516
21.69274918
23.6697565
24.04527575
31.49768372
20.41108738
32.79934232
40.85490997
44.6289112
50.01601746
53.9139765
62.11127897
72.94697476
70.92249607
54.63216334
36.38695463
22.24384201
14.10342664
)


100
(
127.64176
104.5737746
67.91020303
45.2407817
31.84223291
25.483981
23.10219303
22.89926425
24.13034243
24.652058
25.1126096
25.54696731
24.96473973
24.27949184
23.17569779
21.17269354
18.73816177
16.33360198
14.07797136
11.77574987
8.893135524
6.422370265
5.114348406
4.148577598
2.222891677
0.6893245485
1.063318954
2.438150621
2.375529801
0.1099203734
-2.595643406
-3.331012755
-1.300818939
1.649426244
2.905192818
2.9378237
4.140094133
6.357599375
8.072368623
8.806284562
9.692019935
10.57036914
10.85156143
10.0555131
8.441475598
6.17294673
4.253628911
3.715820536
4.034120093
3.574733064
2.346802592
2.268489085
4.307872886
7.106098838
9.038518798
10.18904178
11.73916762
12.22197325
10.22530715
8.028743065
7.267546267
5.429234299
3.593588246
5.516897947
9.780229898
12.33562795
14.21109669
17.18869717
15.1460001
11.43944566
10.81073491
7.599659906
7.807375547
15.05413926
21.74136297
24.36056362
20.96331701
17.57673651
19.37843642
26.05266492
33.20291433
33.2415751
33.21094978
32.88482628
41.69756926
41.86902205
42.39744063
53.90135086
58.57810894
62.05933412
65.4108071
69.78011584
87.24660667
98.07134981
130.3805735
106.9426937
86.13478707
58.93333348
40.25429579
28.05406783
)


100
(
127.6487483
105.6042823
67.85325256
45.01906819
33.29887602
28.02174939
27.41697164
28.50960813
30.41737549
32.05627295
32.06501479
31.47087448
30.19432584
28.1943287
25.87468955
22.83811496
19.27208421
15.35725625
11.90093245
9.381894895
7.098634384
4.178142346
2.224679277
1.991831786
1.94620013
0.7368823859
-0.1415052138
1.053910696
3.323009223
3.829514709
1.72429453
0.1465312503
0.8724133816
4.804286659
8.707691545
10.54082806
11.53911733
12.8388045
14.12760143
14.61926737
13.69655021
11.2663499
8.180355186
6.040115902
5.475996555
5.209366782
3.827787653
2.627547698
3.760783519
6.838342618
9.748467208
11.16053098
12.55737177
14.60835212
16.15528401
15.9381856
14.31317247
11.72020043
7.532729899
4.494620996
6.585782639
11.68072532
14.91742653
17.40856615
22.00142746
23.9117084
18.96422497
16.43271222
11.46410652
7.766934803
15.25413502
24.39519985
28.31924279
31.83818519
27.52934056
23.2467888
28.38531708
37.63179818
46.0716613
48.45597507
44.73802186
42.88211184
51.62617818
68.17007247
57.27025368
74.3378375
77.0010049
90.05219664
95.9686222
109.8403399
123.9931623
133.7495928
146.9403956
168.5343557
201.6979205
162.3892188
131.4789563
90.31965941
60.40166088
57.1075086
)


100
(
127.6489194
106.1097243
67.37047475
45.33646433
35.24126316
32.01855258
32.78770303
35.87905483
37.97033643
39.60809211
39.4603828
37.39003015
34.23618874
30.44812216
26.48615958
22.29816856
17.75057796
13.50961626
9.289097226
6.293692504
4.740581512
3.337645996
1.261783089
0.3665144595
1.431913033
2.694779741
2.662078181
2.795558247
4.889081882
8.148604033
10.00250094
9.220824539
7.130315936
10.97046807
15.11815838
18.20406125
19.14181563
18.32275528
15.86499557
13.09408379
11.18289657
9.707494339
7.11679005
3.878236291
2.739902997
4.900145111
8.344981292
10.44612451
11.82557535
14.65245719
18.36800304
21.28461382
22.18733843
20.26549524
15.75237898
10.0122842
7.27818958
10.14253676
14.69325599
16.51375789
19.01934239
24.88168894
29.99235814
30.39244999
26.23267597
18.45827288
11.17768016
16.00761956
25.88615965
29.03557413
36.6410255
41.74389501
35.47438005
34.52793805
41.78363694
51.4738813
57.9049189
62.60123592
57.87224775
53.47719982
65.66998464
83.82150264
83.78700197
91.47665662
91.18064443
116.2271895
100.1904849
125.4790577
149.1284049
163.6462671
185.1561438
204.9278359
223.4823634
261.5829567
272.3766031
230.5305284
183.7377061
134.6803066
91.21804643
33.64472165
)


100
(
127.6542451
105.9563668
66.72324884
46.52510701
37.71162779
37.12125124
39.58186062
43.63239058
46.53082085
47.2102081
46.13585369
42.60210582
37.29413506
31.11476592
25.17771517
19.8234172
14.88294303
10.49644166
7.050911882
3.990144715
2.489894353
2.547964159
2.531076853
1.838485828
2.245548487
4.667474513
7.708130396
9.47849665
11.07753923
14.05074213
17.87068862
20.77097107
21.35717635
21.39675822
21.68310902
20.71120242
18.94662521
16.90120685
14.25097724
10.10705507
6.554426679
6.060643685
8.040266634
9.434833409
9.688871338
11.41667417
16.03998278
21.64484939
25.86762773
27.60198615
26.81462326
22.29972762
16.48143278
13.7590214
14.86499196
15.44144697
14.85521554
18.5266525
27.52407895
36.42664778
40.92532499
39.12703118
30.31246236
20.5392942
20.0656732
26.66678908
28.63488866
35.01002756
48.20794903
56.64950715
56.18474943
56.88512625
56.52502119
58.76766051
68.20115647
80.52630511
76.09063661
65.22150785
79.97203699
106.3325061
123.4523165
118.4201299
110.1789443
130.11322
162.6427843
154.3667117
154.2205276
188.6687048
202.3595721
222.7947666
251.1022501
295.0954755
341.8717672
383.1045366
377.152691
333.7728911
245.1616676
193.3000076
137.4027684
227.1428031
)


100
(
127.6670273
106.248533
67.09260184
47.62066859
41.03902899
42.61503121
47.83068763
52.25254184
55.37310011
54.74902446
51.57363277
46.13085904
38.97417407
30.84890239
22.94075317
16.56315735
11.39630049
7.347885045
4.673871134
3.09790835
1.925926828
2.180424222
4.086348648
6.124641933
7.37228557
9.425217803
13.26345743
17.88591646
21.60341936
23.99844984
26.19205032
27.69609341
27.80754964
26.49081452
24.08286951
20.10416175
14.75571802
10.74737524
9.670044832
9.909765436
9.006112359
8.376051176
11.2771759
17.46786535
24.02592598
28.28957148
31.24942169
32.90179326
31.61193332
27.92194972
24.60208086
21.68753698
16.71573955
13.10943213
17.37575273
28.28801993
39.24368132
45.04587134
48.40399083
45.91247552
37.67829014
32.39614595
31.05233779
26.9744612
28.52683796
44.529742
61.85354513
70.38477092
68.95628807
64.58547222
60.87251728
65.80087115
81.49058865
97.31258179
103.9894159
103.7099286
116.0007237
121.6448522
132.4662074
155.8704666
145.1042882
145.2714082
190.0123413
217.8247934
198.667155
189.8169489
251.9840256
268.6433258
277.8916395
310.6369682
351.0332162
323.7943531
432.2044122
510.2998747
515.4562729
452.7809024
344.8552904
263.0446351
195.0422301
18.29931309
)


100
(
127.6749161
107.0649486
67.36329555
48.81671149
44.95393807
48.77013387
56.50198119
61.95044599
63.72119112
61.71516903
56.06324447
48.13756429
38.76950875
29.43293541
20.54259799
13.29711549
8.47161905
4.984687313
2.910919173
2.726689275
3.579569481
4.567866763
6.807724511
10.92054764
15.79767376
19.2917687
22.78525338
26.98541392
31.13113593
33.96290038
34.4159973
32.87034151
29.02690385
24.11979461
20.15409628
17.33195569
13.88432132
9.371370346
7.439914178
10.56705572
16.70146779
21.77480757
25.55512158
30.82208131
36.92553106
41.29190499
42.07970533
39.07821382
32.39093054
22.91139795
17.02937457
19.9811794
28.4797212
34.32813161
39.70862752
49.62136689
59.45415057
62.6282627
57.55446014
47.57647728
32.96634369
26.07165541
38.01562583
56.73502048
67.64289907
79.13928682
85.23594074
78.60681352
71.8376058
80.01028972
98.98989283
117.7860486
126.710277
127.4102015
126.3122219
128.1658488
150.9234362
178.9731089
188.3837577
184.4976107
215.0183137
234.7567352
270.6403478
241.9661134
255.2562225
325.775185
370.4963537
397.7094829
433.6015427
459.7754405
512.3072158
-84.67665587
608.0425801
719.1554752
672.4550391
596.6587835
471.8291122
367.515889
272.7267802
241.4495458
)


100
(
127.6857546
107.4574391
67.330968
50.33141567
48.93925559
55.91970491
65.08076231
72.19221297
72.51580273
67.74755081
59.35401115
48.86135428
37.52692895
26.74444362
17.71776639
10.47155041
5.961088932
3.98980359
3.008173459
3.449223026
6.171715964
10.11353827
13.67892891
18.22144973
24.41230028
31.09449447
35.89693123
38.64151447
39.83240807
39.24481716
37.04617674
33.40427114
28.47648716
21.44301355
14.69758439
11.97776624
13.62306552
16.00902349
17.05893362
19.8779857
27.28655325
37.1535041
45.5030597
49.33650557
49.46598335
45.1447175
37.77989251
32.05415662
30.39439431
29.52204337
27.25302363
30.55413917
44.4592594
61.95054561
73.61388675
75.72224741
69.42983017
54.86290263
43.10966859
44.35284518
49.98608252
52.91937331
67.10471499
91.11511971
106.7605488
108.7947303
108.1951417
107.1419075
108.0286752
118.6586371
141.4750653
160.1045488
150.7463647
138.676774
161.9504457
203.0371299
235.0542952
240.3888716
238.8532644
240.9686524
292.7864252
334.0213971
311.8321216
329.6602616
364.2415522
428.2661496
456.8094497
498.4244554
559.775089
636.9166168
761.0341106
14.49268824
782.8755082
995.7737091
942.7442986
785.6399183
626.0078234
504.5214098
390.5912071
438.5923567
)


100
(
127.6906993
107.3336596
66.96267516
52.24455968
53.17857815
63.64774813
74.32900597
81.47925062
81.10715391
73.40969622
61.52375609
48.371024
35.36069558
23.73614963
14.69928393
8.221087038
4.197800732
3.481790913
5.050464607
7.076044551
10.57470273
16.67515495
24.38417288
30.45738115
36.38385968
42.38633826
47.26058408
49.29029578
47.52496934
42.66895577
35.21111501
27.94140363
23.07182991
20.03762262
16.11707077
12.89736616
15.12685485
23.62845181
34.36695439
42.16226034
48.28133356
54.24972515
57.95428508
57.60678895
53.57344174
47.04410551
37.28521916
28.17314994
28.51592988
40.42829169
56.22299447
66.76773405
76.74886334
85.76541667
86.88594036
80.34743881
71.41787449
58.49266332
45.46586692
51.6668798
78.67961329
105.3007503
119.5105155
130.0937848
129.076351
118.5210781
116.5627289
133.403372
160.4192753
182.0631548
192.4349472
198.527288
200.9871717
207.7556853
235.5268674
278.8645329
291.7264791
271.4567118
314.8104825
381.2956086
405.109228
404.6105876
371.2282353
456.3574871
531.0615072
552.2829263
602.0110146
672.9006987
735.4006303
817.1667506
951.0987844
1790.78706
1129.031384
1326.059621
1273.856237
1033.858401
825.8918691
668.0983467
525.4655124
334.6289684
)


100
(
127.700974
106.6962825
66.69396132
54.05880243
58.15598414
70.98564028
84.21078692
90.64167043
88.54555252
78.11753389
63.07258043
46.76158462
32.59569161
20.58180441
11.91235539
6.882642877
4.237069971
4.21018877
7.809101239
13.61959743
19.23724784
26.23720348
35.25811863
44.78182624
51.51186482
55.18650487
56.00372247
53.75204806
49.0199468
42.39363111
33.93934152
23.8143205
16.62564223
16.25347524
21.2417411
25.85345206
29.88526516
38.05056907
50.73398273
63.39833062
71.19570025
71.74372012
66.38568808
55.50953086
44.58562692
40.22477879
42.99982436
46.12922703
49.94562885
63.15496729
84.24988494
101.9704373
108.0864727
102.4963081
86.67341092
67.66363575
62.40756189
73.94696115
84.87168483
96.00639611
121.1846506
145.0480076
153.338553
155.9156856
162.0231029
168.5222232
177.8019215
195.2157635
219.1039275
234.9199233
225.7668059
218.77865
248.9424956
302.8631277
343.7153022
360.3552308
366.4577041
379.5362305
440.3460682
502.9992666
467.8841341
491.0968609
558.6815979
650.2299171
717.0996917
773.039773
848.4287306
941.6224371
1003.062049
1090.723081
1234.659272
1502.330149
1476.245915
1675.686025
1598.65067
1337.982924
1083.702388
876.7281206
687.8272332
637.252391
)


100
(
127.7107168
106.7412503
66.80926636
55.74289962
63.75248096
78.89082108
93.86297699
99.7841543
94.96216292
81.17532918
63.27135566
45.23204861
29.32590345
17.71734604
9.547795453
5.863119581
5.983740897
7.992649275
12.683984
21.03782406
31.62516568
40.80480919
49.79677652
58.30974821
64.62172939
66.52341535
63.17583985
55.48558386
45.0477384
35.7892605
29.40642981
24.90218841
19.80091206
18.57953803
26.29952865
40.82042798
55.60306404
65.54193795
74.04782685
79.57328872
79.49698345
74.49902334
66.54147542
57.04894973
45.15397566
39.36765705
49.33413467
71.5532727
94.15426613
108.5235318
119.4378953
120.3946747
110.2714576
97.80443051
87.78749372
76.42287024
73.29640442
97.41980824
136.1381758
165.6482599
179.2656034
182.7318552
176.6848559
171.4525135
181.6693233
210.0741244
244.0810918
265.4353625
272.0318698
284.6133082
300.7506535
318.5645568
353.4960746
402.798639
424.3384367
409.8712532
445.1134364
546.8979148
615.8989083
610.5690901
579.3177463
620.8481661
771.2513931
852.8161122
928.1001229
1007.321182
1090.079206
1184.969562
1258.558782
1406.30519
1528.87123
1727.256979
1874.330054
2072.12478
1978.231173
1688.892384
1400.6504
1144.988905
889.7966164
742.2455628
)


100
(
127.7144019
106.6824902
66.60045357
57.56532943
68.80282051
87.64121563
103.1236492
108.3880395
100.7224226
83.57241967
62.17566106
42.37815405
26.58727009
15.18849545
8.374244467
5.511216614
7.756658406
13.99158175
21.62047197
31.77214863
43.75714205
57.38812054
67.66940362
73.72882843
75.19945857
71.91835729
64.78356245
54.77948459
42.54655973
30.05279579
23.16944976
24.57345421
31.00120302
36.92459331
44.77059693
59.0658849
76.81858745
91.51038913
97.64399077
94.74583874
82.82221075
65.99334294
54.29261222
53.8960997
61.44021894
68.62550843
80.30037702
103.7115571
129.655144
145.4209093
144.8557456
130.152044
104.3398923
84.11264704
88.05403022
112.1857519
132.968677
156.4075334
186.9705867
205.5873507
205.1200395
204.3285597
216.9022747
239.4387823
262.6326811
286.0670105
307.6661257
319.3635333
314.5662419
320.2103978
365.2840483
430.6599682
477.7112167
495.3990146
520.6074459
545.0086896
599.2066294
701.302507
718.4417979
691.4430922
783.1491254
871.7759802
1002.340746
1099.328797
1211.759024
1284.257389
1380.925053
1492.700024
1590.620627
1785.130994
1920.291681
2158.756784
2420.645223
2576.263464
2453.798038
2086.907016
1760.151055
1469.976278
1155.355371
1504.608021
)


100
(
127.7412736
106.3259158
66.11096541
59.54965627
73.67086179
96.77168715
113.0012887
116.1834991
105.3871103
85.14885221
61.03305921
39.12816548
22.91587278
12.93596629
8.243043625
7.432920279
10.73460739
19.63310636
32.92321909
45.88664609
59.20653439
72.42556733
83.27807542
87.98753281
84.87375911
75.03020498
61.41862126
48.74902644
38.96185984
31.83837431
26.31729119
28.14949284
40.88442598
60.36182283
77.91606026
90.96841585
101.5378279
106.7591471
104.8690506
97.15493307
85.28975977
69.56856057
55.32127327
56.02054204
78.29985048
111.8009236
138.2215697
155.3515936
162.7077654
155.1809367
139.2472998
124.5258984
114.4868185
104.8547201
113.3608561
152.7560874
199.2340804
228.5705313
241.235291
243.7825619
238.0090939
237.0149807
257.0425556
297.7053128
338.5158112
357.7112403
355.9394664
367.8514791
404.2013827
442.0067776
486.034124
535.4665666
567.7560006
564.3906112
607.3401147
713.0867401
804.4540441
836.3342158
835.397459
858.7065136
1020.44264
1153.148252
1254.97458
1374.804095
1498.008407
1591.889774
1726.956763
1878.277399
2030.153831
2266.34081
2448.239974
2750.095617
3056.822557
3198.443902
3083.940285
2576.35956
2175.843692
1845.110759
1465.21296
341.9348457
)


100
(
127.7627896
105.6013804
65.57127202
61.32368745
78.77498443
104.3962878
122.9571083
124.1920171
109.1776225
85.42736747
59.72278436
36.49181394
19.87127758
10.32483754
7.829442716
10.95788847
17.26147769
27.76762581
43.71682508
62.85306527
78.85431712
90.3387684
96.40774619
96.07075329
88.96528537
76.05228909
59.10887286
42.45314587
33.04583685
33.39281582
39.94834421
48.17292285
61.27733425
82.224915
105.9279179
124.0319683
129.2005023
122.4239952
105.2762029
86.13826817
74.86536111
74.91846423
80.60883078
89.41304995
111.3809202
147.2435102
181.2470874
197.4393741
190.5873524
164.8100789
129.9496643
111.4449151
126.1092352
160.9021156
189.5077532
224.7237469
259.7317001
273.6367429
268.9583451
271.3868699
293.3477438
328.2307806
362.3442984
392.8544451
416.4539874
427.2918173
420.5904552
430.1356394
489.6488583
568.387193
618.478293
626.9203272
661.8339036
713.6706082
786.8014462
886.3186057
947.9104685
919.4537869
986.4236288
1164.011243
1320.061713
1449.557573
1586.27306
1715.642434
1827.970479
1969.566564
2150.394803
2330.34439
2542.308676
2825.438563
3078.564703
3464.221284
3790.852254
3917.327352
3873.164596
3199.302211
2691.263473
2297.000233
1875.641834
2328.718402
)


100
(
127.7632572
104.9642079
65.43731994
62.8650811
84.21690299
111.8379492
131.8371544
131.9646705
113.2614112
84.57564141
57.13281678
34.46702927
18.08367462
9.27173981
7.526978799
13.47457074
25.78976826
40.42374912
58.10360196
78.54119819
97.86404996
109.6718929
110.9130078
102.4684269
87.71354862
71.37843539
56.25206129
43.7638931
35.25021347
37.14405356
52.10468126
77.00910866
98.76159216
117.2507
132.7409527
141.3553583
140.2136434
128.091941
108.9163892
85.0994805
68.38851021
73.16831186
101.3014333
139.6617361
169.1952669
192.410273
203.2349728
198.1596868
185.2742218
168.4077495
151.2521079
138.578154
158.8799726
216.9726405
278.3314929
313.5271368
330.3991621
331.4128586
321.4001222
321.8292954
352.8932762
408.208338
459.0099348
480.5747179
477.2223341
491.4821564
536.0701725
587.4523974
648.4533195
712.3333489
750.4901317
739.6730276
775.9689693
898.2232634
1022.448065
1060.762633
1079.971613
1096.860034
1219.488003
1450.848235
1596.842328
1733.697483
1919.462443
2057.961618
2209.990892
2420.031182
2666.709869
2892.341821
3162.201808
3513.607178
3843.281857
4227.149971
4590.593167
4721.966159
4762.202742
3954.32897
3323.405182
2872.19585
2314.807581
2335.368871
)


100
(
127.7601941
104.6129626
65.17148828
64.55240069
88.94977038
119.4296859
139.3359738
138.3845975
116.9157626
84.90979963
53.77829327
31.06613703
16.80586675
9.967031363
9.982222981
17.08389618
32.67309377
54.78066473
77.28021993
97.94672734
114.6711402
123.8284209
121.8959853
108.5501329
87.25784996
64.76315142
49.47762408
45.27025928
50.00871325
58.30050185
71.99391785
100.6610747
133.3901448
158.3755997
165.8925416
158.3632894
138.6606436
116.3368486
99.48870034
91.57201094
88.99367977
95.24601298
123.9982523
171.9587569
217.9451456
238.8988935
226.6248978
191.4919566
157.8772495
151.255239
176.4700899
212.7214228
245.8411543
295.658956
345.7733721
369.6625285
372.9947989
382.1115733
406.6056001
439.5496943
479.7114371
523.7969272
559.8901132
572.8776796
558.680245
569.1701473
643.6112739
745.2206665
817.7908545
844.1998326
877.559529
928.8056341
1013.768278
1147.818301
1250.590157
1223.599079
1226.749503
1377.645921
1588.246952
1764.311048
1918.274373
2104.247874
2302.608942
2459.276711
2683.968161
2955.672954
3237.013593
3542.003535