/*--------------------------------*- C++ -*----------------------------------*\
| =========                 |                                                 |
| \\      /  F ield         | OpenFOAM: The Open Source CFD Toolbox           |
|  \\    /   O peration     | Version:  2.3.1                                 |
|   \\  /    A nd           | Web:      www.OpenFOAM.org                      |
|    \\/     M anipulation  |                                                 |
\*---------------------------------------------------------------------------*/
FoamFile
{
    version     2.0;
    format      ascii;
    class       dictionary;
    location    "constant";
    object      la_r4;
}
// * * * * * * * * * * * * * * * * * * * * * * * * * * * * * * * * * * * * * //

la_r4_table
100
(

100
(
612.7690265
979.4487188
541.479908
510.1069199
493.6775656
450.3008645
406.4240061
385.3736651
351.7554538
325.8795635
310.6940992
273.4182902
255.8873192
239.5650089
219.3394197
207.7691886
197.3748037
179.6955537
170.3962633
162.4603042
149.1761107
138.9901772
131.6352477
124.1390124
112.4037836
105.2172847
99.33595085
93.11747809
85.71795949
80.71280599
76.50401473
70.69506789
64.28081456
59.90421252
56.31449722
52.84608228
48.77778779
45.44944199
42.66738086
39.74929918
36.22255837
33.22964525
30.8515202
28.50955679
25.77176956
23.47452008
21.69917939
20.15427179
18.19406041
16.52259932
15.09521124
13.77660366
12.2236167
10.88784998
9.780061187
8.742760349
7.672263024
6.785275431
6.083740973
5.397681597
4.659547878
4.081313779
3.635893586
3.16416276
2.678290951
2.311287314
2.019848921
1.656917009
1.365510682
1.147505063
0.934220759
0.7144053679
0.5693050797
0.4435859884
0.2972843343
0.2108585713
0.1395025226
0.0630707598
0.0188420634
-0.01713261808
-0.04468288652
-0.06754767314
-0.07645900455
-0.09257535003
-0.09101011851
-0.1036616402
-0.103874556
-0.1114118774
-0.1160278695
-0.1128885697
-0.1101219736
-0.1063370663
-0.09974036966
-0.08259957075
-0.05853962576
-0.02131119519
0.02798314748
0.07650391771
0.02375173642
2.059171433e-10
)


100
(
577.2272735
903.0702099
524.8723197
495.574443
481.7819355
434.6951552
400.921053
370.3971763
344.1231859
313.5902597
297.2031734
265.2315114
246.5557935
231.1135553
212.1374686
199.4322079
189.043396
175.3430142
163.8939303
155.9200552
145.5283832
135.6728441
127.5674521
120.0191687
110.9244479
103.2490347
97.08774393
91.1434536
85.16669313
79.70760306
74.90267717
69.50797913
64.27762935
59.76003989
55.91417825
52.47241543
49.07790594
46.03527415
43.07059046
40.1434278
37.17134894
34.57119969
32.10666256
29.62899162
27.19599411
25.18329042
23.3573067
21.72270378
20.07956919
18.74708131
17.5150381
16.22355511
14.85298059
13.70485535
12.66761467
11.60724916
10.60757527
9.864321694
9.29169279
8.780948592
8.197525314
7.682206711
7.14999156
6.533437373
5.969964351
5.627271716
5.293248972
4.748972778
4.394306141
4.144778976
3.807348716
3.408557046
3.284449495
3.169102947
2.788745858
2.533777792
2.514254425
2.025222019
1.669655451
1.657111389
1.12494445
0.980470621
0.7538438766
0.2025358227
0.241103482
-0.3458888808
-0.7046963554
-0.9727218174
-1.738063
-2.064985864
-2.930104115
-3.408560977
-3.917624072
-3.454796071
-1.80483958
7.946531224
40.05012063
23.69002902
4.32000403
-5.48811515
)


100
(
531.6491417
793.0919389
524.3806883
497.216867
471.4689255
425.8375031
400.0532368
360.0135576
340.1823497
309.8878102
290.2848175
266.4263248
242.5299557
227.7694063
211.8778944
196.20839
185.5752785
175.6649581
164.028141
154.1265513
146.6580802
138.0149954
129.6689874
122.0273976
115.3040333
107.8920333
101.3344981
95.41085205
90.42867933
85.22074459
80.60441262
75.81393177
71.39940557
67.05550656
63.24558674
59.6664449
56.51918173
53.72618684
51.2931661
48.89830418
46.32738096
43.94546592
41.85759378
40.008722
37.83798102
35.72322339
33.9386799
32.44160703
30.94514473
29.42391275
28.20748782
27.23219448
26.42898985
25.17024414
23.95707787
22.94772385
22.39340903
21.38195303
20.58079448
20.13009575
20.16073887
19.67285582
19.30729789
18.78755511
17.99133225
17.22875673
16.98875415
16.80773986
16.039607
15.6944938
15.61708427
15.54473193
15.10662235
15.17296777
15.81617036
16.13566727
15.89320949
16.54535503
17.24266045
16.85055412
17.20262176
17.25653006
18.32563181
18.17805235
19.08030889
19.85504454
20.10488889
21.09354536
22.48759616
25.12734244
28.23392775
32.98596013
39.96241045
53.56475015
73.30946849
124.3093251
157.9761252
56.51826624
2.726059273
-5.647755168
)


100
(
506.680941
754.4087918
529.1611933
499.1345972
459.0459189
423.1319923
388.5427596
358.8421209
331.5129468
311.0616913
284.6834966
266.3364345
244.8664011
226.2659104
213.3056675
199.3544753
186.3498433
177.0572349
169.0079483
159.4384052
150.8267514
144.3134567
137.6375477
130.7151791
123.9158684
118.2960301
112.558381
107.1406091
101.9068963
97.58208537
93.63842666
89.91218125
85.90743339
81.99552033
78.69099577
75.60570766
72.77441911
69.95193363
67.89199672
66.09802468
64.63428168
62.97762411
60.99407832
59.38857513
57.96659647
57.08160192
55.27975011
53.84461416
52.6390891
52.4041541
51.06078856
49.9462061
49.12375042
49.06042982
47.98648858
46.55369399
45.75274998
46.2537011
45.68675334
44.54227192
44.49529934
45.15583658
44.78950234
44.45493549
44.20965449
43.86535865
43.35877453
43.51373575
44.36815457
45.64392457
46.70405006
48.13879871
50.12077349
52.85406264
55.91007494
58.30520813
60.01584405
64.32002948
68.66046349
69.74240032
73.47452166
78.25757756
81.1265514
85.42422364
90.13837761
96.36295835
103.8367388
113.5447295
124.6324253
138.0790955
154.5098175
172.1561766
196.7499647
232.0063765
285.2544625
393.6969387
283.9135154
54.07063238
4.456397403
2.012032844
)


100
(
514.4138901
723.4264777
535.6189571
490.1246854
452.7054486
422.7748214
381.7209055
360.0276533
327.8398064
309.1343168
287.2622667
266.1549608
250.6397111
231.6940735
216.7234121
206.0189735
194.4469162
183.7905707
176.1990528
170.2285999
162.6303709
155.6156135
150.1730793
145.51622
140.2845483
134.9261446
130.2850851
126.2707713
122.2070493
118.154604
114.4584722
111.8006697
109.1045322
106.6449526
103.1980402
100.6827362
98.43656321
97.19088276
94.78301489
93.53352935
92.58537344
92.10350686
91.55043139
89.96828627
88.769118
88.81926014
89.95231245
88.51516005
87.43544292
87.67638767
89.00815422
88.24752276
87.27171868
87.64552465
88.68720984
88.0849883
87.12187208
88.70425677
90.91071563
92.03439288
92.37337634
93.69155534
95.63430682
97.28230748
98.29433649
99.58522989
101.5714787
104.8282665
107.6525775
110.767617
115.0069542
121.021364
128.3580544
134.7810903
140.83964
150.3321296
161.0134651
168.1130919
175.9920106
186.6231767
199.434495
213.073619
227.2110374
244.1481122
263.2258561
281.6379238
303.69051
331.8268089
366.6614187
406.9547163
440.832481
485.6982815
542.3784629
627.0094516
748.2297119
939.8360156
393.218525
-9.200221227
48.83929506
50.04933134
)


100
(
499.1638876
663.2356912
524.8417856
487.7443409
452.241859
414.1960579
381.3429812
354.8088524
332.1658721
307.6168614
293.2287013
271.8548818
255.4684494
242.0595579
226.4389659
214.5857488
206.3535431
197.3929101
189.1051832
183.2635208
179.2095036
173.9329625
168.7820014
164.5438145
161.9159467
158.7158166
155.4167267
152.2612729
149.6715907
146.9484771
144.5355561
141.6048537
139.9967884
138.7237198
137.8456483
134.9984213
133.1840668
132.2585864
133.6198281
132.1288139
131.5733859
131.6158558
133.6273386
134.0699206
132.8591169
132.7269249
136.4144263
140.1129603
139.2760487
139.6987726
142.840505
146.3330762
147.2885336
148.3914826
151.0770147
154.2133306
156.7492754
160.4753355
164.2630836
168.7539686
174.4630074
180.0956661
184.2192385
188.5917446
194.729315
202.3175086
208.974952
214.8700146
222.2563707
231.4486443
242.2157565
252.4955767
263.7948828
277.327518
294.9881528
310.9693991
329.5203444
351.1181973
376.4638259
402.6697672
427.8469754
456.7799231
495.491275
533.4722515
575.4797782
620.5456043
667.9284576
726.6622349
807.1863499
880.7519933
943.5135426
1048.744991
1164.664413
1335.149607
1592.614797
1633.549861
383.3958303
-138.7291397
130.8344543
157.4739773
)


100
(
471.2007488
625.6058973
515.9488442
485.3261563
453.4238534
409.7456957
385.2061943
352.8823062
336.1003453
312.4564212
295.8557094
282.547317
264.5871408
252.1830935
241.0747087
228.8748722
219.8970331
214.3044096
208.1254908
202.3896811
198.2486273
196.1795718
193.4289412
190.5154676
187.5922836
186.9186975
186.2271726
184.4662738
182.6580279
181.3813241
181.1302934
180.341799
178.6569213
178.1376313
179.2725478
180.0074636
178.0318167
177.325438
180.0235676
183.5544472
183.4998045
184.0354735
186.8624403
191.1851182
193.1156155
193.1915445
197.9969197
204.9877865
211.7942855
214.0866009
219.6962123
226.5316792
233.8340688
240.0936879
244.9560534
250.3671895
256.7995546
264.9453096
273.4633533
281.3700799
290.4085329
301.8332621
315.6587906
331.1195166
343.7140595
357.2471916
372.7678246
389.5805841
409.0319192
426.7521626
444.3340638
464.8041575
490.4665783
516.4141823
542.9949522
574.7052165
610.3848271
650.7708844
690.4509921
732.8956421
786.8068263
846.8386758
915.0070491
987.7918043
1064.965142
1149.908287
1247.166101
1355.581504
1484.847403
1616.035434
1748.727781
1917.301838
2126.282095
2405.476646
2782.446698
2391.289008
577.7450655
-72.16086041
281.1522654
265.6457393
)


100
(
480.0892698
592.7343896
506.2537922
484.0242746
445.3220951
411.1391237
383.3627215
357.6200821
336.9030668
322.3388606
301.9257421
291.0666267
278.9752153
264.8091835
256.076791
247.7220928
238.9254343
232.403774
229.5276014
226.6216641
223.5909953
221.1700312
221.2810326
221.3790627
221.1430158
219.8202946
220.7794011
222.1805156
221.9113498
221.7457866
222.5440322
226.4293724
226.8198183
226.50478
227.6930617
232.432327
234.8409036
233.9756599
236.0022367
242.8114523
249.6737479
251.8782165
255.1464166
261.9856607
269.5268909
274.6910096
281.0189899
291.0046536
302.762942
314.2499154
324.7408518
333.8775092
343.8475308
354.8609983
368.7479725
384.1004097
395.6340229
407.6208481
422.2119104
439.2897257
458.4835041
476.2414663
497.2148586
521.3241625
546.8107546
574.9570558
604.2113056
631.0275162
659.3118168
696.0033485
738.8300257
779.2469049
821.218398
865.3455804
912.0690263
964.9337917
1015.65909
1075.360802
1150.207809
1232.240962
1320.375568
1415.92782
1522.063814
1640.974869
1772.802191
1921.791759
2079.783142
2247.052546
2427.831114
2637.298296
2866.202223
3131.91931
3458.860425
3885.772883
4397.439058
3515.979405
1206.821209
636.4639581
775.4704268
226.7780806
)


100
(
526.3693095
581.4667546
500.8643044
477.1959805
441.5312057
415.3697081
382.3272965
365.1888367
340.5594698
328.2077885
314.2533475
299.4581405
292.7687719
282.8872108
272.5047286
267.268105
261.9592285
255.9879155
253.04737
252.9613765
253.1892099
253.1661323
252.5845683
255.0191662
258.0756181
260.4377408
261.8255601
264.3634096
267.8091408
269.0219232
270.8378614
275.7334227
282.7530314
285.3365924
286.850152
292.3286426
299.8752242
304.7515317
306.2628515
314.5704241
325.5443696
336.7699342
343.2674452
353.200067
364.9296658
377.6385502
390.5279441
402.8978687
416.8957187
432.7582412
449.9231042
469.8177261
488.8022276
505.6547427
524.211195
547.2361635
572.8534069
600.9758947
625.9325555
651.4363424
679.3663314
708.9030707
743.0456467
780.0556708
816.9717239
856.0731205
901.446603
953.6922447
1007.936711
1063.682536
1126.83313
1192.077621
1264.727043
1335.745558
1401.551055
1483.720694
1584.062824
1689.472564
1800.063816
1919.126602
2049.326827
2193.146308
2352.387721
2530.317279
2722.125876
2924.584214
3147.17107
3389.47014
3655.438643
3946.087214
4272.789387
4662.201357
5154.949376
5801.533309
6400.106891
4829.14185
1900.891526
1532.24671
1724.058727
-169.7551021
)


100
(
578.2015986
571.551427
492.4944889
469.1707839
441.2643524
413.1663504
385.7892587
366.7411208
350.2769821
333.762901
326.2302388
313.9020937
304.8130531
301.4077964
294.6989141
287.9430293
286.043869
284.791153
283.0799959
281.9234419
284.6360903
288.3026226
291.6101677
293.4699216
297.8852798
303.8453634
309.312465
314.2677218
318.5275357
323.9698873
326.2501334
331.3263565
342.4573404
353.065142
358.489907
363.4805021
374.5766665
386.3834057
395.3129831
403.981369
418.3557277
435.4814857
453.1594172
468.9117132
483.5352664
499.9318572
517.8402492
539.1111913
562.7277516
584.2621599
607.7398949
634.161027
663.5095214
695.7251366
728.5510968
759.4682292
795.4037657
835.1930517
876.6898618
921.6740773
966.9967781
1008.965407
1053.19871
1106.610416
1169.261021
1233.687461
1297.995279
1370.921411
1450.320089
1537.165433
1632.59998
1725.432632
1823.107619
1937.499111
2065.35056
2195.37515
2332.765194
2479.255578
2636.284224
2806.947126
2993.560482
3199.198091
3417.119302
3647.602091
3898.417043
4171.950228
4479.226901
4821.077382
5179.143322
5578.918194
6033.118324
6587.529759
7272.937032
8152.235806
8751.998281
6021.351193
2681.555356
2499.056722
2716.681197
-741.9677949
)


100
(
576.2541296
554.9120165
482.0950109
462.5854239
441.7253585
410.1200238
392.6042569
368.9796792
359.1968707
343.5789657
334.6306838
330.5569123
321.4304137
317.364327
317.5517449
314.5450843
311.3160154
313.4136675
315.8123505
317.8313374
319.2871877
324.9312821
332.1718829
338.4889134
344.1924091
350.7772778
359.8017529
369.1414177
377.9651919
384.5997439
391.4994654
398.7807898
409.3632037
425.1248522
441.0503217
451.0334979
464.2172582
480.5712028
498.4194588
515.4483571
533.0553497
552.4783703
574.4185525
598.1152483
625.4714467
650.5293333
674.8109706
701.8722903
733.4890502
768.9193298
807.8927739
843.0426765
881.2561315
924.276838
970.5018983
1020.612027
1076.433683
1129.296133
1184.621055
1243.480292
1309.59103
1383.646172
1456.057827
1528.183402
1611.89378
1704.698739
1801.090737
1905.033201
2008.687093
2117.387907
2251.911797
2405.57071
2552.831709
2711.962892
2883.820203
3066.173756
3258.698335
3463.13063
3682.467006
3918.716476
4169.462414
4436.605578
4721.259316
5027.67153
5361.534284
5730.204976
6119.707209
6561.813143
7045.279709
7584.759225
8216.117269
8956.57583
9903.669845
10998.24893
11243.0436
7121.697029
3556.933242
3738.503688
3839.520511
-1306.068604
)


100
(
530.3835547
542.5098153
472.7390679
459.0863894
435.1343971
410.1827787
393.7721612
375.9565783
363.5547631
356.6679671
345.2472676
342.6266674
341.3573779
336.7731212
337.0966395
341.1495755
342.3450683
342.9352245
348.2688543
355.0138711
360.9226083
365.4753809
373.6546896
384.4151762
394.9416042
405.2765643
414.6489795
427.190755
441.0583894
454.0807092
468.2508961
476.871935
485.5716283
508.5380483
530.1420401
552.0741474
571.3648929
591.9327137
613.9082478
637.2754005
663.7757754
690.1212279
717.013674
747.4347962
781.4607252
819.9928497
861.6711385
900.296672
939.1394577
984.664705
1034.229551
1087.894836
1146.004314
1203.337664
1262.305261
1325.509954
1393.134985
1473.61355
1561.331707
1642.743917
1728.796354
1826.687183
1932.929889
2045.919953
2161.559732
2276.08281
2394.164086
2533.459663
2692.599075
2843.066915
3016.988413
3211.391721
3415.744797
3631.665892
3861.676314
4108.719137
4369.389192
4641.095672
4930.298781
5236.484543
5564.60498
5916.76579
6292.425047
6699.979554
7123.839417
7585.710757
8080.448447
8651.517293
9275.052389
10004.51629
10831.40541
11809.9067
13023.82687
14352.72985
13644.92608
8049.493681
4564.260828
5406.60698
5123.023358
-2053.432466
)


100
(
532.5515527
530.450872
466.4768586
454.1829669
428.9930316
412.9471651
392.9516949
384.7020028
369.3534007
365.502228
360.6557195
354.8316791
357.5206713
359.3102507
359.244259
363.9667826
372.3561685
377.8853583
382.2955738
390.7917263
401.9673359
411.2770568
420.1514791
431.1044077
445.7066137
461.2156754
476.6859049
490.6603471
506.6687869
525.7110324
545.7073457
565.5303005
582.8428025
602.6811044
629.1624902
657.6088148
686.0002594
716.2947449
742.7035232
771.8087724
804.3188325
841.1359029
882.1010023
921.5221465
962.5179529
1009.270163
1061.4259
1117.490457
1177.835334
1237.86313
1299.517277
1364.808495
1433.544253
1510.258387
1599.939159
1684.753256
1771.842681
1870.502188
1981.20255
2103.224043
2232.669304
2357.320254
2484.94932
2618.551499
2770.267957
2940.507095
3099.590638
3272.193204
3469.585534
3683.970519
3915.894644
4158.002608
4412.003924
4683.309092
4972.256284
5282.426357
5623.671518
5984.496577
6360.237295
6756.251628
7177.240967
7623.524088
8095.94697
8601.916054
9140.56488
9726.951396
10342.29785
11035.62367
11854.675
12777.22311
13839.99933
15039.33084
16551.01115
18018.97037
15805.92376
8672.127394
6088.069453
7369.189904
6561.78574
-2385.294498
)


100
(
567.79456
524.8081302
460.4226892
443.3099836
426.0670171
411.5271669
394.5747123
386.7209926
379.8771265
372.442699
373.9889119
371.9631247
371.7686089
378.6190976
384.4886129
388.7975683
397.6417326
410.3201076
420.1883677
428.7467964
440.3242008
455.5042446
469.4350608
483.3036646
497.4133115
516.3861956
537.238484
557.8484902
579.3024126
600.0099005
624.5295343
651.2063424
678.9225207
707.9254073
736.7362681
767.8056755
802.7643595
840.4184082
881.5594594
922.4633874
961.4279333
1004.645125
1054.192743
1107.98115
1166.920221
1224.527273
1286.081629
1354.903814
1428.283037
1505.789505
1591.471168
1675.690121
1760.688178
1852.229152
1957.599441
2077.518654
2208.829688
2332.112622
2468.690079
2613.786935
2761.693735
2923.888328
3095.511825
3264.029909
3445.25068
3654.05463
3881.470838
4115.306458
4359.994515
4619.962452
4897.971685
5196.363224
5510.988816
5844.654049
6205.188874
6604.283674
7032.571024
7474.848747
7931.680596
8416.198176
8942.136957
9493.734246
10081.56069
10705.21367
11365.22344
12061.67621
12832.50867
13704.43598
14700.09293
15792.15176
17087.25223
18466.08449
20380.19096
21812.35048
17593.21693
9832.863624
7912.52137
9429.934653
8225.561636
-4869.792277
)


100
(
595.1481501
517.1222685
450.8209717
436.370952
424.6294054
406.6454256
399.124395
387.7286186
388.0883671
382.6553047
382.8423926
388.5562831
389.8230862
395.0495164
406.3817748
416.4366514
424.9861223
437.5624401
454.6019859
468.9867063
482.1792713
496.9209218
516.4813771
535.8837285
555.6112247
574.3484571
597.2407632
623.8099419
651.7054972
680.5394157
708.9954904
738.8190595
773.0304679
809.1411355
847.2911594
888.5276545
928.0441558
972.0331716
1020.645845
1074.217582
1130.955315
1186.270444
1242.272679
1306.697724
1376.559718
1452.030644
1534.251625
1618.096189
1704.394048
1796.657996
1894.308575
2005.965838
2128.601549
2243.320163
2365.769601
2508.634098
2663.823463
2828.313356
3001.58266
3167.375813
3337.66175
3520.991847
3737.866279
3974.493339
4199.150755
4448.167128
4721.530504
5010.123323
5312.163896
5630.522864
5970.174898
6331.875677
6715.588782
7123.059357
7559.787271
8028.460503
8530.940668
9057.523542
9612.97989
10212.44041
10854.89176
11507.89067
12199.38968
12940.39921
13728.33501
14590.38253
15525.55031
16553.02457
17690.99408
18979.13026
20497.24417
21620.4288
24368.51327
25791.94245
19515.63687
11407.6231
9931.440318
11613.91696
10122.77237
-4957.805022
)


100
(
577.5096248
507.378037
443.3362165
431.1325147
419.4132681
403.7041528
399.0165153
391.7863785
390.4108126
394.2054312
392.7348772
398.9502749
408.3663109
414.3859976
424.4325363
440.2070902
454.5578421
467.478311
483.6970831
505.0458912
524.5059093
542.9552614
561.2988008
585.6946415
611.362274
636.3737041
662.8343624
690.5264676
723.358647
758.7590654
795.3143693
834.844793
871.7450056
912.6700243
957.977045
1007.855595
1061.55126
1115.181498
1169.618061
1230.903946
1298.474887
1370.223829
1447.022625
1523.905432
1605.807232
1694.579782
1788.891856
1890.826184
2008.414622
2121.44671
2238.267382
2365.803498
2508.370661
2662.81218
2826.76812
2990.104607
3164.139872
3347.148247
3537.085916
3754.975399
3972.814166
4190.157907
4437.136633
4710.392921
5003.488662
5316.9844
5639.303717
5974.777785
6330.782504
6709.035562
7105.996447
7530.832637
7995.435328
8484.793827
9006.565236
9562.993745
10154.32384
10768.80852
11425.67605
12123.57749
12859.81265
13620.87934
14437.57718
15319.20924
16244.93507
17281.14779
18390.03831
19586.23834
20912.56201
22345.51599
24143.25566
25808.53658
28420.75161
29640.30172
22130.00342
13213.2253
12044.91279
13943.14899
12152.85401
-7861.377161
)


100
(
543.0028135
498.1173112
436.5735809
426.3635123
411.5899903
403.9740926
395.598348
396.8954668
393.1250776
399.5908519
405.4486781
409.0037716
421.1784456
434.4829989
444.9610761
459.4608178
479.6129877
498.5187226
516.2378868
536.093279
562.0597002
587.4085804
611.7390815
635.548717
664.0158766
696.1832892
729.0385502
764.0402986
798.8297903
837.3008422
880.7373237
926.9253295
975.4664007
1024.679744
1073.942024
1129.745294
1191.728598
1258.257321
1330.113355
1400.935126
1476.121132
1560.520712
1650.862622
1746.747812
1851.877374
1958.140109
2068.119173
2187.451617
2317.813215
2464.049009
2621.461837
2770.407099
2931.493525
3109.850191
3296.629621
3491.166493
3702.877002
3911.891383
4130.429666
4370.283032
4638.829017
4925.923105
5208.948154
5522.223855
5864.413691
6221.600676
6597.368612
6991.735579
7407.524088
7847.121109
8321.586749
8840.873123
9377.230578
9944.043331
10545.90734
11190.32914
11871.76425
12582.35367
13344.50029
14161.72935
14992.96804
15879.69152
16802.54044
17817.04297
18935.1426
20182.35442
21454.09014
22797.76679
24294.4601
25976.6254
27990.64386
31190.08042
32902.64517
33323.43467
23294.95204
15253.80421
14222.1978
16379.78868
14211.50395
-13693.29964
)


100
(
542.0886644
490.9056485
430.7425546
418.2826836
405.7313248
401.5016323
393.7095862
395.9214681
399.2095424
402.4478847
413.751078
422.88965
431.747447
448.9121359
466.3243005
481.2693361
499.8446058
524.5419169
548.4908593
571.3251359
595.3230983
626.02786
658.1606093
687.984489
719.9554772
753.4421481
792.4083978
834.0269687
876.3610196
922.0821362
967.3551314
1019.119276
1074.826306
1134.936215
1198.521616
1259.906292
1326.087856
1402.455903
1484.537693
1572.587786
1668.611888
1765.417504
1867.816971
1978.869796
2095.896387
2227.811347
2374.148056
2513.643253
2660.409133
2825.958832
3004.453067
3194.033726
3393.184842
3590.671478
3796.26181
4012.877183
4252.270475
4518.453725
4779.838629
5047.404166
5351.995615
5678.888623
6027.059344
6399.388627
6789.848496
7195.034056
7622.252931
8073.937272
8548.804411
9060.635378
9615.670214
10199.92004
10818.91917
11473.57289
12172.76142
12926.87568
13706.68467
14517.00411
15383.99877
16292.12325
17233.2502
18254.93413
19327.03702
20489.41076
21796.85173
23158.35898
24614.45739
26204.66786
27911.26512
29797.68897
32045.96584
34950.80735
37494.81989
36956.96048
25824.00427
17139.47051
16545.19589
18926.94245
16390.86756
-19296.1647
)


100
(
556.0750042
484.9650873
424.2289829
410.7629262
402.4525476
394.639259
394.6586649
393.2576933
402.5179802
407.8375332
417.4624061
433.6272884
445.9757
459.9756785
481.6617019
503.3693781
522.9748994
545.5982521
574.6112433
605.3939068
634.1040309
662.837165
697.4322228
735.9611297
774.2409231
814.5591857
855.3183087
900.2890091
949.9012088
1002.477112
1059.449154
1114.96366
1174.405198
1241.178723
1314.283503
1389.979147
1470.91696
1552.338263
1643.881742
1745.037925
1854.485951
1970.853755
2099.558838
2225.547387
2359.389469
2504.965674
2668.997003
2845.716095
3032.120597
3213.745113
3413.679212
3627.212328
3844.706095
4077.345605
4324.296311
4571.900183
4833.02727
5127.306766
5446.177302
5780.969058
6121.31049
6489.605249
6883.22101
7301.239363
7741.767371
8202.188934
8685.176417
9197.57393
9754.456133
10355.47608
10980.10571
11636.10202
12329.40131
13072.43726
13875.46474
14718.07355
15598.15989
16536.19181
17518.41442
18526.66852
19598.28472
20736.40029
21968.07993
23329.21657
24781.95842
26295.25944
27964.45527
29767.4609
31728.82462
33807.64213
36333.00364
39239.63481
42024.26793
40312.21947
26579.41938
19236.84278
18986.90024
21534.079
18552.87977
-29016.21579
)


100
(
565.1791496
476.2919759
416.6685516
404.926204
398.3294485
388.7868266
391.980745
392.9843655
400.4476272
413.0489124
421.954962
437.4399633
457.9034416
473.8470862
492.5498332
518.7649396
545.0298917
569.8501939
597.0923395
632.1243005
667.1242106
700.7329968
737.5439952
777.0646255
822.1330402
869.8878201
917.6149564
968.1775601
1019.468691
1078.124203
1141.806086
1208.231685
1278.427797
1348.823251
1426.736187
1513.794694
1606.625306
1705.143981
1811.53289
1923.793109
2045.886877
2176.753637
2317.87343
2475.2763
2638.506495
2800.540345
2977.105205
3174.436085
3385.561258
3607.752284
3839.812495
4070.471063
4307.236566
4557.480217
4840.957595
5149.839401
5453.150088
5773.889847
6128.801983
6506.136289
6905.517571
7325.455063
7771.138679
8241.822983
8731.678415
9243.495439
9784.400814
10372.4216
11003.11396
11665.39565
12362.47219
13095.99868
13877.29668
14725.9008
15627.44661
16566.46266
17553.67547
18610.53732
19691.17237
20801.6442
22020.80529
23303.41211
24715.27331
26241.22665
27818.83119
29536.84978
31414.5677
33412.80048
35542.77364
37919.77684
40682.37272
43724.63992
46640.95952
42494.94026
28337.08416
21302.04202
21469.03126
24106.54992
20833.67192
-42430.43659
)


100
(
559.136735
469.4301708
410.3895079
399.6731499
390.2822713
386.2095173
386.00552
393.5000197
398.4841477
412.1185149
427.6946681
441.1039037
461.701381
485.9017647
506.1193593
528.9608595
559.8109666
591.2584737
621.8091638
652.823858
690.3685081
733.2387712
775.1204667
819.4315513
865.3043212
916.7671883
972.0910302
1029.87428
1091.004785
1151.35208
1217.595522
1292.394828
1372.154201
1455.522882
1543.168296
1635.254249
1738.695174
1851.030492
1971.695077
2103.732809
2243.347493
2388.184638
2545.213984
2714.651074
2901.301131
3099.800922
3299.860291
3510.939901
3742.556822
3985.325478
4236.472617
4507.712826
4781.311206
5059.43252
5362.974007
5699.562136
6061.511451
6440.663598
6834.457611
7251.092324
7691.535062
8159.817155
8653.634077
9169.627128
9708.414534
10279.95543
10901.97137
11567.86197
12272.77469
13003.27424
13763.16588
14570.39498
15447.51823
16379.79674
17360.70332
18409.92858
19527.66734
20683.50903
21862.54282
23105.45299
24444.50295
25902.27373
27486.17085
29127.46368
30855.36955
32783.41622
34809.72451
36995.91121
39285.37395
41887.78944
44846.69838
48041.05729
50798.55369
45021.87359
29284.40362
23411.16165
23908.4314
26636.94688
22957.16258
-64202.87523
)


100
(
552.3934848
463.7048658
405.3430243
393.7731739
384.1312544
383.0558776
380.8738429
388.9348186
399.0294946
409.1165695
428.0949402
446.6382302
464.434112
489.631281
517.521112
542.1084146
569.2416812
604.2141769
641.4411244
675.7609614
714.3487933
757.0730469
805.7004345
856.1549023
907.7813743
961.6706706
1018.391306
1082.347035
1151.194807
1220.61323
1294.045455
1369.993311
1456.496244
1550.422734
1650.080529
1758.207178
1872.347305
1994.462353
2128.760746
2271.418258
2429.330078
2603.404156
2776.612322
2957.917025
3158.82103
3375.210369
3604.529996
3849.238728
4099.287933
4356.515168
4628.614957
4914.428416
5232.269849
5566.0981
5897.264829
6260.767547
6658.432842
7081.331752
7522.668678
7984.603988
8473.512542
8990.577643
9528.071565
10087.79918
10680.44211
11327.31888
12015.33126
12742.27117
13505.71617
14303.41696
15141.48146
16038.92389
16996.95934
18006.83025
19077.4048
20224.81643
21453.59014
22691.91425
23964.28028
25338.90538
26813.46972
28452.08955
30155.6092
31882.05821
33800.95203
35885.24869
38082.96867
40386.31962
42847.43392
45641.28067
48776.95224
52068.60141
54357.63075
45906.68884
30791.09982
25507.64214
26103.94753
29147.85733
25264.76614
-78698.99542
)


100
(
557.8921581
459.8872356
400.3694336
386.7844873
379.5301665
375.8311199
378.4170476
383.1879681
396.5591823
408.8440255
424.6765529
447.6718794
469.0736227
491.06236
520.3038007
552.278244
581.2889491
613.489191
652.1154584
694.5905838
736.1529987
781.2075392
828.6585097
883.5572037
941.6963323
1001.004726
1063.956612
1127.888643
1199.388649
1278.630916
1360.474171
1446.735183
1537.732566
1635.979409
1747.430797
1867.136504
1996.475074
2139.512141
2283.916701
2438.269999
2607.252858
2792.108198
2990.084094
3202.207407
3414.430283
3644.366776
3894.770115
4153.827875
4423.514804
4719.788165
5016.928665
5326.344439
5663.412615
6029.939248
6418.568084
6822.250246
7251.260973
7709.179002
8190.551911
8696.520273
9226.771696
9781.617686
10359.46188
10970.95934
11633.9488
12341.13588
13092.35456
13875.94266
14694.76919
15561.14251
16494.71445
17471.21806
18484.94741
19561.79983
20715.0461
21950.10979
23244.58005
24578.56258
25978.82373
27459.74491
29062.43778
30785.94953
32553.37259
34449.20933
36546.31369
38708.03789
41011.52088
43453.54106
45944.80591
48915.51129
52059.63603
55276.09686
57276.98136
47842.69114
31929.80013
27226.73292
28105.31582
31499.79265
27125.34006
-112832.538
)


100
(
559.4521545
454.5929337
394.4417441
381.3548695
375.0598046
369.7223455
374.2663339
379.120417
390.398568
407.6547213
422.5919035
443.1831233
469.9589145
494.2630262
520.3859328
553.2400383
589.7201033
623.3281277
661.0582761
703.4780291
751.4658474
800.4793039
851.7156813
906.5833317
965.0841351
1030.798542
1100.074673
1170.83343
1245.598031
1324.603683
1413.092843
1509.64919
1610.011816
1721.010124
1838.430167
1967.456436
2109.724838
2261.866046
2426.799946
2603.528725
2781.58619
2972.616655
3183.99487
3409.865168
3649.282349
3905.246371
4169.891826
4443.105342
4728.858405
5039.952351
5377.236586
5728.411202
6085.990304
6479.79193
6901.160593
7345.430243
7814.870818
8308.190212
8828.960657
9371.164382
9937.459245
10529.69542
11155.80791
11833.98514
12549.82604
13302.34425
14097.62459
14932.72339
15809.99499
16748.0193
17745.45859
18783.62713
19869.97776
21026.9727
22260.02459
23561.8219
24884.01438
26284.67903
27753.06362
29337.82808
31044.49053
32815.05152
34609.68346
36686.63486
38946.19488
41262.21119
43630.14295
46127.0828
48695.69615
51707.17091
54818.81419
57877.41015
59128.83422
47644.28619
32967.95849
28773.94862
29942.30087
33539.67298
28684.17397
-153919.3538
)


100
(
512.6024499
445.6162147
389.2687855
376.6505031
368.4167379
365.252534
367.5755616
375.9823485
384.4468138
400.9082882
420.9606856
439.4429578
464.0075504
494.1503717
521.7423532
551.9256636
588.1630218
628.8117085
668.2414865
711.4177853
757.7722346
810.8235679
868.0936336
924.7634015
986.5646609