/*--------------------------------*- C++ -*----------------------------------*\
| =========                 |                                                 |
| \\      /  F ield         | OpenFOAM: The Open Source CFD Toolbox           |
|  \\    /   O peration     | Version:  2.3.1                                 |
|   \\  /    A nd           | Web:      www.OpenFOAM.org                      |
|    \\/     M anipulation  |                                                 |
\*---------------------------------------------------------------------------*/
FoamFile
{
    version     2.0;
    format      ascii;
    class       dictionary;
    location    "constant";
    object      la_r21;
}
// * * * * * * * * * * * * * * * * * * * * * * * * * * * * * * * * * * * * * //

la_r21_table
100
(

100
(
980.7662998
336.0734463
634.6110261
733.8764693
740.3730362
802.3383993
820.3522886
810.6902065
807.6283164
810.6717617
765.6592647
799.2011861
773.5434132
742.9537735
738.6868452
706.1164376
668.0552255
659.7859063
627.5936766
591.7971934
576.5998896
555.3638209
526.9075167
502.0475203
492.7511632
470.8247691
446.2206135
424.6380102
409.1657535
387.4991403
365.6203992
351.7756447
341.5658992
324.9851923
306.706621
288.7243565
273.3331504
257.3714285
240.9428775
226.6682593
215.1445223
202.9990747
189.517648
177.6185459
168.4075325
158.6473995
147.4110226
136.1993832
126.1792961
116.5231068
107.1317388
98.42836011
91.58113987
84.72640855
77.79750632
71.59759435
66.60241083
61.46528966
56.10108261
51.01007993
46.53982339
42.19625764
37.6418553
33.70492789
30.4086644
27.00831016
23.58926377
20.90846604
18.48558535
15.94731622
13.70368043
11.92208075
10.14030497
8.433952087
7.246766706
6.04527853
4.798078222
3.98231414
3.143311588
2.390364981
1.86190555
1.248010828
0.907913235
0.4951452128
0.2470199915
-0.0568767222
-0.2168073578
-0.422545894
-0.5310882461
-0.5947015793
-0.6246497178
-0.6262961887
-0.6075641941
-0.5400322539
-0.4680698073
-0.3806221976
-0.3385543001
-0.2455062837
-0.1233015262
-1.141656298e-09
)


100
(
952.8913989
427.4175171
640.5650982
699.506318
696.2847684
748.4076681
731.0043439
737.8173593
712.8595838
718.094468
683.5714326
687.3803316
668.6527398
636.2131067
617.9221726
592.9960414
559.3123553
530.9961703
510.6752496
481.3309377
454.5222095
434.3852542
414.2554089
391.2966597
371.0658743
356.9129672
338.5948182
317.3748916
295.6827238
281.4748289
265.7669557
250.4434
236.501026
225.9661779
213.6179905
198.7304947
182.4409895
169.1234475
158.2525115
146.592689
134.7233602
124.5655376
116.4323285
108.1911021
99.79206177
92.17475814
85.9386799
79.43187425
71.71094674
64.3865463
58.43808334
53.3233542
48.30537892
43.54042877
39.67395465
36.43527443
33.55055044
30.50186862
27.55452201
24.07209518
20.7778066
17.70458597
15.89490975
13.69486056
10.60612767
8.091366939
6.464916474
4.368539995
1.574585528
0.2116490977
-1.092209687
-3.360038356
-5.16419445
-6.117156221
-9.366681102
-11.941764
-10.81630398
-13.0339404
-15.8985588
-14.46306359
-17.74360905
-18.30658484
-18.82409957
-23.30823641
-21.24131636
-24.58122009
-27.66741361
-26.82691949
-32.94916604
-32.21870495
-35.6966274
-36.67649371
-41.84817318
-41.63657186
-46.43115284
-44.03771408
-48.66207721
-64.61484724
-29.07685689
-10.95018191
)


100
(
859.0425142
416.7648467
582.872465
619.6690354
636.9604806
665.2179932
652.0583653
653.6843869
630.0509785
619.9266735
599.9595888
583.8483145
574.7575478
548.1181501
520.7134093
500.9474748
474.5732267
444.5050399
419.849953
401.5333523
376.0921973
353.7505683
335.4617346
319.2541274
299.7883997
283.856053
270.3866142
256.4516978
238.9037158
223.2485703
209.0456267
197.4735976
184.9560705
174.5135554
165.1529407
156.7299479
146.3144102
134.9711858
123.9908515
114.4364735
106.020912
97.66294524
89.83200056
82.61823396
76.69216987
71.15004425
65.60973558
60.67186241
56.02249093
51.76393129
46.46304227
41.3381138
36.22032703
32.55739522
28.79984466
25.15842489
21.07005382
18.30593253
15.26410277
11.80677483
7.281248238
3.46453495
0.306727891
-1.526475682
-3.921492882
-6.497955316
-9.380316173
-12.45944929
-15.02747182
-17.21684026
-19.30988754
-21.77350573
-23.52706071
-25.45399487
-30.14607741
-36.17642931
-41.17357471
-45.55563526
-49.13379391
-50.18860293
-55.14960759
-60.26769816
-61.72674655
-72.29905835
-75.90486945
-79.63313249
-84.82207729
-88.45397867
-92.57784844
-94.21971264
-101.9391066
-100.6937436
-100.3501507
-107.2319745
-106.311781
-105.6032322
-194.6275944
-184.6406507
-107.2953807
-54.68948241
)


100
(
673.8272353
395.6530066
520.4604833
556.9737275
580.7784146
585.2828185
590.8383389
571.4468027
563.5562883
540.7425289
529.1552402
509.8438046
491.7962472
479.0881154
453.2868791
428.5576173
410.3022242
386.9508062
360.6529688
339.7060832
324.6975133
304.1606853
284.9823833
269.0868211
256.6003576
240.8330123
227.1858404
215.4605767
205.3426318
192.3244225
179.0045813
166.8082959
156.9818214
147.8861792
138.5364947
131.096416
124.2659174
117.9118707
108.7678452
99.72879061
91.12468718
83.85310947
77.8692868
71.00584603
64.77607035
58.28384566
53.92941136
48.03300973
43.11197171
38.19547832
34.88078459
29.81312654
24.16029059
18.67209675
14.7496671
11.09856482
6.173681237
0.9087098226
-3.671033098
-7.439266516
-12.35739014
-17.0865562
-21.46316912
-24.72148244
-26.81914021
-29.00416179
-31.05857084
-33.57061212
-37.65352554
-42.6587894
-46.89095599
-51.49331068
-57.1094599
-62.88245881
-68.7542692
-79.12514013
-91.42756713
-97.09492474
-102.2557818
-113.6979354
-122.0017435
-129.3141004
-136.6637526
-149.3717451
-151.7672907
-156.1326191
-168.495206
-177.9992181
-183.4492114
-186.721634
-197.9259092
-205.6631411
-207.3112804
-203.2664923
-210.5327662
-254.9207056
-471.5519812
-365.2872892
-231.193449
-133.0913541
)


100
(
484.1617422
386.5699187
469.6434677
508.0391454
520.114348
523.5533185
529.5301277
509.947486
501.1011402
483.2692538
462.7869309
452.3778035
431.3972569
416.517657
402.3614967
378.5660155
357.5139482
341.8201956
322.0468627
299.404627
282.5841307
269.4521369
253.3950093
236.5259742
223.1074229
212.3890327
200.1802706
187.6963281
177.8925604
169.5285394
160.4788182
148.4860573
138.0510065
128.6878223
122.4463874
113.920283
106.8964587
100.3097037
96.87548918
88.65528101
80.0758026
71.40751968
65.36497791
59.95865984
53.44628507
44.89563651
38.25605434
33.37702274
26.45615063
19.20770182
14.31167066
10.36675648
4.865995474
-2.347079707
-8.086224707
-12.06164721
-16.28882943
-22.73052598
-29.21241164
-35.04354583
-40.30603047
-45.90554702
-51.53760069
-57.74116516
-63.07758561
-67.86916127
-72.7801102
-78.4203554
-83.69222059
-90.34508522
-97.24302957
-105.3743864
-115.8065964
-127.6272774
-135.1114578
-145.2372813
-162.3348525
-174.1368188
-183.7575488
-199.9813875
-211.0499272
-223.6666795
-241.7259917
-252.3549818
-263.7954576
-273.480538
-278.2083892
-295.3764999
-313.5872096
-336.4511059
-327.6961154
-327.608331
-332.962507
-316.1998896
-348.3141742
-535.7500496
-859.6743958
-585.8538316
-389.5019651
-238.1351181
)


100
(
487.1128841
380.3608101
433.5871414
455.9194548
462.5873026
475.7635523
469.4725693
462.8266029
443.4837171
435.4727706
413.3446266
400.2076075
386.6664853
367.7325103
355.4830412
341.4797214
320.3924363
302.841276
289.522453
273.354342
254.1910267
239.8183831
228.2513467
216.0704741
201.0105254
189.3721548
179.353438
168.8121393
157.3612399
148.6540551
141.7072823
135.3717669
124.6733992
113.7107036
105.9959848
101.2622252
93.18347332
83.9766353
77.82826751
74.80574331
66.22468656
56.48381067
46.54975755
41.63115695
36.87781412
28.95320663
18.45286611
10.96075705
5.586968706
-3.471755455
-11.88655857
-17.93998075
-22.78734673
-29.2263504
-37.21248856
-43.37281778
-48.26479466
-53.99604044
-60.03476332
-68.27303171
-77.90306725
-88.09717495
-97.77391812
-106.9432331
-117.591114
-128.7535534
-139.4235432
-149.3963913
-156.4615516
-165.4002265
-176.7811872
-189.366446
-201.6888501
-215.4361094
-233.0725414
-246.4840022
-257.2121805
-274.3639094
-294.1082642
-315.9262671
-331.4984137
-341.648731
-362.0206695
-385.8967384
-400.1695496
-409.1996184
-416.5135515
-453.5160088
-496.5077959
-478.4064616
-456.677225
-489.8212565
-465.3228135
-497.9103162
-609.6992581
-1135.480465
-1365.736912
-855.3493615
-584.6611241
-382.9717289
)


100
(
564.8290181
362.9257507
396.5592523
406.5536655
416.7347407
428.4146933
419.8952818
418.1517785
400.530018
388.9910459
376.5246224
357.3017585
347.0876176
332.2471392
316.2366433
305.8017098
293.1272354
274.6838144
259.9437668
248.4761455
235.8334914
219.4474506
206.4657635
196.2771633
187.3799811
174.1285955
162.6181397
153.7980859
143.4609966
132.5118784
122.0049969
117.6608695
111.3536122
100.51471
87.30069877
81.92479982
77.71728327
69.30498009
56.61347553
52.11369187
48.17537109
38.87418103
26.42906556
17.36513792
13.19022126
7.961108298
-2.330534574
-14.13453777
-22.17318965
-29.71535375
-39.51702594
-49.19539088
-57.35645729
-66.10946595
-75.08335546
-83.99585864
-93.00669216
-101.5383346
-108.9096118
-116.9582717
-126.905436
-140.7958563
-156.0319138
-173.3059055
-189.3357394
-203.6517176
-217.3681678
-233.2615348
-251.6441191
-268.4724748
-284.5059776
-300.5164085
-318.8845504
-339.3023341
-358.8070086
-376.9755529
-399.2823695
-423.9914751
-444.2496482
-448.8760752
-466.3471696
-501.5879725
-537.7990086
-564.0565882
-584.7570376
-608.9450463
-656.679959
-721.9300287
-781.1974975
-785.3996112
-818.5232638
-883.8607677
-972.1969372
-1121.530674
-1386.182156
-2246.764306
-2058.096066
-1279.409859
-885.7036169
-577.5321974
)


100
(
452.0558341
339.6258902
360.2813872
365.5369716
380.1479932
381.2681213
381.2026241
372.4028767
365.6291297
348.907094
341.6281203
325.7281727
310.3946343
301.8323983
287.0886665
273.5050284
264.4991159
254.2158499
238.4305075
224.9229047
215.0934915
205.5586868
190.9722105
177.8873946
168.4454411
161.212081
149.5598961
138.3439165
129.596052
118.4638129
105.8886459
93.82081151
91.97776083
84.87996672
71.88145959
58.08537939
54.51252468
50.99040634
39.20590176
26.95742398
21.18781653
16.62054325
4.898841747
-7.632202432
-16.77747979
-20.51790406
-28.36352451
-38.76716443
-52.77035595
-63.13541844
-75.73933322
-85.37256275
-96.27554381
-108.9048051
-123.2698405
-138.2630683
-152.8465678
-167.3079891
-181.8490311
-194.1901206
-206.2828483
-218.9024537
-232.7650883
-251.7044971
-273.6553217
-297.6398519
-320.2610116
-340.6050895
-361.7092456
-384.6260841
-414.2197503
-445.1084804
-471.0950762
-499.4045164
-526.9564403
-559.2183131
-581.7994539
-593.6225375
-618.6032064
-664.0429679
-719.9234626
-767.7716801
-818.3461562
-870.0070707
-928.805109
-1010.804636
-1099.984018
-1177.397779
-1245.723401
-1325.104854
-1415.964456
-1538.436257
-1692.313643
-1927.79439
-2391.091549
-3499.243758
-2844.005146
-1861.28805
-1367.49761
-984.5129315
)


100
(
262.6603941
310.5873087
326.4700185
332.1601153
341.9645384
340.8799684
344.3556909
333.8495916
331.0282299
318.4095286
305.4016106
298.4770907
282.0570211
269.9770156
262.6674708
248.6556951
236.9573417
230.1066719
221.4117075
206.8929833
193.9817252
185.0236657
177.6554632
163.8247982
149.2511471
139.8951384
132.439019
122.6355286
111.796578
102.8815425
90.74335296
73.6625648
64.6528973
62.8997891
54.96818608
38.11525098
26.74935616
24.04501106
19.28314074
5.055840339
-7.595983713
-15.21482831
-22.05377034
-35.52771467
-49.61221891
-59.99490607
-67.92821473
-76.19376329
-86.5560907
-102.6997547
-120.1482717
-137.4810304
-152.6527494
-166.3990983
-182.5160943
-203.5907408
-222.7770575
-245.6166209
-268.4666977
-289.3171999
-309.5921052
-328.0913764
-348.6481065
-370.063269
-393.0683014
-419.4005451
-447.4247271
-476.1896052
-510.6185535
-545.7931703
-586.2768216
-628.0928472
-670.8061671
-715.6782109
-741.3915519
-768.3293489
-819.2410176
-885.7099319
-951.7130442
-1014.446949
-1082.658994
-1151.332854
-1218.282176
-1299.424047
-1395.29911
-1489.275573
-1572.068427
-1657.484722
-1746.197939
-1855.628616
-1988.666643
-2145.864156
-2374.97629
-2772.226243
-3482.058177
-4833.123673
-3722.054087
-2532.327763
-1956.557362
-1605.911615
)


100
(
146.4800024
288.4663929
298.1795651
300.8006252
304.1477756
308.7019487
306.9263002
302.8219755
294.3114294
290.3333842
276.100297
266.8683035
258.7527578
243.4904561
233.9413185
227.7936997
214.8614657
203.7665076
197.1780273
190.7322617
176.873393
162.8242145
154.05639
147.2202746
134.694588
118.8985469
107.8777843
100.0250612
92.13151642
82.36542348
74.60197026
59.19178476
39.7303874
32.30355444
30.4098868
18.86909438
2.221226912
-9.271906243
-11.54081939
-20.32611047
-33.43520266
-49.65360868
-61.06601724
-75.41667873
-89.14441775
-105.4242232
-120.7558741
-134.1666795
-146.1015505
-159.1890613
-176.5761094
-201.3937288
-224.9415919
-246.3190988
-266.5034743
-288.3146213
-311.2768445
-341.6354977
-372.6129741
-406.7236627
-439.3785974
-467.1706526
-495.5030064
-524.2597532
-554.7493398
-589.8378439
-626.6447982
-667.2309593
-718.5946302
-770.8670988
-828.0439541
-877.3757623
-923.3551338
-969.5311068
-1037.051491
-1112.881574
-1185.356171
-1255.783478
-1330.691025
-1407.232003
-1482.210529
-1566.290883
-1661.326843
-1765.007591
-1859.927676
-1954.098811
-2071.256745
-2187.564964
-2321.865162
-2480.191618
-2652.839633
-2889.254666
-3243.291579
-3811.450326
-4899.507736
-6332.697452
-4675.667374
-3283.622899
-2588.375677
-2306.508369
)


100
(
127.0215506
269.3491379
272.1036054
269.4203838
271.77656
278.03355
272.6840671
272.6568305
263.3665087
259.4842798
251.9821802
238.3291166
231.8625962
222.3524751
208.2039831
200.2829146
194.8027473
181.6372777
170.6549638
164.5157092
159.1435476
145.3369267
129.4221331
120.6950569
113.2815154
102.6260185
86.10515865
71.91614307
63.79826912
56.17015692
50.34580751
41.22584483
20.48603812
4.183454476
-4.898123169
-8.431686138
-23.75736165
-39.86480172
-53.1291988
-60.12080568
-70.37228968
-84.2008909
-103.8630638
-123.8083432
-144.2724281
-162.8150502
-180.8155671
-202.803365
-226.2023864
-244.6386508
-265.3317507
-287.3645943
-313.796957
-344.8971051
-376.9281398
-407.4775265
-443.155789
-475.0729977
-509.8264131
-551.7176744
-593.2523168
-635.2562922
-678.4375373
-719.9351384
-765.6589661
-819.0649601
-872.6104504
-929.4836559
-983.1616556
-1038.425848
-1093.608484
-1165.400957
-1233.651913
-1303.895841
-1386.832919
-1471.170899
-1562.146582
-1654.417914
-1743.025276
-1839.727315
-1946.141465
-2061.665892
-2174.117974
-2276.129463
-2404.187148
-2554.981014
-2716.656659
-2844.532052
-3035.35071
-3237.752656
-3489.316716
-3831.462479
-4354.706822
-5119.917946
-6915.887396
-7959.060669
-5652.031854
-4078.931008
-3369.150344
-3639.780008
)


100
(
166.2686728
245.8052137
246.3257145
239.8055841
245.2961993
247.0563689
245.0441897
240.93743
237.211889
229.2078523
226.752115
216.301559
204.5152448
198.4224491
188.1716813
174.2799535
166.869903
161.0662576
148.134724
135.4803118
129.4355611
124.3613121
111.6283151
94.92084071
83.89110317
75.91443513
66.88987665
50.34159396
33.05867211
23.54712309
13.89263225
12.17624727
1.862507549
-20.15884342
-38.54027709
-49.65003775
-61.38454404
-76.33294069
-95.74355907
-112.9083063
-127.2480748
-139.3760296
-153.791287
-176.2329332
-205.7985675
-234.2932094
-260.8946651
-285.7496674
-312.7355364
-343.9324789
-375.5501217
-405.1602951
-439.4515908
-476.2587475
-512.8086852
-556.3535996
-600.823562
-642.6402319
-689.2965966
-734.3214563
-780.7439328
-837.3477019
-895.8750532
-957.8831728
-1021.908704
-1079.044538
-1135.660749
-1191.663992
-1260.28131
-1324.613103
-1389.485928
-1468.774572
-1550.495775
-1648.609144
-1755.632516
-1873.457732
-1995.719269
-2111.022141
-2223.493102
-2347.854768
-2480.717524
-2619.950084
-2763.134367
-2928.071572
-3109.645237
-3283.624604
-3467.513834
-3673.853377
-3917.586454
-4190.409285
-4546.294691
-5004.098907
-5730.238658
-6794.665064
-9360.657965
-9606.528854
-6710.306916
-5040.283406
-4260.039845
-5127.966698
)


100
(
129.2473034
221.5469329
220.4831631
215.2738862
219.7585416
218.2887797
219.5518136
212.5314284
211.2551334
204.019667
198.0029462
194.8599118
182.7271509
172.0976433
165.6733963
154.3235033
139.4559362
131.7037349
125.3927785
112.7181151
97.99197196
92.1559087
86.56650524
75.56940936
58.26108826
43.70734705
35.005299
25.49502953
10.88165153
-7.851373552
-23.06924811
-32.05501048
-34.73399822
-48.82816658
-69.55543704
-92.45656775
-111.0140302
-130.2721589
-146.2625132
-166.5203565
-191.5824736
-214.7564377
-234.2143699
-253.6476637
-277.5932371
-312.2044607
-351.06743
-387.2992533
-423.3255159
-462.5623347
-499.4795376
-541.1384749
-585.9532081
-630.6056642
-678.6264886
-725.6640594
-770.6330471
-829.3311311
-885.3802099
-939.4398845
-1003.615094
-1066.95852
-1129.990715
-1196.132683
-1258.63028
-1328.897821
-1399.407815
-1468.660174
-1550.248744
-1624.763307
-1721.26337
-1827.093018
-1943.928329
-2067.21296
-2193.184502
-2316.85089
-2451.764551
-2602.703114
-2758.424014
-2919.609159
-3096.925318
-3286.621113
-3471.227358
-3664.84619
-3856.077332
-4111.105292
-4354.495492
-4582.959531
-4886.097298
-5292.004658
-5768.686589
-6372.864954
-7294.011065
-8899.208595
-12008.22093
-11123.39486
-8040.591134
-6295.697301
-5285.977868
-6853.703803
)


100
(
64.99506624
197.0390537
197.9100363
194.6974812
194.517163
194.5786604
194.0815707
189.8100934
183.8669089
181.2637156
172.6921969
167.7316011
162.8336852
149.747727
138.9660115
131.820102
119.4785734
103.4048741
94.87559913
87.9982367
75.86124645
60.22657864
52.29867934
46.14398867
37.07847573
19.32668818
1.231568109
-9.810218317
-21.36415574
-34.58798148
-53.38486197
-73.26310588
-87.37594925
-97.30829673
-113.2704511
-132.369076
-158.6356332
-188.1520412
-213.2853636
-236.5790186
-259.3888646
-289.9119707
-325.6127164
-354.9857011
-385.260267
-417.0691919
-454.4134156
-500.0543418
-550.8274752
-599.8557282
-651.1996096
-695.2311582
-737.1497277
-787.968526
-847.1946147
-899.1199393
-959.1672545
-1017.739214
-1077.790527
-1146.890099
-1214.982511
-1279.654794
-1348.701652
-1417.918089
-1501.601041
-1586.425855
-1669.752733
-1767.121554
-1873.469915
-1988.489631
-2112.528641
-2245.944603
-2380.695776
-2514.792552
-2647.980331
-2798.342356
-2985.949773
-3191.535149
-3382.441562
-3561.847027
-3763.289909
-3989.432411
-4209.548898
-4471.220461
-4755.01575
-5007.755392
-5234.209426
-5555.717026
-6022.147156
-6523.53419
-7121.904871
-7824.052936
-9137.845347
-11328.7415
-14841.25705
-12791.52476
-9497.929086
-7731.370803
-6584.652149
-9748.566409
)


100
(
43.02109169
178.7557945
178.7168515
173.8239302
171.9660404
173.5204851
169.6331018
168.3121757
160.5960018
156.9310831
151.3619655
141.770029
137.4348146
129.7891659
115.2035139
103.8589072
96.07083552
83.41428311
66.09821135
56.33451046
48.77354126
37.63209792
20.76618416
9.299638194
2.197316763
-6.842741298
-22.87281572
-42.86115111
-60.18436747
-73.56180265
-88.61443135
-105.3306599
-128.6276699
-152.1895467
-170.8864105
-191.0927379
-211.5549649
-241.5473223
-280.138722
-317.3383322
-349.2437021
-380.7032452
-415.6472174
-459.4172946
-504.5379157
-547.1963032
-593.1112995
-641.1061703
-686.9517253
-741.7400364
-800.0523055
-854.0312794
-904.8562195
-951.8246952
-1003.453328
-1066.971825
-1137.301666
-1199.791405
-1275.225088
-1338.48918
-1405.962013
-1488.958483
-1571.273898
-1665.428558
-1757.105166
-1851.237023
-1964.63273
-2085.466105
-2217.754934
-2361.247101
-2513.065412
-2672.591942
-2834.333761
-2998.493483
-3169.285481
-3364.79649
-3579.554219
-3792.469399
-3992.878298
-4213.489833
-4487.750024
-4777.92864
-5045.289942
-5338.147615
-5622.164681
-5908.959097
-6271.916403
-6705.25027
-7222.275202
-7814.996414
-8490.161555
-9277.076378
-11123.88086
-13926.79308
-17558.33305
-14685.36413
-11220.54866
-9302.538191
-8075.056151
-13036.55012
)


100
(
38.7566002
161.4870394
160.1689868
154.135174
153.2220143
152.8595533
149.2739005
145.9324653
141.1249196
133.3770532
129.7346507
121.0072562
110.7703463
104.9136154
94.99858036
78.75963413
66.70364406
58.41217408
45.80506304
27.47968185
15.60488052
7.250769829
-2.97965709
-21.0568843
-37.35977202
-45.91092556
-56.87131087
-70.55840938
-91.77556831
-114.9659875
-134.3225756
-154.2400659
-172.0802722
-196.5123906
-227.6693203
-260.6444043
-287.8656205
-316.0894541
-347.9939545
-393.1870559
-442.6567238
-487.0391985
-530.3760037
-576.8489719
-625.668254
-680.6576099
-738.795987
-791.5048787
-843.769804
-891.1698526
-938.5168284
-1000.249477
-1062.141269
-1113.595304
-1169.595775
-1237.788311
-1304.39753
-1389.240689
-1470.781793
-1547.074052
-1630.899446
-1707.309818
-1812.905234
-1921.09313
-2022.242357
-2153.401358
-2292.149767
-2441.926786
-2602.17443
-2769.917417
-2940.15913
-3103.827936
-3289.146735
-3486.545791
-3701.765276
-3930.972596
-4184.000738
-4438.385831
-4677.893474
-4950.762564
-5261.427782
-5554.378773
-5894.890022
-6243.093987
-6587.418028
-6939.584358
-7401.290566
-7929.793024
-8554.109807
-9239.686007
-10036.90967
-11296.87199
-13125.01605
-16578.27907
-20270.61166
-16697.54385
-13102.77957
-11087.66797
-9664.808564
-16567.5324
)


100
(
36.87024728
143.9809002
142.6157138
137.1158296
136.6485756
133.1234648
131.1301796
124.9335965
121.7019652
113.7555244
106.1937116
100.7869171
88.96655483
77.49187357
70.25868047
58.59588074
40.84476487
27.78333495
18.8293302
6.495493123
-13.05837223
-28.22013936
-37.56244621
-48.85625367
-66.22284857
-85.97928213
-100.7514376
-113.8801102
-129.0217962
-149.4637855
-177.8350722
-208.6909703
-234.2042505
-258.8360968
-284.1797825
-322.4061735
-367.3073366
-406.8322414
-446.0332618
-487.2149613
-534.7497219
-592.1602329
-652.1055165
-707.1694906
-765.3767349
-818.4831824
-868.7186667
-928.4929713
-991.4689207
-1038.964729
-1087.477844
-1139.590238
-1199.980384
-1274.293656
-1353.480605
-1427.213758
-1506.418921
-1582.379911
-1673.169942
-1780.790603
-1871.861911
-1971.598223
-2080.168613
-2195.569183
-2335.900303
-2489.570263
-2656.51364
-2828.48655
-3005.047649
-3184.24193
-3364.950906
-3572.054
-3801.408466
-4041.011705
-4296.015242
-4555.105288
-4836.501148
-5100.760039
-5377.987141
-5720.838687
-6105.366596
-6461.676942
-6816.570866
-7172.17709
-7549.205871
-8091.161729
-8702.095606
-9310.068991
-10035.16648
-10827.89093
-11952.29118
-13827.0008
-15518.02659
-19882.96579
-22971.10952
-18841.52281
-14977.94628
-12966.2292
-11348.60591
-21254.11315
)


100
(
24.05022958
126.4881971
126.3987128
122.5939193
120.6411131
116.5966485
113.5581665
107.5712694
101.0305087
95.55434258
85.30887256
76.64970459
69.0410433
54.672238
41.91304284
33.53399799
20.84690879
1.56288567
-13.15513754
-22.98277686
-35.34600811
-55.88047747
-75.64156072
-86.49202213
-100.4741591
-116.8963026
-139.5010017
-162.8877826
-180.6874778
-200.8727361
-221.4021367
-254.9596074
-295.4897865
-333.8133831
-366.9631304
-398.8833987
-439.2911753
-493.6830753
-549.0921771
-599.9737684
-654.4449089
-711.4612332
-768.1647974
-832.9523652
-895.433225
-952.9688883
-1002.726238
-1052.445392
-1104.672669
-1172.716587
-1236.984905
-1291.950118
-1366.511388
-1447.436208
-1535.640772
-1631.231381
-1733.08385
-1820.956054
-1916.40308
-2011.256177
-2129.963317
-2260.081712
-2382.218613
-2535.075152
-2697.800478
-2878.119993
-3063.076415
-3252.550767
-3442.905206
-3634.2607
-3856.224659
-4107.15995
-4361.730767
-4627.820806
-4906.096303
-5217.481035
-5541.209695
-5846.62862
-6193.919502
-6605.73249
-6998.268396
-7387.763338
-7777.065712
-8224.738009
-8773.102914
-9451.046807
-10098.05301
-10801.67279
-11643.02679
-12635.75708
-13942.1509
-15750.37368
-18230.16206
-23477.9462
-25759.14406
-20965.96397
-16950.45092
-14872.67031
-13207.38805
-28476.89076
)


100
(
19.15286894
111.0193336
112.2332203
108.9788555
105.6984467
102.6937882
96.75187428
91.81535344
83.05333842
76.10095206
67.16037689
54.15572718
44.78367584
34.69720377
18.23890203
4.302707399
-5.094588748
-18.47834104
-38.93959225
-57.12775195
-68.55596894
-81.59873596
-101.7830132
-124.5286305
-141.8301887
-158.4725443
-177.0532062
-201.4969993
-231.4500269
-261.1242077
-288.3653299
-314.9451566
-350.1076539
-399.0975042
-452.2269771
-494.2716353
-538.054252
-584.8644475
-642.8345204
-707.887708
-776.773504
-837.6609733
-897.5001307
-948.1977654
-1000.437767
-1061.886468
-1125.599681
-1170.639649
-1226.5574
-1293.658751
-1368.155663
-1461.10255
-1556.132299
-1646.697041
-1741.095629
-1835.745451
-1949.666743
-2069.232647
-2170.601389
-2281.393621
-2416.231292
-2564.343528
-2730.991855
-2909.727963
-3109.484266
-3305.458085
-3504.006173
-3701.902631
-3908.132409
-4146.750654
-4410.575592
-4686.504464
-4973.857255
-5274.911336
-5597.673936
-5959.029783
-6299.032667
-6648.888669
-7082.300323
-7558.784641
-7969.645978
-8416.707202
-8848.461037
-9432.148475
-10146.47664
-10861.18071
-11595.60966
-12464.68808
-13495.45062
-14650.19859
-16149.29851
-18293.20217
-21152.10452
-26979.109
-28623.94041
-23239.32012
-19107.8796
-16846.90754
-15041.2843
-36512.61101
)


100
(
25.03500732
99.80362642
99.74377308
96.00536509
92.90737649
89.61234861
82.86081451
76.39352084
68.21828691
57.88358866
49.19236905
36.34589679
21.18430553
10.92693432
-1.268805297
-19.651131
-35.02609449
-45.78239774
-59.95065026
-82.79734363
-103.9145438
-116.4204472
-132.4228272
-152.4185327
-178.1441013
-204.5139493
-225.7355607
-249.42097
-275.2782821
-312.7436218
-356.2332297
-392.1272529
-428.4920471
-467.649832
-521.0146353
-582.8882744
-642.1374343
-694.1190804
-752.3100152
-811.8006392
-877.1628584
-944.1870929
-1011.111776
-1059.676343
-1104.138809
-1147.714326
-1211.248945
-1284.081852
-1362.804486
-1436.554241
-1535.759959
-1629.685443
-1729.407297
-1841.783127
-1951.956593
-2058.73493
-2171.815085
-2294.920571
-2431.929119
-2579.095313
-2728.990377
-2901.930927
-3091.409611
-3300.788936
-3519.041842
-3735.880144
-3951.632507
-4176.04685
-4427.558513
-4719.645188
-5013.923638
-5310.185708
-5619.072323
-5960.407034
-6338.197645
-6734.856592
-7137.847968
-7581.303076
-8089.876675
-8535.181223
-8963.008561
-9461.53359
-10063.96664
-10833.4886
-11613.86087
-12384.4259
-13293.36498
-14307.98735
-15481.12886
-16790.76082
-18633.77592
-21045.28438
-24289.72213
-31114.32136
-31362.19818
-25572.72793
-21480.93883
-19026.69278
-17181.53151
-49027.61653
)


100
(
10.35486104
87.97327455
88.1699839
84.5267603
82.1367393
77.06443747
71.12327639
62.37346377
54.52299779
43.2196799
31.1450087
19.79417317
3.809065301
-12.9972859
-24.54425629
-38.28471142
-58.71544136
-76.41902236
-89.1967357
-104.1216618
-126.2477476
-150.9150123
-169.5161747
-188.575178
-210.2934802
-239.4395879
-272.6547711
-304.7284683
-335.7471022
-366.9660452
-408.6565377
-461.7154468
-513.0768823
-557.9512019
-606.8355476
-662.6135641
-729.482233
-799.0317307
-863.4949688
-923.0891005
-976.3076699
-1026.003
-1085.340075
-1151.367351
-1206.305038
-1253.764369
-1313.868376
-1390.174713
-1487.393551
-1601.047509
-1713.062222
-1816.921385
-1918.474736
-2016.031728
-2150.103141
-2281.505224
-2397.379765
-2536.001877
-2694.943278
-2865.058865
-3049.379586
-3250.072443
-3474.247972
-3703.057581
-3928.104267
-4153.100473
-4389.821201
-4655.279089
-4956.758471
-5287.41113
-5615.517707
-5957.086349
-6304.213113
-6709.820311
-7131.170381
-7551.611811
-8012.023706
-8553.498427
-9072.793678
-9517.069
-10044.29281
-10632.08775
-11423.05779
-12318.34561
-13139.9732
-14047.68097
-15076.96945
-16214.00727
-17494.46763
-19069.09687
-21147.51098
-23791.18556
-27542.10155
-34523.82089
-33826.44104
-27935.9984
-23934.58393
-21392.20304
-19135.56339
-57807.15581
)


100
(
-1.377566101
77.30047178
77.51325617
74.71494301
71.90054906
66.40651731
60.43142789
51.18383177
40.9569049
30.46432142
16.15405381
2.26367291
-11.42090921
-30.03931963
-48.34931896
-61.28424419
-76.62291467
-98.59093192
-119.6302221
-133.4856622
-151.2390396
-174.2122257
-202.0459354
-228.6886672
-252.5835919
-278.7897125
-310.0120352
-351.3196218
-397.1792801
-435.0257356
-475.2979563
-520.3477452
-580.1097088
-643.5514017
-701.5365651
-759.2304541
-821.6419236
-885.055545
-954.425904
-1018.737906
-1074.23435
-1115.090978
-1160.124089
-1211.281256
-1288.03938
-1369.068788
-1445.20154
-1533.888388
-1642.650913
-1743.855419
-1867.63501
-1999.300227
-2107.394465
-2219.365203
-2331.590234
-2470.702402
-2625.974115
-2794.842647
-2969.711933
-3162.370244
-3368.910181
-3596.170761
-3834.214897
-4072.463311
-4310.6241
-4561.093786
-4841.726245
-5166.555869
-5514.412994
-5854.517811
-6210.510953
-6574.175163
-6975.645476
-7427.860637
-7898.725769
-8418.032779
-8973.445785
-9530.155886
-9977.216613
-10472.02255
-11137.66726
-11919.57718
-12864.39
-13752.70917
-14647.64581
-15760.76239
-16917.16198
-18192.42182
-19597.92447
-21388.73961
-23681.14493
-26785.97714
-30856.8446
-38325.58398
-36281.11239
-30257.11547
-26272.77706
-23864.05244
-21598.01427
-76205.86918
)


100
(
3.981888211
66.85898206
68.18390404
66.03104951
62.5892339
57.70510689
50.38169592
41.68846788
29.77635138
17.61886098
3.885604845
-12.91179832
-28.10994044
-43.88869454
-64.62922553
-84.7679854
-99.26010707
-116.3961934
-139.4612813
-163.3821643
-182.064624
-202.5628575
-226.7041875
-258.5803085
-293.1291487
-324.8794353
-357.8446847
-393.0597096
-440.5006132
-496.3514833
-547.37258
-596.1962322
-649.1087042
-710.3356557
-781.7144602
-852.6293271
-916.4155087
-977.1208182
-1031.664565
-1084.101685
-1144.728442
-1206.177173
-1247.521674
-1299.717004
-1371.101311
-1460.65327
-1574.407625
-1697.713705
-1804.537195
-1914.409183
-2023.553494
-2141.799193
-2288.982536
-2419.096679
-2536.139018
-2688.227893
-2851.561214
-3037.686187
-3239.731204
-3465.225198
-3705.996882
-3954.611938
-4196.686221
-4442.759137
-4700.707582
-4984.199109
-5304.095836
-5656.058073
-6016.328502
-6399.380592
-6792.731442
-7226.199381
-7691.651827
-8144.206733
-8653.286521
-9240.79109
-9830.562515
-10367.11477
-10903.23247
-11536.12991
-12299.23578
-13262.15936
-14261.90088
-15201.76594
-16304.96893
-17485.50243
-18743.02664
-20093.96795
-21661.95972
-23639.12278
-26261.1887
-29483.50434
-33684.79173
-41136.44533
-38640.97795
-32570.93079
-28579.63478
-26245.44755
-23592.56441
-87275.51306
)


100
(
11.74789797
59.09749209
60.06473606
57.85418397
54.60014383
49.72406018
42.05842715
33.06421822