/*--------------------------------*- C++ -*----------------------------------*\
| =========                 |                                                 |
| \\      /  F ield         | OpenFOAM: The Open Source CFD Toolbox           |
|  \\    /   O peration     | Version:  2.3.1                                 |
|   \\  /    A nd           | Web:      www.OpenFOAM.org                      |
|    \\/     M anipulation  |                                                 |
\*---------------------------------------------------------------------------*/
FoamFile
{
    version     2.0;
    format      ascii;
    class       dictionary;
    location    "constant";
    object      la_r2;
}
// * * * * * * * * * * * * * * * * * * * * * * * * * * * * * * * * * * * * * //

la_r2_table
100
(
100{0}
100{0}
100{0}
100{0}
100{0}
100{0}
100{0}
100{0}
100{0}
100{0}
100{0}
100{0}
100{0}
100{0}
100{0}
100{0}
100{0}
100{0}
100{0}
100{0}
100{0}
100{0}
100{0}
100{0}
100{0}
100{0}
100{0}
100{0}
100{0}
100{0}
100{0}
100{0}
100{0}
100{0}
100{0}
100{0}
100{0}
100{0}
100{0}
100{0}
100{0}
100{0}
100{0}
100{0}
100{0}
100{0}
100{0}
100{0}
100{0}
100{0}
100{0}
100{0}
100{0}
100{0}
100{0}
100{0}
100{0}
100{0}
100{0}
100{0}
100{0}
100{0}
100{0}
100{0}
100{0}
100{0}
100{0}
100{0}
100{0}
100{0}
100{0}
100{0}
100{0}
100{0}
100{0}
100{0}
100{0}
100{0}
100{0}
100{0}
100{0}
100{0}
100{0}
100{0}
100{0}
100{0}
100{0}
100{0}
100{0}
100{0}
100{0}
100{0}
100{0}
100{0}
100{0}
100{0}
100{0}
100{0}

100
(
0
0
0
1.523442529e-07
0
0
-1.617988752e-08
0
0
0
0
0
0
0
0
0
0
0
0
0
0
0
0
0
0
0
0
0
0
0
0
0
0
0
0
0
0
0
0
0
0
0
0
0
0
0
0
0
0
0
0
0
0
0
0
0
0
0
0
0
0
0
0
0
0
0
0
0
0
0
0
0
0
0
0
0
0
0
0
0
0
0
0
0
0
0
0
0
0
0
0
0
0
0
0
0
0
0
0
0
)


100
(
0
0
2.952915794e-08
5.019585352e-08
-4.996675072e-09
-6.576670108e-10
-4.596150453e-09
9.750047651e-10
0
0
0
0
0
0
0
0
0
0
0
0
0
0
0
0
0
0
0
0
0
0
0
0
0
0
0
0
0
0
0
0
0
0
0
0
0
0
0
0
0
0
0
0
0
0
0
0
0
0
0
0
0
0
0
0
0
0
0
0
0
0
0
0
0
0
0
0
0
0
0
0
0
0
0
0
0
0
0
0
0
0
0
0
0
0
0
0
0
0
0
0
)

)
;