/*--------------------------------*- C++ -*----------------------------------*\
| =========                 |                                                 |
| \\      /  F ield         | OpenFOAM: The Open Source CFD Toolbox           |
|  \\    /   O peration     | Version:  2.3.1                                 |
|   \\  /    A nd           | Web:      www.OpenFOAM.org                      |
|    \\/     M anipulation  |                                                 |
\*---------------------------------------------------------------------------*/
FoamFile
{
    version     2.0;
    format      ascii;
    class       dictionary;
    location    "constant";
    object      la_r20;
}
// * * * * * * * * * * * * * * * * * * * * * * * * * * * * * * * * * * * * * //

la_r20_table
100
(

100
(
11.48931377
70.39526246
71.00485843
52.22594588
42.60968598
28.54221479
20.6125335
12.8549933
7.922052606
-0.2739751249
1.524315856
-8.873626883
-10.60732286
-10.29041714
-16.22903959
-17.26484886
-15.54555648
-20.16863598
-20.89527302
-19.20731079
-21.1558296
-22.29783801
-21.66472427
-20.93347565
-22.75988908
-22.73506908
-21.72179231
-21.21214708
-21.71647572
-21.14993214
-20.00319447
-19.95711681
-20.40884211
-19.94593341
-19.03440973
-18.16944201
-17.78346473
-17.10198859
-16.17733296
-15.38795239
-14.99989829
-14.4333318
-13.61974901
-12.92107637
-12.59035613
-12.13929437
-11.46189557
-10.72142976
-10.0800698
-9.432272788
-8.761886532
-8.116607681
-7.636830547
-7.137478365
-6.605558042
-6.13635609
-5.791006601
-5.42520704
-5.035257003
-4.652034181
-4.293781767
-3.948166963
-3.585322319
-3.254341051
-2.960622898
-2.668110105
-2.383415267
-2.12768843
-1.897341298
-1.672560212
-1.466655478
-1.277672924
-1.108108933
-0.9546422965
-0.8154648621
-0.6957057657
-0.5791953957
-0.4743284621
-0.3938461819
-0.3124043849
-0.2485694337
-0.200379501
-0.1494170005
-0.1211069058
-0.08868127853
-0.07230822702
-0.05402240156
-0.04613477405
-0.03738496956
-0.03058921927
-0.02614877765
-0.02317200151
-0.02239843475
-0.02087371425
-0.02078652781
-0.01942030442
-0.01863523676
-0.01285795727
-0.00350019565
-3.073774854e-11
)


100
(
17.15689496
60.23128567
66.08594483
48.86612846
39.15772651
26.74524515
19.22909178
12.08560164
7.351012494
0.7109615146
0.1184806535
-6.932557177
-9.018473535
-9.847858982
-13.72873261
-14.9951608
-14.75923326
-17.21580694
-18.23889888
-17.81551991
-18.70413024
-19.455804
-19.44278598
-19.19944894
-19.79705387
-19.98233548
-19.58581014
-19.14619697
-18.93947927
-18.6456181
-18.06601275
-17.75254364
-17.57508214
-17.31171502
-16.81849286
-16.13892275
-15.48826797
-14.84370703
-14.21504702
-13.53893746
-12.91713128
-12.32985087
-11.76166166
-11.20713018
-10.69253041
-10.21295592
-9.752042604
-9.262473475
-8.716126522
-8.197193945
-7.725050675
-7.265934696
-6.83841803
-6.434332518
-6.073913103
-5.73911859
-5.476175902
-5.263441181
-5.150096724
-5.072757938
-4.942939075
-4.777749966
-4.585146003
-4.319562479
-4.097605491
-3.953961154
-3.793335174
-3.579352411
-3.458808795
-3.327920492
-3.15499278
-3.035550174
-3.000645235
-2.949364951
-2.973576274
-3.031935559
-2.931438745
-2.826043828
-2.777671584
-2.609106842
-2.611655189
-2.558376448
-2.504455646
-2.633922276
-2.449436235
-2.582765317
-2.618972869
-2.611880915
-2.834037186
-2.810784368
-3.162094147
-3.493419546
-4.142272835
-4.77156679
-5.651950728
-6.396411002
-7.03419104
-4.952516965
-1.642923012
-0.3655966735
)


100
(
30.98981652
65.16042703
66.71205278
49.76768472
40.31680668
29.47568334
21.556489
14.79486705
9.756065732
4.107224213
1.662988558
-2.742967219
-5.981046749
-7.456083396
-9.764173616
-11.76132503
-12.41244908
-13.40075009
-14.69945921
-15.34623749
-15.63894035
-16.14657455
-16.58088372
-16.74464963
-16.78107639
-17.03859402
-17.16958365
-17.07646385
-16.74094328
-16.52779753
-16.25132326
-16.00431371
-15.68097797
-15.49921434
-15.34042597
-15.12809898
-14.74031408
-14.2618122
-13.80430147
-13.37400853
-12.95245087
-12.51497365
-12.11821344
-11.77499484
-11.44059327
-11.12571084
-10.80927374
-10.55298804
-10.29927885
-10.0552917
-9.714631962
-9.419478164
-9.174615998
-8.948943595
-8.672601291
-8.435014686
-8.306781596
-8.167299916
-8.034927899
-8.026653441
-8.183998381
-8.219316694
-8.272508387
-8.241129253
-8.046395649
-7.883165013
-7.863895664
-7.774290758
-7.540834568
-7.521620944
-7.523787167
-7.473740412
-7.405306832
-7.49104446
-7.625456444
-8.031102922
-8.525669652
-8.49185839
-8.532912791
-9.074503909
-9.061329741
-9.411208491
-10.15881801
-10.46888353
-10.99424713
-11.74607186
-12.77385066
-13.79774414
-15.30522409
-17.75343054
-19.65494831
-22.56032945
-26.46299486
-29.97603767
-33.59222104
-38.62038089
-34.86263427
-21.87649678
-10.77870686
-4.326448584
)


100
(
55.36997137
68.18199021
66.45328594
51.6805778
41.6307175
31.03935855
23.81952035
16.85523287
12.02232491
6.965235685
3.582634894
0.2392409613
-3.081014864
-5.259703588
-6.978075665
-8.823890461
-10.24712805
-11.12558689
-11.90153925
-12.89975272
-13.70586225
-14.08471031
-14.45657399
-14.92939764
-15.31055204
-15.41537895
-15.6034986
-15.86028029
-16.01947266
-15.9082796
-15.73767593
-15.66051422
-15.59951966
-15.50390837
-15.35849706
-15.36544953
-15.41615337
-15.43619242
-15.17160796
-14.88300421
-14.69247473
-14.57391759
-14.42849488
-14.13934923
-13.94768928
-13.89962653
-13.89685951
-13.65539453
-13.50986774
-13.63752029
-13.73581122
-13.57343035
-13.34322636
-13.35110867
-13.32930984
-13.16725152
-12.95491293
-13.08054769
-13.02259443
-12.84331438
-12.79309552
-13.01033543
-13.02330121
-13.14594647
-13.30265056
-13.39367609
-13.45954862
-13.66336989
-13.89192676
-14.18821231
-14.56333983
-15.05947497
-15.62918512
-16.39903307
-17.4046293
-17.54152735
-17.18462648
-18.71537198
-20.25863813
-20.36042687
-21.33919282
-22.9020792
-24.62728983
-25.45787053
-28.14046951
-31.08733558
-33.34095218
-36.4316252
-40.50628105
-45.32413598
-49.42332387
-54.66877648
-60.43820938
-68.63157683
-77.30825827
-82.4872664
-68.58060117
-44.31410348
-28.88811208
-15.22188301
)


100
(
79.34793224
71.95987993
67.31148059
53.52661278
42.55633626
33.00494376
25.71829486
19.20739145
14.00157593
9.476327414
5.576295944
2.498017001
-0.3813739993
-3.037582697
-4.959631239
-6.463316737
-8.042661483
-9.41959943
-10.28681347
-10.957091
-11.97306034
-12.84876419
-13.3498893
-13.7316332
-14.33323985
-14.86055457
-15.12162895
-15.29212101
-15.67484572
-16.06586893
-16.28094224
-16.20927691
-16.258547
-16.43615537
-16.66302799
-16.58961217
-16.60967629
-16.90832241
-17.3859934
-17.34520655
-17.14252404
-17.05113471
-17.33338562
-17.45728092
-17.30813716
-17.13625216
-17.53616572
-17.77349991
-17.58984305
-17.49890276
-18.00114044
-18.33279576
-18.30433686
-18.22618603
-18.48786454
-18.70277522
-18.74618841
-18.94819848
-19.30461678
-19.56582431
-19.70181404
-19.91845225
-20.23191772
-20.43502596
-20.66196522
-21.0498185
-21.60875203
-22.35696904
-23.02630019
-23.64704459
-24.51033705
-25.55299392
-26.39291354
-26.44501551
-26.99099238
-29.33118738
-30.65508279
-31.48189614
-33.26866225
-35.02470608
-38.04896751
-40.77266843
-41.70888932
-44.27065435
-47.9066567
-51.85689271
-57.32686292
-61.06508577
-65.34334938
-64.56062934
-72.46095277
-82.68144615
-87.0187834
-98.86869689
-105.2038414
-95.32421828
-65.00923572
-57.07895957
-47.98513826
-30.83084486
)


100
(
78.29131483
76.46611737
68.94995019
54.55400388
43.18627147
34.86969149
27.10656599
21.29569686
15.85186171
11.60985332
7.813018548
4.426442109
1.75416132
-0.7374481742
-3.068913766
-4.774613215
-6.117160502
-7.625486858
-9.003871812
-9.927020182
-10.64569501
-11.65255326
-12.61955198
-13.32207465
-13.79643858
-14.48162485
-15.13908752
-15.49087096
-15.63317183
-16.0395345
-16.69871441
-17.22717049
-17.25252567
-17.2390514
-17.7286675
-18.29303007
-18.32869072
-18.24888282
-18.9453133
-19.82363754
-19.94712612
-19.77109604
-19.89317314
-20.56749088
-20.94765034
-20.85314787
-20.98349933
-21.7357388
-22.18332784
-22.10500625
-22.37133526
-23.10064904
-23.69265322
-24.0142776
-24.30070808
-24.88827616
-25.57724039
-26.20324136
-26.67050803
-27.0067708
-27.43930332
-27.83016232
-28.09214996
-28.48281815
-29.04940765
-29.75253761
-30.34831287
-31.08045293
-32.54667389
-34.01634398
-35.17377898
-35.69908989
-36.20959582
-36.82885787
-37.39640646
-38.07391048
-41.41774724
-44.09115137
-46.47962971
-46.72287009
-47.24549213
-49.77637383
-52.7145528
-54.81274247
-57.25713341
-58.2626796
-61.69940209
-61.57576927
-54.47954719
-59.1721547
-66.07825795
-60.70555088
-64.83629673
-61.96248461
-49.41976929
9.27999562
30.64343383
-25.91261511
-50.25774439
-43.83920257
)


100
(
67.62262481
80.2526646
70.06744333
55.28510041
44.65158036
36.42182645
28.82673434
23.10019206
17.95134263
13.41773996
9.851486576
6.472181932
3.579791614
1.22736576
-1.036822001
-3.144734742
-4.723312321
-5.993710779
-7.447281538
-8.86030017
-9.927018738
-10.70900446
-11.65933294
-12.71360744
-13.65412871
-14.27942057
-14.97978913
-15.70999541
-16.03030102
-16.11895677
-16.47250145
-17.54502776
-18.29452636
-18.33537683
-18.27326749
-19.19843469
-20.04978196
-20.16035491
-20.06976295
-21.2325339
-22.36706526
-22.62999182
-22.5119755
-23.05033932
-24.10914879
-24.7364663
-24.98563884
-25.39213129
-26.40547525
-27.10268577
-27.6329537
-28.21793722
-28.96982537
-29.4906779
-29.77027839
-30.03432586
-30.41582832
-31.04471519
-31.84367116
-32.54008896
-33.2161602
-33.86793729
-34.70408106
-35.36064598
-36.0237114
-37.15876971
-38.33255446
-38.74966991
-38.58552872
-38.47449323
-38.59805214
-39.21055832
-39.92562596
-40.26619352
-41.30204601
-42.26552848
-41.34604754
-39.33376506
-37.70398794
-38.83440275
-39.22126555
-37.37135307
-32.82889525
-27.30315936
-23.45455461
-19.57121958
-10.54970702
1.963508101
17.01692234
23.31276244
31.49334951
44.29206028
60.57739111
84.49277096
121.5246665
232.2750681
203.4622962
86.18015983
2.670053809
-49.7665909
)


100
(
79.8530623
83.32242402
70.87800033
56.35439235
46.3324936
37.52044592
30.71520201
24.54969153
19.91371826
15.40043982
11.7148751
8.524036688
5.487055503
2.9574976
0.8276096304
-1.257236632
-3.226628233
-4.767190237
-5.980333353
-7.328806091
-8.772667434
-9.974734168
-10.73514936
-11.49925583
-12.53868613
-13.67005462
-14.53089757
-15.4175848
-16.23874556
-16.47035576
-16.40283187
-16.85837709
-18.39795577
-19.26739801
-19.20936737
-19.36198019
-20.74059692
-21.84564841
-21.87380703
-22.16679024
-23.5991434
-24.96321686
-25.31025652
-25.59945364
-26.48952147
-27.90997705
-28.85596627
-29.53915739
-29.92858744
-30.62362699
-30.95754899
-31.38870453
-31.64397858
-31.79802603
-32.01695648
-32.29949086
-32.54770947
-32.84101787
-33.42079923
-34.44211504
-35.47634831
-36.55856856
-37.83280221
-38.30732664
-37.59147484
-36.28914221
-35.08546287
-33.9555365
-33.00489485
-32.42695229
-30.8875277
-29.25879286
-28.23095003
-25.03647374
-20.16518783
-14.05667856
-9.448348789
-6.78654737
-1.901135225
5.606338102
17.49239204
29.36291504
41.35755873
52.54282902
64.49429637
81.28530489
98.89049969
111.8094466
124.2231316
137.8915953
152.0186524
168.5086828
187.2662262
215.7059319
271.1373008
409.5040646
346.4895023
232.110046
125.0845774
-27.76568299
)


100
(
101.7087341
85.32498346
71.83799884
57.91903104
47.61672958
38.93933692
32.4504345
26.37320705
21.64445069
17.47703921
13.56524045
10.46769648
7.594181434
4.840432638
2.542170226
0.6016253034
-1.310551538
-3.205809105
-4.703085846
-5.789617385
-6.921283969
-8.292929639
-9.551588356
-10.22851093
-10.73825168
-11.72261697
-13.02061608
-14.29895834
-15.55772135
-16.53117946
-16.66012088
-16.33208391
-17.26095395
-19.14271428
-20.07452581
-19.9196515
-20.56099175
-22.33291741
-23.58398828
-23.80270176
-24.41515834
-25.89563508
-27.29607406
-27.8766335
-28.2716895
-28.99597547
-29.88696476
-30.60097318
-30.96429275
-30.73049742
-30.42030955
-30.32122038
-30.56003223
-30.91106322
-31.06759977
-30.97566136
-31.31985999
-31.23205006
-31.17355435
-31.37570469
-31.12814014
-30.04935747
-28.05303037
-25.71769735
-23.02676028
-19.97512733
-17.010231
-13.6651431
-9.458154981
-5.524458363
0.4629472469
8.822652476
19.19197969
29.78273354
36.69641797
44.15632758
55.70540027
68.68254551
83.18677577
97.12200925
111.106696
123.2581268
133.2839631
146.8784286
161.345793
174.0687356
182.3256013
191.9312222
200.8273874
211.938477
225.5501482
239.6972347
263.7796646
306.5524376
383.3701603
547.5223415
453.3484532
346.1124573
245.4931601
16.33855441
)


100
(
115.3705778
87.52388305
73.39412565
59.27468264
48.44690197
40.64870456
33.78981183
28.31667528
23.23722172
19.39497274
15.70402239
12.3400634
9.633704704
7.066406428
4.552725891
2.42869417
0.7115667348
-0.9601339794
-2.683196589
-4.123769977
-5.00446849
-5.826166146
-7.090777733
-8.41877951
-9.138624189
-9.522415566
-10.37071962
-11.83378581
-13.62936427
-15.40178823
-16.64727417
-16.53924598
-16.24535896
-17.64600627
-19.75418982
-20.57050524
-20.69257788
-21.65164643
-23.62907951
-24.83613839
-25.35700652
-25.68898895
-26.46854148
-26.89076776
-27.05847067
-26.77810881
-26.46676964
-26.37601074
-26.56139565
-26.83069657
-26.55613817
-25.61209587
-24.95569343
-24.67268823
-24.42212105
-24.17253084
-23.61810547
-21.65016807
-18.4261195
-13.83669162
-8.984176298
-4.610012143
0.09907670021
5.362198136
11.60401032
18.57480995
25.00455421
32.66774838
43.40782848
56.21136655
70.44620303
82.4508891
93.33426611
104.4268281
117.9472611
130.7813977
143.9983072
156.2080541
167.6952803
177.5646067
185.6399245
195.6675833
206.4878631
217.6653239
226.0274318
233.7754704
243.4958914
252.7532905
264.0692352
277.0723692
290.4945616
311.0519266
342.866398
398.0624761
509.7322812
681.9864811
545.4279544
449.3045497
332.6360513
48.2530627
)


100
(
117.6350321
89.67438398
74.77490241
60.24384427
49.68498622
42.19181606
35.24941134
30.10126859
25.19706172
21.08465272
17.75841923
14.51444462
11.64120071
9.26634215
7.017996297
4.767607762
2.872397487
1.4600773
0.1261812841
-1.429532052
-2.816377331
-3.544138065
-4.103729661
-5.303197066
-6.706459204
-7.641398445
-8.011547593
-8.631204741
-10.19311505
-12.38261593
-14.77267182
-16.21662469
-15.80550749
-16.03841029
-17.64281135
-19.73870625
-20.41447072
-20.65218234
-21.30657186
-22.5444424
-23.25904949
-23.22496996
-22.43705973
-21.53812355
-20.57549169
-20.06219887
-19.4972605
-18.38668767
-17.0673703
-16.37165492
-15.44519764
-14.62443909
-13.0825906
-10.86611117
-7.899698132
-3.941528837
2.152762078
7.772119899
14.62386563
22.858723
31.93560694
42.05044897
51.6969319
60.26959776
70.27424214
82.59310925
96.1039425
110.6151233
123.0951242
134.6335278
146.9191812
160.9960079
171.0424201
180.656276
192.3784824
203.389599
213.7186915
223.1188619
231.224276
240.5995126
250.8382146
261.0122519
268.855831
274.3874053
285.3648319
298.0525517
310.9255345
316.4300254
330.5794255
343.0343983
360.9319628
387.574446
435.6794069
500.1358969
690.0724289
803.7581487
632.9156648
548.3078346
415.1844179
159.0434104
)


100
(
110.7608465
91.46152977
75.73041641
60.87825416
51.19210372
43.33370388
37.00108178
31.51366331
27.19392253
22.96711035
19.63404158
16.71008868
13.89124714
11.47186941
9.489315308
7.657783134
5.737089714
4.106406946
3.00324635
1.98789534
0.5539374967
-0.8628878587
-1.596359453
-2.055348399
-3.077493227
-4.543981763
-5.755901275
-6.218566816
-6.647162613
-8.132950591
-10.44698765
-13.44303888
-15.07705151
-14.93858593
-15.01491282
-16.01726204
-17.07619303
-17.2873647
-16.73191177
-16.07968976
-15.53584833
-15.26985663
-14.71871533
-13.1257095
-10.6816777
-8.286894199
-6.154779697
-4.508829885
-2.567478656
0.3682581392
3.722996855
7.521029077
13.04434208
19.43251079
26.6567156
35.71681055
45.79481882
57.70458021
70.8144344
81.62716995
92.74682275
105.7331449
119.5486933
134.2490455
148.631907
160.6001481
171.6303689
183.0147483
195.8189997
203.7375522
211.391376
220.9834047
231.329866
242.4648887
253.7397661
265.4611573
276.6617801
285.5178161
294.3543459
303.5198544
311.826651
320.9850162
330.8898939
343.9386176
355.6515343
367.8093942
378.471976
389.745278
405.2094309
422.1502459
447.3847432
483.5542684
544.0678869
631.8506806
898.4237136
903.0907128
734.5099765
664.5923841
492.12959
225.3238069
)


100
(
114.7223528
92.77821907
76.20346959
62.16113517
52.48861604
44.44501363
38.65188545
33.16743224
28.99269762
25.11454266
21.55541032
18.81823575
16.30405212
13.96228357
11.99987498
10.46543126
9.079668897
7.47804712
6.063859551
5.170378215
4.3981115
3.025289899
1.574082512
0.6924063602
0.2832063347
-0.4681567368
-1.896940221
-3.299870298
-4.010515899
-4.417217521
-5.456809305
-7.621201744
-10.56458807
-11.59493622
-11.17679617
-10.28064555
-9.621414031
-8.71486578
-8.146387241
-6.710565769
-4.496390425
-2.108934216
0.04548416263
1.700523351
4.008415867
7.767981786
12.40083188
17.14779854
22.71483417
28.75033755
35.6643793
44.2698502
54.65163274
66.75107665
81.82506142
94.13481162
106.1781562
120.3317628
135.2539219
150.0105937
165.3409358
178.1118737
190.2348473
201.9159389
213.5065566
225.7163924
233.6593731
241.0295009
249.8869895
257.7569719
268.9469937
280.9452902
293.17158
304.8049074
315.0983039
323.6851921
334.3201986
345.9473321
355.5026917
365.0399139
378.9665976
393.9026917
402.4323927
411.062063
423.0319328
446.2737937
454.8423173
466.9200424
488.8472714
517.1218512
552.6870883
598.6150828
674.3781422
809.9117096
1101.992759
973.1635781
868.117012
801.3904219
580.7760544
321.745822
)


100
(
124.6395336
93.90454559
77.27696949
63.56246605
53.38690648
45.9285768
39.95085247
35.03106769
30.56946185
27.1957857
23.84898703
20.93676372
18.70551811
16.69730691
14.83222623
13.28169983
12.13766874
11.12072244
9.79148071
8.505143664
7.70112836
7.054730284
5.859059987
4.395756172
3.331882246
2.924592201
2.471522829
1.293100862
0.01555434404
-0.8992647902
-1.196457642
-1.459524133
-2.421656241
-3.3430884
-3.466611127
-2.479806204
-0.3561021273
2.498739258
5.409058617
7.904506832
10.26273203
13.85926793
18.60333048
23.16157115
28.24543424
33.19218527
39.50885912
47.83098065
58.11889368
69.83088001
84.22661666
97.32281192
110.0862684
124.1666783
140.8271722
157.2632534
173.9170995
186.0896186
199.2895873
212.8234724
225.3236204
237.3375746
248.0219867
255.885314
264.7150725
274.3826484
283.3753204
293.4316019
305.1548356
317.4145336
330.1155001
342.4348572
353.1358491
362.9946931
372.381232
383.945418
399.383437
414.7789064
426.4294574
436.7537123
450.1079646
460.761234
468.1877728
492.4214
516.096049
520.285448
524.9792881
554.4764784
591.1064339
624.9023714
666.933281
732.9060869
832.9634017
1010.525997
1303.277157
1064.523509
1006.474835
949.0276081
668.5624962
138.8525119
)


100
(
128.7277499
95.06069392
78.50223541
64.52214347
54.33194346
47.40269846
41.18566241
36.73813977
32.45403934
28.97474918
26.14801177
23.41272055
21.14114969
19.41112361
17.90346489
16.45808061
15.20374296
14.32806695
13.59756821
12.50304979
11.2960794
10.4936621
9.987094271
9.091335062
7.755358867
6.559435195
6.083856925
5.886640065
5.42944809
4.739993895
4.2194971
4.276248414
5.134305804
6.49832968
8.048259497
10.08774002
12.09750021
15.61928274
20.49879948
26.02787825
31.44980879
36.43202115
41.93605375
49.60378384
58.40497349
68.26759315
80.15555928
92.63663976
105.7340096
120.9892123
137.5327737
155.7339051
173.6768611
186.4849547
199.3995118
214.3945451
229.1656738
242.1571155
255.4113935
264.566238
273.6146457
283.2187153
293.5887733
304.5799652
311.7975975
320.9376793
333.0876117
346.7487685
361.0595562
374.6629151
387.7963706
401.4190319
415.4648616
428.6282362
440.4030738
452.9519853
467.4279914
481.5730508
494.0871691
507.8185522
524.3420961
540.2196049
560.4263263
582.6851253
588.2091312
597.2884308
631.4735779
667.2881164
703.7569973
743.0270642
790.3144061
879.7635126
989.671567
1215.425876
1473.597421
1168.673241
1163.143608
1113.352967
801.8247111
621.2335029
)


100
(
130.3345104
96.23298574
79.32869864
65.14618013
55.61500247
48.55751216
42.74138845
38.05673363
34.3847444
30.84372944
28.18457045
25.92293838
23.80449653
22.105242
20.84671866
19.78666957
18.67433659
17.60837908
16.91109364
16.41691847
15.57574409
14.45838306
13.65636691
13.30545675
12.84073291
11.78758661
10.81669434
10.36105657
10.63487542
11.30381169
12.03958709
13.23497588
14.35230824
16.73477275
20.39345664
25.01021564
29.86537026
34.28555602
39.33866626
46.48070576
55.27038788
64.50575605
74.90123529
85.27608466
97.36003681
111.3346
127.1623436
144.2128403
164.2628818
179.7558908
194.7668111
210.7929396
227.3249135
241.3232241
254.0234858
265.2218101
276.3681265
288.4380769
299.5432581
310.9148763
319.8753426
326.0781386
336.404683
347.9183157
358.9543137
374.1252042
389.9168565
405.3076537
420.1709486
434.4936965
447.7866246
460.5484612
476.6768579
491.3533411
504.4165036
518.5174234
539.5496764
560.9684465
574.470989
585.1848578
604.374607
626.7840789
656.5339127
669.1361107
680.6193534
711.6405818
753.6485714
794.5947005
839.9743366
885.1700686
940.8048437
1066.647415
1174.191041
1430.498343
1637.419632
1274.313076
1330.596742
1305.992586
946.6356438
911.9087607
)


100
(
129.6814649
97.15589914
79.85513876
65.98707312
56.84496312
49.45237158
44.25721722
39.48234218
36.05626114
32.91852876
30.15259431
28.21329263
26.48800384
24.93684783
23.70223814
22.83523146
22.15130114
21.32991117
20.40413361
19.84511224
19.58486164
19.08048899
18.17500778
17.39821494
17.23556014
17.25138539
17.04558332
16.96324909
17.06696492
18.20054378
20.51652285
23.74367425
27.41250274
30.97181405
34.95660326
40.87884795
48.59160964
56.82423822
65.76288615
74.17979954
84.37221439
97.26248924
111.9933576
128.0413668
146.2594946
163.3499447
180.0251385
197.8330521
216.7614001
234.6982974
250.5146664
261.6058056
273.7028613
286.6713971
299.4965262
310.5635054
322.5171429
331.3458654
341.1038347
352.8057513
362.9639061
373.8482008
383.5272978
396.4361791
412.3530484
430.076934
447.8046283
463.5639592
478.1681459
492.7287059
508.3316098
527.7733278
545.7419528
560.9209871
576.890449
596.1106953
621.628035
638.2105682
648.74452
669.676701
706.3010614
736.2476905
747.8095663
757.4948552
787.1668763
841.7937482
888.3828831
933.8629266
989.9000516
1051.120517
1143.692459
1259.547101
1392.77064
1692.650467
1770.981014
1403.291171
1507.699304
1496.627369
1078.906871
1080.980748
)


100
(
132.0953129
97.73061847
80.31053856
67.02276872
57.75277399
50.68421079
45.44345751
41.1213051
37.45067421
34.86065036
32.38582977
30.32738115
28.97516534
27.76905068
26.68266538
25.78465225
25.23267424
24.89126881
24.36021405
23.60082339
23.17198748
23.17492198
23.12177825
22.58108237
22.1879597
22.36265322
23.17918837
24.44194826
25.89537688
27.95886824
30.51398698
34.88838653
40.80774494
47.72806773
55.06602852
61.44502695
69.74507226
80.87733437
93.63754291
107.3987135
123.2519229
138.4937062
155.3462874
174.010991
193.7660996
214.9028658
235.6232033
249.966399
264.0950613
279.4879394
293.8263183
305.8583194
318.2406665
329.4224884
340.8915423
352.5723286
365.3507588
377.3665584
386.1664682
394.0832687
406.7499616
421.7946567
436.5935535
454.5440959
473.4087535
491.7108058
508.7390604
525.2000349
540.8951478
557.1760761
577.0269321
598.2971955
615.9898726
633.0441644
654.410474
684.733924
710.2391479
721.3825912
740.0078865
779.5139804
813.9850989
835.9825624
843.7693407
879.0682313
934.1293138
990.442016
1040.628523
1100.685381
1170.544628
1244.397021
1354.51409
1464.760658
1631.247494
1956.295681
1916.623741
1531.14943
1718.39053
1686.166527
1237.618896
1945.944397
)


100
(
133.9837447
98.49485398
81.13899458
67.86693272
58.3715661
51.95361171
46.43572499
42.61889627
39.07548383
36.42470994
34.52603011
32.69491449
31.24791318
30.36253168
29.61675849
28.90402891
28.26170198
27.98605924
27.98903672
27.74529332
27.22611442
26.98472948
27.31214817
27.8080654
28.17918108
28.80541715
29.74979908
31.83198665
35.06187918
39.17236592
44.35686944
49.1160376
55.60314055
64.29169689
75.0569491
86.12505956
98.0549947
109.5908842
124.7957155
142.4624847
162.1387924
182.4554439
204.7094124
222.4206991
240.4019517
258.7016961
278.0263587
293.7206536
307.0527696
317.7246874
330.6338699
344.7593381
358.3454606
371.6275385
384.0012807
393.4996309
404.4084357
418.1087587
429.9064453
442.7761691
457.7438584
475.7937376
495.127561
515.0532376
535.9011163
554.3253655
571.7607838
589.2826357
608.4666602
631.241897
653.2527484
673.0638883
693.3451166
717.8052757
747.1439406
777.4544328
796.8198003
813.9093591
854.5716465
904.1093302
923.4108217
943.6595098
970.9645956
1032.361415
1098.308315
1159.753555
1223.613978
1301.446777
1384.76518
1475.98658
1601.653819
1727.414828
1898.488589
2194.761025
2029.303647
1686.240105
1970.182762
1871.381124
1381.707287
2774.885305
)


100
(
133.4165976
99.03343375
81.86599906
68.43943797
59.30749161
52.98048986
47.70413206
43.72828901
40.72373764
38.03669557
36.26704686
34.96080212
33.68533487
32.72993316
32.23160361
31.87815394
31.51179353
31.10469336
31.07534067
31.33094715
31.60968721
31.53841346
31.66322454
32.45732113
33.86203375
35.72246008
37.94792206
40.85229656
44.6761392
50.30309994
57.62585874
65.96549068
74.83223136
83.82900521
95.60744026
110.3269282
126.4715463
143.8562925
162.0927982
181.1270306
201.6609443
223.3013398
245.1991029
266.8635115
283.8669281
296.9727709
311.2172228
326.6375098
341.196881
354.3842277
368.8083748
381.4231961
394.3355237
407.7042695
422.1651938
435.8060208
445.6571757
458.3402728
474.9622639
493.8747556
513.2008818
534.1992573
555.7350325
577.885883
599.020033
619.4934162
639.1872761
660.0723954
682.5758476
707.7943106
730.9621015
753.6342617
780.1153832
813.4115922
846.7770975
872.0576246
894.8480607
935.1876492
989.3000331
1019.483108
1036.443979
1071.283171
1135.732036
1212.540845
1282.990858
1353.341283
1429.489916
1518.554765
1608.681294
1724.735536
1859.658623
1998.918967
2168.15642
2430.481409
2134.259101
1851.979356
2246.470099
2081.141334
1567.335732
3759.621059
)


100
(
135.3221237
99.58890158
82.32750585
68.95572198
60.32371319
53.63694032
48.95280258
44.87836682
42.09411181
39.76640665
37.85220442
36.78178783
35.98023444
35.17767789
34.59859554
34.45122933
34.46639742
34.45136479
34.30991252
34.54922208
35.25136975
35.99138134
36.69792068
37.73272797
39.34903293
42.08381587
45.93246555
50.74363493
56.73409173
62.70028265
70.88818277
81.38302255
93.76336523
107.1741245
121.0486031
136.4081253
155.3441269
176.2864001
198.2644346
221.0378168
242.4003615
261.3826396
280.399773
299.3873687
316.9416693
331.14427
342.6211188
355.35099
370.701515
387.068984
402.6824304
418.5578257
430.6451551
441.1783857
455.3536227
471.7952549
486.8124448
504.1764801
524.3544389
546.2930008
568.4743544
591.1588201
615.0030376
638.4370958
660.7632286
683.0027719
706.7884406
732.3559292
759.6910737
786.5334729
813.817098
845.2578076
879.2925869
913.8789901
944.098068
971.7190173
1011.210833
1073.298509
1116.840285
1129.509486
1169.609128
1233.342519
1320.238948
1404.596615
1486.116968
1566.810622
1651.217434
1749.275493
1852.19091
1987.973815
2131.471094
2276.159217
2447.889236
2604.894618
2209.962971
2021.916271
2525.174463
2313.395043
1676.58902
3314.461344
)


100
(
136.0377162
99.76411609
82.58142874
69.70945212
61.08231056
54.55793301
49.94268535
46.2038275
43.21170539
41.32880503
39.60854717
38.3348724
37.80371059
37.43505472
37.04447344
36.78947058
36.96477182
37.35309754
37.7336371
38.0252699
38.53710703
39.67496311
41.27614693
43.27565862
45.77384427
48.97944261
53.49040579
59.74675386
67.69781518
76.86666429
86.55801808
97.50368606
111.4753903
128.2222445
146.5352247
166.8547709
186.981639
208.6384168
231.2205579
254.0075707
276.470852
297.1248305
311.8595475
325.8866929
341.4513017
357.2237216
371.7029539
386.7267407
401.6934017
416.1537328
431.6887335
447.7174118
463.2266454
477.1305903
488.102224
505.4472912
526.6244728
549.9504887
574.0898859
598.7171791
623.0752759
648.0971382
672.4395988
697.2599655
721.9867155
747.872146
774.8264237
804.0433413
835.161695
865.6033324
900.1010889
937.6022969
977.1485984
1010.783728
1042.842233
1089.988044
1150.009139
1201.686873
1226.064601
1254.429764
1329.250611
1420.604175
1514.042722
1601.693262
1691.346314
1783.96363
1882.412685
1992.663129
2110.193895
2262.091966
2403.821469
2554.956969
2701.112066
2758.742897
2299.001392
2191.821288
2801.846288
2588.852098
1967.55468
5800.93257
)


100
(
134.7308219
99.91980481
83.11723454
70.42579704
61.59278796
55.56697976
50.69002073
47.36719689
44.51299921
42.4736365
41.23499473
40.07791044
39.32266594
39.20469115
39.22579531
39.21087817
39.27920782
39.70781579
40.47991144
41.33053027
42.20277986
43.37385947
45.28322211
48.03706755
51.75394981
56.36924053
62.08572118
68.66544057
77.53499609
88.68908492
101.6883567
116.4009079
131.1572593
148.9069289
169.914847
192.9191668
216.6979279
241.4791709
262.1941647
282.4168149
302.1566359
321.5837115
337.7467182
351.6444485
363.6576812
378.7357253
396.1598919
414.191501
430.1992321
447.1194989
459.8163655
473.1685269
490.1829242
507.7223315
524.969031
544.7765052
568.3153512
593.8140027
619.8504646
646.7404144
673.9941498
701.4468836
727.9982781
755.1098608
783.8567082
813.8017294
844.693577
875.1056023
908.1895275
946.8296032
989.3096155
1029.759775
1068.524104
1103.710017
1150.134303
1215.089833
1277.83571
1310.93466
1343.239707
1413.134977
1509.50285
1611.306679
1708.156882
1807.464619
1908.161244
2006.163598
2115.750284
2235.521002
2363.255898
2522.052119
2649.408712
2804.39189
2912.438803
2837.452363
2378.675998
2360.354709
3068.133774
2877.296442
2150.58237
4500.077321
)


100
(
132.4089399
99.93811168
83.63752801
70.93795156
62.28219824
56.36781412
51.6342049
48.20776639
45.75644584
43.7049652
42.4563549
41.71406527
41.01663523
40.68275058
40.88049096
41.26144939
41.60663695
42.02746725
42.74091803
43.94809956
45.45204935
47.2789954
49.58180605
52.55311755
56.86824258
62.65024439
69.91698651
78.69799508
88.0799522
99.74747744
114.3974012
131.7246679
150.7804367
172.1303758
193.2276913
216.7979734
240.9158771
264.9995497
287.9651801
307.5845663
322.9796786
338.6283234
355.1141897
370.7342871
384.9778952
400.6132424
417.1095277
434.8747826
452.7143782
471.160847
487.4345436
501.4877264
515.1618689
535.8278705
560.0089246
584.974464