/*--------------------------------*- C++ -*----------------------------------*\
| =========                 |                                                 |
| \\      /  F ield         | OpenFOAM: The Open Source CFD Toolbox           |
|  \\    /   O peration     | Version:  2.3.1                                 |
|   \\  /    A nd           | Web:      www.OpenFOAM.org                      |
|    \\/     M anipulation  |                                                 |
\*---------------------------------------------------------------------------*/
FoamFile
{
    version     2.0;
    format      ascii;
    class       dictionary;
    location    "constant";
    object      la_r10;
}
// * * * * * * * * * * * * * * * * * * * * * * * * * * * * * * * * * * * * * //

la_r10_table
100
(

100
(
260.8934147
294.6477377
343.8273509
379.2954472
406.8770578
427.9041165
442.3838096
453.0422585
460.5492191
467.1130558
470.8309425
473.6439508
472.8457328
469.6760961
467.225103
461.0777465
452.4084887
446.9564422
438.8737907
428.6069324
421.4175063
414.1083848
405.0500659
395.7674038
388.4238656
379.5160442
369.1142205
360.0871404
353.2637923
345.0437839
335.5804918
327.135154
318.77866
309.3342602
298.8653477
289.3968219
282.762651
274.981329
266.1816475
257.7605487
251.0321944
243.3547432
234.8043951
226.3114631
218.6199383
210.2306387
201.2635505
192.0514044
185.8607183
179.0638415
171.8096974
164.6323648
158.8722984
152.6916211
146.1360455
139.6974738
133.4979255
127.0111952
120.3542002
114.1881027
108.7484616
103.0329836
97.15987346
91.80303358
86.87077127
81.77122558
76.58971503
72.07440097
67.59440357
63.05722729
58.73545035
54.74252218
50.73697122
46.82545232
43.25511576
39.71677025
36.30040071
33.11476698
30.02317433
27.09345658
24.32149143
21.69292856
19.22085841
16.91069017
14.74393624
12.75182095
10.89677294
9.218556134
7.674813982
6.277364638
5.032167212
3.940415303
3.005105265
2.199779078
1.541861276
1.018635741
0.630085483
0.330851117
0.1109326487
-6.183824888e-12
)


100
(
256.0434803
285.4287864
326.7374056
356.726093
381.3214951
400.9395901
408.796493
420.8982034
423.6587363
429.8897807
433.1430055
431.6299143
432.2308479
427.2845923
421.0398171
416.8783822
408.8713291
397.268154
391.4949962
383.2880561
372.058919
363.9951538
357.1404977
348.3506956
337.2919458
330.6817924
322.631185
313.061058
302.029505
295.7467185
288.5064133
279.9857976
270.3932416
263.3539986
255.3672711
246.5193422
236.8798529
228.8419153
222.2325444
214.8710124
206.781277
198.990966
192.6936338
185.8005428
178.3497065
170.6773963
164.1866559
157.3543012
150.2323246
142.9876483
136.781642
131.4239715
125.861244
120.1156822
114.8121764
110.0278042
105.0497368
100.0363901
95.72875427
92.99664787
91.66030967
86.0747494
79.13237458
76.02664771
74.58031743
69.47451416
63.66597126
62.19699634
59.90502536
55.01021643
51.15116496
50.05616385
46.8526393
42.38502447
42.1137802
40.30969707
35.49884218
34.72765517
33.14500685
28.9959719
28.6981854
26.24801006
24.24614185
24.06715676
20.62299734
20.47413216
18.49709346
17.60138082
16.81558821
15.82939091
15.36874457
14.92875425
14.65641001
14.34471806
14.24967887
14.0020029
13.70872507
12.6208309
6.728118894
2.857945323
)


100
(
247.1807418
272.6410494
308.9793051
334.3125239
359.0063483
373.5961309
383.1012375
388.3665178
392.8133444
392.2204435
396.3383191
392.8295861
391.1843533
387.9321893
379.3951148
372.7540265
366.660441
357.0227008
345.4613022
339.1730556
330.7806287
320.5573483
311.7825195
305.0635596
296.7952614
287.1807882
279.4096043
272.0512535
263.6509917
254.3849905
246.3703304
239.9184848
232.6954143
224.779758
217.0149278
210.2923919
202.9608882
195.146223
187.0186548
180.1734762
174.165101
167.7902779
161.121858
154.4544679
149.0682214
143.3365391
137.34772
131.3201815
125.8039422
120.4353892
115.0320045
109.8857635
105.1987193
101.3707111
97.58906679
93.83506279
89.902039
86.59588847
83.31552033
80.55647947
79.18000312
79.28027007
76.46004149
71.72530076
68.01563393
66.17281558
63.12192456
59.44717458
56.89383256
54.33237384
51.29202842
48.17285473
46.11609841
43.77211337
41.64780505
40.87082411
40.65443496
38.11244551
35.71592365
35.06858615
33.08113484
31.90908029
31.08079801
30.15796364
29.27977902
28.69012213
28.16140768
27.7212929
27.53233479
27.39429122
27.20382555
27.26043496
27.49331474
27.4051829
27.74753908
27.87030853
26.94047216
22.11290425
15.20300622
9.281374367
)


100
(
233.4540914
260.9499548
291.1902632
316.7541516
336.2175969
345.33007
356.1157773
355.9718372
361.1783616
359.8394132
359.8479398
358.6400503
351.9326532
349.5759697
343.5196526
333.8059461
326.7632634
319.5179209
309.9818505
298.8180874
292.4721039
284.6588597
275.628622
266.5158875
260.1909174
252.7909132
244.5361805
236.3388839
229.8948263
222.7197632
214.9790836
206.8749188
200.8495682
194.8462349
188.4004769
181.6440692
175.3815931
169.4833845
163.2132615
156.7877246
150.4255503
144.977188
140.2647192
135.5282229
130.8192427
125.9486507
121.95066
117.885815
113.8445422
109.3893837
105.7262502
102.0626732
98.50189161
94.77567417
91.54063004
88.52025048
85.4994185
82.19575677
79.23665558
76.4724667
73.77082731
71.61773854
70.49018891
68.3416063
65.29904362
62.16182554
59.90078456
57.50099812
55.06114472
53.05737914
51.34337718
49.72549024
48.17065003
46.82222018
45.59188732
44.12191254
42.62695458
41.84510788
41.18290646
39.88177276
39.04555552
38.49968645
37.97656767
37.20678883
37.0910576
36.94580525
36.55990719
36.30468415
36.2881657
36.25899019
36.42496137
36.59177258
36.79240689
37.46838237
37.67935264
37.26497131
34.90498797
28.03478775
21.61059368
15.88257575
)


100
(
219.8632728
252.4361064
277.762541
298.5253087
312.8883051
322.9773417
328.9374631
330.7826645
330.0857447
330.7496831
325.8769464
325.6170612
321.2931377
314.0362633
309.8089895
302.5270493
292.7788631
285.4730287
278.1370798
269.3736017
259.517211
252.878328
245.8850235
238.0479738
229.4935052
223.3162685
216.8834115
209.9408333
202.6474537
196.6238992
190.709579
184.4089857
177.9075732
171.7146116
167.0073915
162.0868309
157.0714001
151.5215558
147.1214561
142.5171577
137.8967409
133.2116867
128.6046769
124.8344204
121.1232205
117.225328
112.854145
109.5248751
106.2709677
102.8802099
99.18391945
96.07291881
93.15301086
90.18558626
87.13986584
84.38218659
81.83964295
79.18627533
76.54758392
74.07843735
71.77065109
69.46866721
67.25121816
65.32380474
63.53528401
61.74730939
60.03329752
58.47650647
56.88051
55.37039948
53.98329769
52.65719861
51.20131201
49.57884674
48.30288006
47.59907713
46.66010098
45.66556556
44.99371594
44.42037407
44.13533642
43.65701492
42.83390515
42.57098216
42.45859862
42.44571776
42.76486117
42.55493239
42.20914371
41.97771994
43.17133098
43.83112664
43.95402988
44.88056867
44.73436602
42.18268771
36.90501934
29.72322523
24.43318345
20.79505823
)


100
(
217.9700811
242.7458671
263.8248183
280.3430652
290.3879313
300.8110188
302.3572485
305.8302759
302.6889876
302.789746
300.0994476
295.0178268
292.5395399
286.5543098
279.3836773
273.9795608
266.4741243
257.3087904
250.0870127
243.2831836
235.588512
227.1711967
220.5625641
214.5456445
207.9187098
200.7650661
194.4648026
189.0674907
183.6091762
178.0210727
172.4310309
167.8418796
163.028241
158.1204
152.6493014
148.7388008
144.7661301
140.7872284
135.5387783
131.8101414
128.0479916
124.3864294
120.2268003
116.4807266
113.3389678
110.3042771
106.6576083
102.9550784
100.1199482
97.353751
94.38173257
91.34806715
88.66941085
86.18815148
83.75293154
81.30863159
78.95877139
76.7083062
74.58952011
72.58889347
70.69640923
68.89103976
67.12131716
65.45457228
63.92436386
62.41221299
60.85668093
59.47045064
58.25982609
57.07306945
55.83843795
54.49112252
53.21496326
52.06841572
50.88863232
49.73536369
49.36490995
48.89997793
48.41252442
47.47496777
46.77816827
46.97563595
47.09800708
46.79945104
46.97615049
47.13145376
47.60488655
47.21281243
46.91951966
48.699923
49.59123731
49.87130811
50.90722963
51.00969114
49.42536866
42.55876165
33.2761859
24.94357422
22.89624578
22.88468014
)


100
(
222.4202854
233.0228589
250.0995723
262.1270984
272.8447404
279.1921096
281.2561904
281.8653614
280.7450742
276.6735546
275.7695335
271.0379793
266.3342472
262.2579992
255.5969067
248.6784457
242.9714797
235.8710394
227.7120745
220.8998349
214.9960747
208.4967226
201.5285906
195.2637565
190.2185501
184.6769993
178.7556259
173.5651503
169.1415064
164.6951936
159.9015344
154.7910834
150.9643789
147.0326031
142.7680249
138.073244
134.7671504
131.4604838
127.6589338
123.2199321
119.9218204
116.7518918
113.4844098
109.948175
106.788676
104.1453289
101.2212763
98.21642123
95.12465583
92.6627866
90.18035499
87.78327258
85.32193374
82.97859272
80.86928443
78.87983411
76.9594957
75.07741464
73.15476362
71.27251677
69.56616186
68.05647384
66.57752168
65.01935611
63.54814856
62.33483485
61.09350989
59.80498936
58.5153041
57.17861484
56.12205515
55.37448276
54.56331944
53.55363041
52.91074164
52.11594225
51.23915066
50.33535545
49.8354621
50.50303312
50.68084214
50.20810422
50.01904688
50.19975006
50.94575299
51.45815982
51.50977619
50.91369107
50.73224678
52.44548104
53.36151532
52.99445231
52.88210777
51.89385175
48.84718102
38.54311032
27.80587489
16.77444266
17.13029147
18.53601727
)


100
(
213.3158036
223.0656841
236.3439983
246.6490298
255.4704908
258.1992937
261.6843698
259.1205417
259.6364788
256.1582701
253.027629
250.1984327
244.4278561
240.0716163
235.2894904
228.6544527
222.1535788
216.6989475
210.454073
203.5298648
197.3074822
192.3052428
186.8703183
181.1309439
175.3320983
171.1087186
166.3819139
161.3044741
156.9799921
153.2475375
149.6073724
144.7987389
140.6302009
137.3419947
134.0769975
129.9511707
126.065633
123.2320569
120.3690725
116.7733191
113.0289774
110.1066621
107.3778484
104.4564705
101.5081653
98.79380093
96.3174397
93.8267027
91.35289438
88.78892612
86.46536775
84.35889236
82.35457128
80.42290046
78.47854721
76.49619868
74.62871308
72.96839057
71.46448011
69.91802499
68.24616878
66.69808061
65.39234188
64.0588435
62.65676639
61.38390123
60.02913136
58.67828395
57.88966105
57.38500553
56.50084541
55.63525447
55.04089173
54.20005979
53.59724266
52.80378311
52.5024134
53.34853836
53.39920769
52.67425524
52.0449972
51.89525643
52.05437985
52.05877752
52.15309983
52.03420004
51.90118102
51.99877605
52.15648313
52.79377631
52.98256623
52.87082692
52.40207117
50.59596077
45.75549228
32.35376635
22.21860079
12.87095864
13.28686459
2.830527101
)


100
(
198.2894457
214.4089156
224.4363826
232.7894949
238.4328015
241.0038033
242.6534192
241.4745016
239.4127412
237.723745
232.893134
230.46287
226.5964492
220.5407225
216.5208208
211.6739719
205.5342211
199.5568169
194.7626262
189.3307943
183.4946212
177.8104483
173.6253689
169.0984658
164.3802889
159.3532854
155.3279749
151.1465929
146.6258119
142.944079
139.7984225
136.5290177
132.06635
128.5759327
125.742237
122.6708104
119.0853165
115.7984121
113.3767792
110.5069158
107.4965083
104.3108344
101.7646268
99.23814635
96.84110546
94.33937753
91.84800321
89.580379
87.38241887
85.25869756
83.18415131
81.0867674
79.04116605
77.14285834
75.48023758
73.98759247
72.4133113
70.73951406
69.20649878
67.8846375
66.5253867
65.05372636
63.60284855
62.04269105
60.58993847
59.76863436
59.33624537
58.53940845
57.45352322
56.70352951
55.90974377
55.2366087
54.67098745
53.54657095
53.78437005
54.67988041
54.18000407
53.09350042
52.35180215
51.98348513
51.85961785
51.77810906
51.7697316
51.68811506
51.5786072
51.97359159
52.63574763
53.20659101
54.03942976
54.65055409
55.15169003
55.03884112
54.35080612
50.22337899
42.23381687
24.74944767
14.26616397
7.265912889
14.63912143
-31.80327651
)


100
(
188.6961745
207.7045655
214.0291874
219.2777527
221.7586634
225.1822616
224.1824682
224.4770453
220.9745719
219.8383314
216.8261026
211.7952505
209.4449244
205.218279
199.3937897
195.7145545
191.1465242
185.6981589
180.1941781
175.9837025
171.4006067
166.5489292
161.309513
157.6988921
153.8113054
149.8360106
145.562162
141.5518755
137.8316946
133.7935813
130.6712094
128.0709097
124.7376533
120.9706813
117.9886737
115.5770441
112.6003697
109.5963931
106.754128
104.4226546
101.8794231
99.35097333
96.59801584
94.15535866
91.94953819
89.83991625
87.7448375
85.53072203
83.26859348
81.15775222
79.17945519
77.48949856
75.87672803
74.12975787
72.33533064
70.78251609
69.40967825
68.04787825
66.60126564
65.15410988
63.61328281
62.16403821
61.29412477
60.71791364
59.69735825
58.40767294
57.69754398
57.12838502
56.135043
55.1860008
53.88990064
53.06900155
53.64812994
53.8149193
52.96118748
52.15930358
51.77651612
51.53975315
51.45911581
51.52155717
51.80875038
52.11165116
52.32693737
52.80772551
53.40790869
54.07630507
55.34583789
56.31349922
57.43232537
58.59906631
58.90910409
59.10856247
56.50855612
50.08753624
39.16039758
16.14674745
4.83323499
-1.162222777
11.02833848
-78.68324619
)


100
(
184.8624219
200.8899353
203.8927574
205.9436261
208.1092416
209.7001907
208.6856105
207.8613723
205.9786743
202.613962
201.0163496
197.3400301
193.0352204
190.2538504
186.0894765
180.5989644
177.1557102
173.0517524
168.3276257
163.292874
159.659735
155.7323235
151.6326904
147.1277697
143.5519847
140.1821537
136.7860279
133.1646102
129.3217647
125.9661788
122.3551347
119.7576631
117.3443378
114.3048732
111.110252
108.5414227
106.1241741
103.6351786
101.0492703
98.450465
96.11922933
93.89042396
91.71439608
89.41975751
86.99317411
84.79633828
82.75069647
80.91405274
79.17691404
77.28508511
75.2529024
73.44377159
71.90631684
70.57315185
69.20611145
67.61583271
65.84364331
64.10205396
62.67824507
61.88209379
61.28734735
60.16445789
58.78435692
57.99384301
57.45306939
56.31194052
54.97151203
53.56005
52.31749083
52.4853015
52.62667984
51.61099067
50.97058374
51.06579312
51.0035958
50.98298608
51.13969234
51.4843907
51.88866178
52.28469108
52.76795476
53.58263799
54.5155868
55.3999784
56.62749259
57.8091382
59.2157489
60.73756622
62.1832196
63.24634536
64.0426444
63.80313387
58.84511501
52.4748008
33.38051939
8.858642652
-5.037968839
-10.18342825
7.078768915
-124.3196946
)


100
(
186.2385354
194.1079212
194.0082306
193.4419253
195.3418503
194.6657743
194.6904139
191.8642492
191.2146985
188.3595719
185.7675977
183.4585038
179.5587012
175.8000243
172.8595667
168.9118948
163.872491
160.7170009
157.0734915
153.0133017
148.3365966
145.1656349
141.7540387
138.2252436
134.3855082
130.8423674
127.9316809
124.9778833
121.9260662
118.5694106
115.1955741
112.177409
110.0940712
107.4838096
104.9847185
102.1741028
99.75383187
97.44552871
95.31486493
93.06712539
90.60249258
88.24910825
86.02223135
83.93420282
82.03225423
80.01251052
77.86873286
75.91783963
74.24504451
72.76235108
71.33131764
69.69187325
67.87608504
66.06450448
64.38974031
63.13879331
62.29141974
61.17244194
59.49426459
57.98183328
57.25112657
56.73215429
55.70615064
54.21443281
52.63028564
51.50279034
51.45634821
51.48711993
50.39276601
49.50789491
49.72841934
49.79158216
49.72246438
49.93721282
50.26746683
50.70265695
51.19670827
51.97323692
52.91193668
53.81897165
54.81785549
56.13959903
57.72408222
59.31593204
60.88321419
62.65839554
64.5152715
66.87931888
68.31890731
69.78517032
70.50130836
69.54929973
63.32073177
54.08055679
24.70301038
1.510130968
-15.40580199
-17.26447984
2.723916519
-180.6414518
)


100
(
182.1247113
187.4227778
184.5333469
183.5170448
183.0846906
181.6003911
181.1178765
179.0427652
176.9653301
175.3865437
172.0231958
170.0343675
167.3573381
163.4132499
160.0419974
157.1825969
153.5745314
149.0045289
146.0061507
142.80547
139.2921689
135.2690453
132.1686872
129.2099632
126.161701
122.897623
119.4963575
116.8881596
114.29739
111.6722187
108.8364939
105.6830823
102.9672206
100.8510579
98.50267497
96.2975372
93.87800023
91.36500216
89.22850057
87.08719011
85.05651162
82.86360662
80.5027184
78.34351616
76.36885072
74.67845539
73.11460828
71.39756773
69.50883782
67.73576732
66.00627094
64.46367286
63.2105367
61.90861944
60.16170573
58.40165964
57.14561885
56.54858741
55.75408518
54.32134143
52.59862774
51.01685298
50.08488719
49.93977742
49.84311649
48.92875091
48.09258225
48.37756181
48.73795701
48.51631869
48.40716536
48.41229702
48.57327711
49.00530988
49.65810146
50.50040952
51.54102164
52.92852563
54.58617576
56.23508938
57.76530183
59.48989368
61.5555885
63.86050045
65.96781209
68.52759653
70.67019418
72.66733493
73.70863551
75.97317703
76.90454781
74.4192399
65.40460731
49.58488529
13.55528048
-7.905441299
-24.45503316
-22.13410274
-1.476658009
-219.0098828
)


100
(
175.5234728
181.7675767
176.9740963
173.9107917
171.3453723
170.3540238
168.12164
166.9835771
163.9694101
162.7805066
160.6770338
157.1179473
155.3976402
152.5955288
148.7872972
145.7256095
143.004379
139.7396463
135.6346728
132.758905
129.9937435
126.9511955
123.5094437
120.4568406
117.8900018
115.2272409
112.4623743
109.5022473
106.7893905
104.5211367
102.1835736
99.77927835
97.09364742
94.28949963
92.15146503
90.00508688
87.88765026
85.69479215
83.19415363
80.88732697
78.85081598
76.96836454
75.15922835
73.18484522
71.07534149
69.20060713
67.491816
65.91368866
64.3721163
62.66631002
60.74928171
58.81578561
57.17393858
56.24087637
55.52755468
54.14477231
52.29343916
50.70277705
49.56352894
48.70279625
48.15653881
47.57371934
46.54812152
45.78154346
46.09403905
46.48476282
46.20185051
46.00092724
46.27299689
46.7296281
47.10938077
47.45220095
47.94786068
48.83170812
49.95827897
51.2642836
52.52420833
54.03038907
56.23519738
58.50837567
60.64700353
63.18480032
65.93308352
68.5315152
71.11972882
73.74959323
75.8053065
77.53209068
79.86301114
81.65802255
82.1495549
75.26617639
64.11009324
42.09470551
-1.218352936
-15.94432789
-33.48461805
-27.660383
-8.694900869
-336.9356667
)


100
(
173.1280186
177.3295723
169.9171042
164.8086368
161.2365347
159.5211451
156.8925621
155.3099998
153.3345823
150.6135037
149.4093952
146.9606817
143.7419069
141.8024669
139.0411598
135.3859161
132.5488701
130.0194049
127.0687073
123.4986034
120.7243784
118.344386
115.714599
112.7733815
109.7216285
107.5198295
105.1449521
102.7407001
100.1874787
97.48294461
95.24982249
93.06219168
90.86722816
88.5615139
85.9786584
83.46974579
81.33397302
79.22675095
77.26055143
75.08750452
72.78316097
70.7739026
69.0201897
67.35850783
65.74613935
63.87282929
61.80210784
59.79713524
57.83744535
56.27697011
55.1131892
53.62989255
51.70386483
49.99772773
48.88756206
48.1330446
47.23510461
46.02521842
44.8573129
43.75908613
43.2936001
43.59881169
43.65866484
42.88433127
42.31996511
42.71055271
43.18093193
43.61983957
44.07646681
44.70843993
45.59516436
46.56800677
47.44650674
48.55981357
49.99841631
51.60329728
53.39578662
55.40064317
57.87756391
60.78136419
63.50022882
66.20282583
69.29783114
72.50536609
75.642667
77.81605099
80.19483381
82.30687088
83.81396117
85.65008069
83.44791369
78.37626559
61.18017465
32.86937378
-17.49899272
-24.63253883
-41.60534222
-34.13117026
-12.12408687
-331.7810421
)


100
(
170.7611123
172.9805491
163.3554383
156.1493523
152.4765177
149.1282717
147.0433694
144.0801955
142.7866318
140.4927476
138.3071938
136.6725064
134.0680186
131.0904105
129.0546794
126.4125749
122.9931955
120.299329
118.0173179
115.4022989
112.3505365
109.6172319
107.5634693
105.2602779
102.7673101
100.0517966
97.72645504
95.5711872
93.37308313
91.12251337
88.62818034
86.04304123
83.93847319
81.76562787
79.66010771
77.35832245
74.77134983
72.54085371
70.49959837
68.64883178
66.84819703
64.88464198
62.77781188
60.90136435
58.99093756
57.20624998
55.55963151
53.71682309
51.55214513
49.55930437
47.95410552
47.03882956
46.14045136
44.75423504
43.23234796
42.04086386
41.24879731
40.90950215
40.77003209
40.13434384
39.03214348
38.5114309
39.04458999
39.52434616
39.45076099
39.60111693
39.92821817
40.48235711
41.26157942
42.17189942
43.31203055
44.63580353
46.30953403
47.94619214
49.82328305
51.87072272
53.92840993
56.12110787
58.65149327
61.58173725
65.26622067
68.06610798
71.87120567
75.12972395
77.9952466
80.06375413
82.31387873
84.88908611
86.47154703
86.465432
83.06811388
76.50510455
54.52911667
18.51941191
-34.21016296
-35.36258038
-50.59661008
-40.88775514
-16.72907514
-403.9811714
)


100
(
168.943655
168.7273284
157.1051753
148.9975569
144.1035629
139.7444175
137.4563702
134.7305366
132.4856812
130.8582098
128.2813678
126.4055985
124.5283149
121.7987418
119.0258645
117.0010181
114.5486167
111.4244254
108.8272251
106.8151035
104.535801
101.9260571
99.16637647
97.40035555
95.32569796
93.15238984
90.73195031
88.1450541
86.14947644
84.02165349
81.87516924
79.57296731
76.89316601
74.52939837
72.39157462
70.388541
68.37514079
66.09528278
63.70571186
61.7376149
59.8400826
58.0284619
56.22201564
54.15606168
51.92808156
49.76375582
47.75998476
46.32280522
45.15749866
43.55585425
41.77203274
40.32717062
39.4153864
38.76740188
38.10120695
37.27092775
36.25213887
35.20911791
34.99514754
35.41754572
35.2767933
34.56129672
34.2450707
34.71126192
35.27251924
35.82316827
36.41008423
37.17224578
38.32112897
39.72137637
41.17699353
42.77261302
44.35323388
46.25557334
48.43031723
50.6248103
53.15684349
55.87290841
59.00623612
62.08645423
65.36531294
68.40236356
71.88477742
75.84745053
77.55250053
80.93410188
83.66816163
84.83549057
85.19422334
83.96185726
76.87866222
60.76742853
43.60843588
-4.355019733
-57.43860525
-48.17651961
-62.85707122
-50.01864309
-25.53501114
-527.0031421
)


100
(
166.9504832
164.6051068
151.515679
142.5626498
136.1393865
131.8861101
128.2431086
125.9070987
122.916799
121.2980005
119.3602582
116.4881398
114.8902093
112.8770797
110.1066115
107.5184143
105.584082
103.3117358
100.5624444
98.00382016
96.25598838
94.2297618
92.0046934
89.53758561
87.54492561
85.6233623
83.58418714
81.40458706
78.94530872
76.50332603
74.35751189
72.2074229
70.06049433
67.51579045
64.84135869
62.82838182
60.85414134
58.98430725
57.08644728
54.84744698
52.40224112
50.24745313
48.03596838
46.17826794
44.51915417
42.59164424
40.50150839
38.80424152
37.54775706
36.80714534
35.96801783
34.71114349
33.42851984
32.36816529
31.69012667
31.42348842
31.23873411
30.36466655
29.31541065
29.20593003
29.86088303
30.28967263
30.31987763
30.57953249
30.94500989
31.49712821
32.32635692
33.30734426
34.49886534
35.97893823
37.83682285
39.87544919
41.94596007
44.24937371
46.6269434
48.96384443
51.13135882
53.47886041
56.78718439
60.64852921
64.22083116
67.62623113
69.97176424
72.85635708
76.17028685
79.68286014
80.49744313
79.922421
78.16760725
75.90115005
64.49531402
45.70994713
23.17958697
-38.47490498
-83.39903346
-66.87787036
-77.32172561
-61.37815414
-32.769868
-581.8631617
)


100
(
166.3964437
161.4309917
146.9780671
136.5578597
128.8669986
124.3281658
120.0958061
117.3578837
114.8285551
111.9887669
110.4090918
108.2657023
105.3437107
103.7643261
101.7323111
99.04546599
96.57118645
94.77124243
92.6879918
90.31561075
87.76201653
86.19562564
84.32959821
82.34348583
80.08296776
77.7121732
75.8924181
73.88827883
71.77946004
69.38850007
66.51396109
64.34874385
62.15830509
60.09868173
57.83771743
55.3217447
52.96319526
51.09477102
49.04471431
47.00821709
44.86374793
42.35320662
39.75466639
37.58427574
35.89082523
34.8359622
33.85216068
32.40653295
30.89498206
29.65962718
28.69975207
27.95114275
27.31081847
26.44018042
25.25503373
24.32227859
24.36097704
24.74206978
24.40911538
23.82051081
23.75580465
24.32334706
24.87731123
25.34447666
25.91980228
26.67726502
27.84362346
29.22771966
30.70106311
32.26945814
33.81636967
35.65479986
37.76238038
40.03603909
42.47842248
45.28198704
47.89904198
50.30924482
53.00623846
56.52715759
59.45432831
63.0397396
65.10844781
67.20160375
69.69856751
70.69881324
70.20703503
68.23737056
65.9481416
59.61083104
45.32269089
23.57285856
-9.550064025
-77.93378381
-117.8578447
-88.38434878
-95.02066265
-76.26266842
-45.13296312
-700.3230707
)


100
(
167.3281261
158.841208
142.7592109
130.9415495
123.0284803
117.205552
113.0687724
109.2152897
106.869497
104.2304515
101.6587989
99.81804663
97.54412071
94.72822233
93.07395602
91.11079884
88.5735887
86.14264969
84.50284909
82.66919233
80.5277965
78.15991284
76.38454322
74.59544107
72.66549372
70.55136826
68.163207
65.88305496
63.79464623
61.65038819
59.36470501
56.55231711
53.94475494
51.85933882
49.79535389
47.66941496
45.42527354
42.8997857
40.48925773
38.10589652
35.85916598
33.87046419
32.00285523
29.97502887
28.21482225
26.88428819
26.08284144
25.40354917
24.37446238
22.83658282
21.29615575
20.02643163
19.31244147
19.24740464
18.97811622
17.98271591
17.06179405
17.09151058
17.51031626
17.72082525
17.80852518
18.07163406
18.53467953
19.12462209
19.79949699
20.6759782
21.77014618
23.2207138
24.71367506
26.45499999
28.37857846
30.39804393
32.43984494
34.65628403
36.82460966
38.82452306
41.06938242
43.28562346
46.09857079
49.72582061
52.49368831
53.63928523
55.28152268
57.29865424
57.65150183
55.01547918
52.89085541
48.78752153
44.39111154
33.94555006
16.27641171
-13.91402854
-50.49424471
-139.8556701
-156.5638187
-115.9383544
-117.8938916
-95.63949474
-58.2553474
-844.9919469
)


100
(
163.496038
156.1514922
138.8772057
125.9953218
117.5215927
110.654345
106.3701211
102.4295085
99.23593978
96.77888939
93.97359934
91.55888709
89.5574786
87.16731508
84.50632698
82.849006
80.94218836
78.62811103
76.19205044
74.66246705
72.84008245
70.92619225
68.74145864
66.56806362
64.77462112
62.83587319
60.7228361
58.23882563
55.39008907
53.31890546
51.09528419
48.85667429
46.27188955
43.5436003
41.22994598
39.06622753
36.75534292
34.42524924
31.93890571
29.33438482
26.9265263
24.88663394
23.49246116
22.51598288
21.36104404
19.88631448
18.41578687
17.11701931
15.96262196
14.9518012
13.86818726
12.46627073
11.07462806
10.35361624
10.62351041
10.83500391
10.21944366
9.494835198
9.299717855
9.527040824
9.753472119
9.973336674
10.40794964
11.13000732
12.11391924
13.25516468
14.57455833
15.90622797
17.1724399
18.44692317
20.03086514
21.87535032
23.55001925
25.57870717
28.04909327
30.03526075
31.42225959
32.98723567
34.62443387
36.77375025
39.56060281
39.45664571
39.74770274
39.49961994
35.92678838
31.89615583
27.37395873
21.7361408
13.78574317
-2.10774562
-26.12353716
-62.37675737
-106.5358385
-203.2021806
-202.6131337
-149.8688974
-146.429443
-121.0315446
-83.40255902
-1120.396108
)


100
(
160.773915
153.635065
135.2896365
122.0109543
112.4381671
105.4630735
100.1145456
96.15903154
92.35814983
89.57672641
86.99396143
83.99401102
81.73647217
79.66440746
77.25662953
74.6753281
73.05018468
71.18987143
69.06223759
66.73541626
65.04441342
63.27932947
61.36955339
59.21550099
56.82484832
54.70377056
52.58625402
50.36989738
47.88159652
44.89973877
42.39908826
40.17986443
37.91184711
35.48822023
32.83714462
29.9987704
27.46371255
24.8560613
22.6286185
20.67862381
18.73441007
16.92110825
15.48364569
14.32119146
13.45764958
12.39704963
10.75300939
8.783231259
7.024879754
5.543900378
4.652785977
4.203763611
3.3092944
2.036642915
1.226124844
1.228456448
1.229001651
0.9357430397
0.5644965701
0.4169723748
0.4921537057
0.6602145939
0.9034714363
1.422789896
2.140459408
3.159702013
4.061205243
5.260684425
6.684542364
7.837934064
9.016426657
10.59815781
12.15282631
13.16986977
14.3853654
15.56047683
16.25862658
17.98968861
19.86217743
20.09532359
19.84255071
18.66689248
17.00333894
12.26735727
5.57503338
-0.1420959829
-7.438537272
-16.46475101
-27.03478082
-48.63072292
-76.46353209
-119.388797
-171.5263128
-280.0441279
-252.3370591
-190.1467058
-182.0401254
-151.2485696
-98.95824443
-1107.336006
)


100
(
161.8173076
151.3352036
132.4974997
118.3353811
107.7810784
100.5685515
94.58541413
90.27553203
86.50259689
82.75805247
80.17591475
77.49291441
74.41572489
72.23792302
70.15129571
67.77534712
65.22450731
63.60814239
61.76353044
59.74018249
57.52173201
55.47239776
53.61245365
51.61946225
49.42962888
46.84913209
44.12167265
41.87834535
39.51310423
37.02179023
34.12814312
31.1620713
28.90019472
26.40295778
23.80635254
21.10780552
18.1835487
15.38723785
13.18201595
11.43332019
10.33508111
9.430154979
8.129959013
6.524869941
4.909597028
3.220268307
1.524143883
-0.01554283189
-1.652161597
-3.556256758
-5.144391433
-5.917301852
-6.050360289
-6.538451552
-7.707712639
-8.763785914
-9.350448052
-9.812145528
-10.30793332
-10.67679411
-10.77355357
-10.61403638
-10.30499872
-9.827776643
-9.10593272
-8.474799509
-8.025868542
-7.660794883
-7.089391434
-6.616143416
-6.357761048
-5.459949342
-3.708068271
-2.799109009
-3.144866664
-3.341230437
-3.15572791
-2.795312004
-2.058458546
-2.676096629
-5.84384899
-10.06745577
-15.57246836
-24.63540636
-33.30889546
-41.74242474
-51.31222298
-63.70888163
-79.46666107
-104.5434734
-140.0546835
-188.222798
-244.0716864
-355.3468825
-312.6207548
-237.3011674
-222.7978442
-188.3403677
-130.8207091
-1548.436291
)


100
(
163.3100486
149.6636421
129.9741266
114.9729738
104.092834
96.0769788
89.99641211
84.8373877
80.9506484
77.25955493
73.70913021
71.02308116
68.2858224
65.24316697
63.08253733
60.97986473
58.65933249
56.22019469
54.39436889
52.51323822
50.48583909
48.22689052
45.76356838
43.76069071
41.5320719
39.16629083
36.4324272
33.24359677
30.7330164
28.25505941
25.667966
22.8852487
19.86185295
16.79027762
14.07310105
11.21857314
8.785567271
6.558731089
4.489852875
2.884352138
1.754648624
0.9092874838
0.05256770823
-1.322129817
-3.477337521
-6.080320856
-8.543591335
-10.49522299
-11.73686459
-12.74483373
-14.28987173
-15.91059134
-16.9440548
-17.43746318
-18.13344906
-19.21036739
-20.3142774
-21.32613201
-22.1829968
-22.9016327
-23.39226677
-23.71347459
-23.88536993
-23.86334602
-23.73192856
-23.33170807
-22.90960621
-22.91012096
-23.06341099
-23.25024079
-23.64083428
-24.30145316
-24.47550168
-25.17572488
-26.68310085
-27.35183515
-26.49837052
-26.4272076
-28.69709316
-32.47200917
-38.51077346
-45.69933545
-56.0705885
-67.90404593
-79.80104392
-91.82324913
-105.2586331
-118.7044069
-140.1210636
-167.8984057
-207.2753252
-255.9427768
-322.7527468
-435.6120293
-376.2302889
-291.2535946
-267.2698707
-233.1232168
-171.1373793
-2000.378403
)


100
(
160.9350346
147.8868758
127.679955
111.9355751
100.7698806
91.98858541
85.71611726
80.33688362
75.80728896
72.01589947
68.30956616
64.90549474
62.16866127
59.39150199
56.45062958
54.24018792
52.09809217