/*--------------------------------*- C++ -*----------------------------------*\
| =========                 |                                                 |
| \\      /  F ield         | OpenFOAM: The Open Source CFD Toolbox           |
|  \\    /   O peration     | Version:  2.3.1                                 |
|   \\  /    A nd           | Web:      www.OpenFOAM.org                      |
|    \\/     M anipulation  |                                                 |
\*---------------------------------------------------------------------------*/
FoamFile
{
    version     2.0;
    format      ascii;
    class       dictionary;
    location    "constant";
    object      la_r18;
}
// * * * * * * * * * * * * * * * * * * * * * * * * * * * * * * * * * * * * * //

la_r18_table
100
(

100
(
415.6878271
-225.4207849
-103.3792673
-77.55257317
-71.87104799
-54.23881745
-44.37854171
-41.76973762
-33.39584264
-36.81341258
-21.14963909
-31.91055959
-27.95580853
-18.38299227
-30.32584111
-30.04563578
-19.17564147
-32.01985062
-34.28240138
-25.48616168
-31.21549926
-35.69142179
-33.11325394
-29.26782188
-35.83106914
-36.59258046
-32.30256388
-31.38342936
-36.15369624
-36.36793502
-32.42815247
-33.26644272
-36.19417402
-35.58461417
-32.3437246
-30.40212147
-33.03361649
-33.00345931
-30.82009521
-29.01217178
-30.54210348
-30.32235808
-28.29142663
-26.42665846
-27.01140496
-26.42321708
-24.34997806
-21.55166544
-21.73093605
-21.00404039
-19.38045164
-17.5088487
-17.27951051
-16.4885297
-14.97479073
-13.62047439
-12.96173527
-11.91290103
-10.41731423
-9.106853605
-8.334031363
-7.468077428
-6.172233994
-5.04990632
-4.322109823
-3.488437555
-2.355808015
-1.616027438
-1.009678833
-0.2482673368
0.4957138509
1.012000086
1.527451607
2.125910905
2.501525014
2.874440357
3.246093693
3.497356959
3.723570636
3.905168545
4.017315004
4.108479069
4.10943437
4.099557045
4.01834131
3.932863104
3.77627338
3.623820543
3.431457423
3.236439806
3.038530569
2.812498862
2.539910708
2.235760067
1.886312723
1.520920094
1.098337952
0.6910513758
0.3109703307
2.510021281e-09
)


100
(
413.4670867
-152.3863039
-99.27449811
-106.3870329
-114.2514808
-105.250716
-114.4305551
-110.508634
-113.6626721
-114.6379734
-107.7469651
-116.8907814
-115.8797624
-113.745117
-121.8682487
-121.8814736
-117.2479846
-124.4569758
-123.3655411
-118.1959606
-119.3901632
-118.5067027
-114.6587067
-110.9237595
-110.7114016
-107.202883
-102.3504507
-98.82207691
-96.77760434
-92.90115047
-88.24115005
-85.31788293
-82.14019407
-78.13519154
-73.29026348
-68.45595703
-64.78097136
-60.61348423
-56.4912348
-52.42665514
-48.88129501
-44.71586665
-40.87359286
-36.97264086
-33.31202087
-29.04888789
-25.28440995
-21.11673106
-17.47967198
-13.39772756
-10.01739453
-7.451721434
-5.059188324
-2.215478787
0.368714259
2.191969613
3.924141281
5.630512666
6.376169617
5.742249635
5.103813188
8.113033291
11.43720448
12.34605306
12.95617234
16.3658655
18.81780549
18.36504538
20.45518414
23.65069277
24.8660453
24.99345137
28.49891514
29.67633837
27.92159706
29.93217676
33.92843943
33.98654335
36.75807033
40.75803569
41.50573604
45.84412355
48.25375109
50.48891896
56.6907598
59.19240381
64.16365748
70.08656099
74.99021117
82.93065041
89.21204548
98.89238999
107.675522
118.3157744
128.350784
140.0415345
153.319378
158.1246386
68.39391374
22.99641562
)


100
(
352.6930071
-150.6845386
-128.85644
-144.5966287
-149.3944021
-149.9448697
-157.3906209
-157.8962229
-160.7545208
-162.9404058
-159.3486737
-161.8319082
-161.1209512
-159.0742854
-160.0370292
-158.9707167
-154.770288
-152.6998077
-149.4154414
-144.0774808
-139.4459255
-134.2797345
-128.4365788
-122.6473553
-117.2447011
-110.9871023
-104.8095795
-98.62032968
-92.31664481
-85.42947204
-79.00533489
-73.8245066
-68.33731529
-62.28899698
-56.1716221
-50.73781315
-44.67251857
-38.09930731
-31.12611285
-25.69279796
-21.32334209
-16.33437101
-10.86641662
-5.241073161
-1.612752082
2.845208578
7.859013827
13.27604223
17.73421224
22.02414565
26.81116199
31.52961863
35.82687575
37.48368758
39.65298227
42.18960904
46.3811556
46.89522224
47.96843615
48.48878628
49.85694721
48.87705207
53.02858434
57.91082267
60.51925813
63.73196768
70.54335295
76.7914143
78.47497065
84.75443932
92.28875659
99.11824083
103.127287
109.5083281
115.7551849
121.4576534
128.57529
136.2296237
145.5360919
155.4476483
164.2877245
175.9924
188.174693
202.9416235
216.0264285
234.7955193
252.3327871
273.4345948
298.653626
324.7458323
354.1603234
383.6236014
422.7806213
455.4205785
498.277077
549.4591147
638.6175259
514.5346098
294.0679641
143.3804859
)


100
(
213.3740594
-152.4540862
-154.5545707
-171.4676401
-177.0277632
-184.156628
-185.2773035
-189.7918176
-188.1131498
-189.4610009
-184.8260112
-182.8861382
-179.5074847
-174.6188238
-170.8342825
-165.5474147
-159.0190205
-152.5574934
-145.4423079
-136.0600865
-129.1599932
-121.6192803
-112.8831206
-103.7245828
-96.91852563
-89.28957975
-80.62707643
-71.96560333
-65.01725002
-56.99090622
-48.24205436
-39.27482181
-33.43630994
-27.31103946
-20.44816475
-13.11099961
-6.710046453
-0.5697812908
6.872468824
14.97594736
22.89079667
28.69105693
33.04183336
38.4537895
43.94430284
50.44293683
53.31102524
57.94707012
63.16375466
71.53908761
74.43924242
79.34636819
85.06867855
93.50971856
96.66513268
99.66561371
105.0751995
115.7291856
119.9927694
122.4282413
128.9787706
136.9616838
141.0479416
148.2069835
156.0371407
163.2971068
170.6634746
180.3770658
190.0098975
201.1478868
210.1658813
220.0786885
230.8932741
246.2667727
262.1267767
274.6464124
290.0242733
309.8033663
331.3174887
355.2963842
374.1207927
400.8377617
438.0747743
464.6614921
500.5723775
544.158443
587.6779238
636.3826436
690.9477831
747.1766681
815.8946913
897.3796088
969.4596542
1074.182224
1187.137992
1314.639051
1491.561945
1044.893215
675.1941172
404.5155936
)


100
(
73.53313493
-142.935908
-173.2197905
-189.7486179
-200.8855339
-206.3809188
-205.4942701
-207.6388464
-202.9788529
-200.5748087
-194.147382
-187.7145666
-181.9314419
-172.6457843
-164.9688755
-156.7513235
-146.0278005
-136.314353
-126.5824508
-115.6872531
-103.2154064
-94.2200821
-84.65813889
-74.12242963
-62.74482456
-54.90180738
-46.17645768
-36.41899254
-26.10445977
-18.0105042
-9.479465088
0.08004958326
9.808638617
18.68263335
24.12724263
30.9750566
38.33020271
47.33127751
52.18927238
59.07214268
67.61840526
76.64175807
85.18148024
89.69461113
96.51695006
105.5972897
118.4736143
121.2852826
127.3951446
137.617192
151.0394899
155.7812677
162.0180966
173.0360067
185.3633437
191.122412
196.3391864
210.6591661
224.8784158
234.9634476
243.0288505
254.3647956
265.9895296
277.5284984
287.6533855
298.619121
311.1295477
328.4697715
343.3742765
359.6164916
376.649562
395.4426411
414.8890389
432.6598101
454.76848
484.6295106
521.0414478
561.6278595
597.3740378
644.1887891
708.1005228
771.0957868
816.9745865
879.6319586
970.692579
1064.314932
1187.792112
1322.641315
1457.452831
1538.275764
1742.772248
2029.460203
2203.954803
2516.604207
2807.808556
3152.139718
3282.745716
1946.325953
1237.194036
811.4082381
)


100
(
112.402593
-132.9654003
-182.9714621
-207.0274115
-218.3165093
-219.5618143
-218.663977
-215.5318917
-209.7368133
-201.9435591
-194.715456
-182.8836457
-173.6252091
-162.823753
-149.6896395
-138.633024
-126.4543374
-112.1130637
-99.66631741
-87.54710835
-74.46242665
-60.18558382
-48.93754509
-38.47776621
-27.33583587
-15.56693499
-5.626138494
3.138607118
13.06665
23.37281334
33.7682175
41.65011162
51.19671094
61.13990192
73.2396278
78.55675571
86.45199121
94.89338271
110.5171945
115.3522816
123.3322956
133.5042115
148.6537417
158.6962858
164.7010028
173.9215497
192.4105048
209.6965667
213.4569597
223.3324092
240.4730488
256.3522222
264.5193476
275.3787022
290.5699523
305.4008021
316.2077336
330.7215172
345.5331994
361.8971863
380.930018
399.7798064
414.469429
430.9727519
452.4421772
477.8851422
500.4465019
522.9928491
550.0416936
580.5879848
615.5724355
646.5368124
677.9053368
712.8911974
769.0826986
828.2631418
901.4595361
998.4132673
1114.312626
1214.436572
1306.201046
1441.038051
1661.851505
1858.917189
2081.017881
2296.83441
2576.225267
2874.859307
3098.319882
3444.226039
3838.515688
4167.692609
4535.804616
4925.233582
5324.1865
5832.336267
5552.38024
3688.515285
2336.362356
1563.825565
)


100
(
220.2657366
-130.6536123
-191.1780947
-219.9483594
-230.476951
-229.2525637
-227.1127188
-218.5893378
-211.1041143
-198.0143092
-187.5708203
-174.7310769
-159.8171136
-147.0840384
-132.0206599
-115.9193762
-101.9883575
-87.06162191
-70.3586237
-55.68214989
-42.35312031
-28.0927931
-12.83408968
0.838724627
11.4674324
22.42802904
33.83710768
43.20381713
51.81218605
62.56239942
74.78697546
88.28713592
96.20721765
106.8308849
120.0179045
135.2622828
141.4323631
151.0917094
166.4338823
185.7136853
192.3271268
202.1268398
217.9148452
236.5731925
248.526818
255.5280931
274.9105033
295.5777957
315.4846578
322.8729326
341.3756213
360.4883801
379.2769091
395.3847225
409.8591074
426.5412582
444.6586945
467.256373
490.1370854
510.6175406
535.173482
567.2107074
604.456006
646.324638
681.2469755
725.0701739
773.668307
822.3915963
884.2026842
940.4602675
1002.231474
1085.032116
1200.927417
1319.114086
1453.298038
1614.05108
1761.899794
1946.902421
2125.193522
2359.542941
2676.465877
2988.144987
3288.209157
3552.972316
3846.73557
4138.478642
4370.968329
4517.907585
4541.429882
4598.788101
4660.559634
4631.373503
4550.658749
4466.334443
4434.940013
4619.555118
5118.347506
5067.136723
4099.461298
3574.282573
)


100
(
133.0977644
-131.867753
-196.9268417
-228.3055101
-236.6743527
-235.7343394
-230.2854979
-218.6272058
-207.4234347
-193.559089
-176.9433737
-162.8912689
-144.990508
-127.9853266
-112.215252
-93.88233831
-75.44825831
-59.48966247
-42.96783622
-25.05738166
-8.422264139
5.648420422
20.83111877
37.01534962
53.80428504
64.29035517
74.83937381
85.71156505
94.19062
103.7636255
115.5869675
134.6034352
148.5383464
157.7767345
169.9724911
190.0271475
206.5650653
214.2725274
227.3139045
250.0589977
271.2227326
280.5660601
293.5600749
314.7657207
334.9184502
348.8938816
364.6670385
388.1479452
412.1197646
434.2451277
454.2444149
473.5916897
495.5372154
520.0414008
551.4489153
587.1453596
613.0826448
644.9544278
686.6330342
735.6584183
792.0615335
845.0985886
915.7479412
996.0273499
1075.587371
1169.698301
1276.522144
1374.086748
1493.370867
1677.215631
1896.731666
2102.126386
2333.38015
2543.409878
2745.359429
2977.560941
3167.26045
3435.203591
3739.531362
3994.951551
4137.028537
4204.35969
4231.185442
4207.800932
4097.468623
3907.452117
3674.344406
3445.855702
3211.241098
2967.502499
2801.199521
2731.060628
2706.795183
2763.096045
2941.653758
3102.283605
2869.807778
3452.277155
4250.165951
8965.80515
)


100
(
-31.76265469
-134.3589214
-200.7159356
-232.7368215
-241.6767888
-240.566986
-230.8464862
-218.9525405
-201.4445587
-186.1764428
-166.0786134
-148.0604872
-130.4452909
-108.635896
-90.24685635
-72.12627549
-51.50529509
-30.76655108
-14.3229003
3.444654756
22.3376028
41.38818416
55.9628496
71.85429025
89.04367909
108.0473988
120.9368151
131.3589043
142.1182198
150.543672
161.6539036
177.3430167
201.95516
216.5113265
227.4180438
245.4132443
268.6039383
286.5247522
295.277481
317.4724998
341.9353641
365.6775094
378.4631644
399.8430319
423.9017235
448.3665912
471.5955745
493.8661168
520.0859097
549.4863809
583.2925202
625.6279823
666.7617173
704.924907
752.5736966
819.7342485
898.510765
989.5530122
1073.727866
1171.421123
1281.175131
1389.563559
1520.736453
1669.329897
1817.326994
1990.319133
2220.178089
2487.845926
2747.364658
3012.51014
3294.622806
3505.001909
3706.770886
3839.862841
3922.411085
4027.813095
4072.905395
4044.077262
3904.971462
3690.01233
3429.954368
3156.733342
2886.290628
2641.639586
2457.406105
2339.11851
2270.3421
2274.394327
2285.160219
2368.660269
2508.213539
2667.863388
2872.152977
3130.959153
3454.29888
3515.721057
2615.809552
2201.718155
2441.3333
20054.56915
)


100
(
-122.4112969
-131.273634
-202.035879
-234.9542585
-244.3140549
-241.9820129
-229.634981
-215.7665506
-195.5934211
-176.5879876
-157.0210677
-132.6534945
-113.4774569
-92.82132631
-68.45263943
-49.11563195
-29.26052277
-7.276844881
14.65591308
32.61519014
51.25885473
70.91707781
93.11511836
108.5808305
125.7221046
144.3534786
165.2697444
182.8555205
193.6400297
204.9115563
214.0331626
226.3618726
250.2454967
276.1985721
292.0363598
304.8796471
330.5080767
355.3970812
375.7032777
392.2276696
420.6311642
449.9794691
480.0035523
505.0338142
530.823166
560.750355
595.1542229
638.83164
690.6818372
737.208371
794.2437745
866.6066013
958.3785156
1065.130093
1180.07062
1291.288365
1439.086514
1606.109674
1777.5627
1965.775553
2158.997735
2331.731865
2524.841573
2780.283035
3067.881664
3326.491081
3565.634147
3813.01939
3984.003991
4067.265667
4076.889033
4011.306086
3887.622231
3686.728045
3424.835748
3176.87867
2891.504486
2608.635974
2361.035751
2167.82742
2041.798644
1989.970064
2003.499561
2054.970677
2135.713128
2244.77511
2392.205486
2522.447947
2693.550585
2886.174203
3091.199178
3339.281788
3609.959628
3957.199955
4351.436574
4114.462266
2983.87204
2436.33489
2093.052511
38451.27796
)


100
(
-121.6056256
-126.2084802
-200.916552
-235.6660145
-246.1766501
-241.3902234
-229.2230934
-210.9667136
-191.4386467
-166.3994263
-145.4358992
-122.2330879
-96.40992605
-75.26104891
-52.5552596
-26.2155562
-5.817875799
15.07879713
37.76628082
61.93918153
80.81927926
100.4959243
121.5102217
145.5326754
164.7693931
183.2765773
203.6399305
226.6517057
249.4085231
262.5252277
275.1150087
283.6455607
303.1298234
331.3086682
359.5310265
377.653921
400.1941354
430.1939822
461.1829954
490.717075
520.1658146
554.0022078
592.7919184
637.2234917
694.5513912
748.6087652
805.626573
876.5950207
973.6598306
1093.618408
1235.064474
1363.837571
1522.581831
1713.289022
1926.810416
2151.395984
2392.303318
2602.581726
2821.363003
3052.501283
3317.66985
3580.014134
3777.630327
3941.522726
4093.099692
4165.617928
4110.013402
3957.939463
3761.177835
3508.778379
3154.885414
2770.770247
2488.686829
2231.886065
2034.927114
1898.986705
1828.626717
1810.574518
1841.444124
1917.519519
2025.050845
2144.573516
2264.285957
2391.749636
2569.17711
2733.176214
2938.314962
3118.477465
3341.1655
3573.969121
3837.124576
4150.584098
4508.427724
4949.094966
5360.457978
4678.038836
3419.77467
2913.504573
2513.995398
63232.09908
)


100
(
-62.55091878
-124.8220036
-198.6887597
-234.2201973
-245.0221829
-239.3751358
-227.2107098
-205.5533839
-184.8823355
-159.9053988
-133.5991579
-110.4396764
-84.56656302
-58.29177761
-35.5040624
-11.3323263
16.41455949
37.71427412
59.69522549
83.24003292
110.3806685
130.4765096
151.7519373
174.59876
200.2360925
224.2589035
244.1323764
266.4059676
291.5531476
316.5900925
336.2583298
352.67788
364.266666
392.0974727
426.1571782
462.6184542
492.428215
527.9070518
565.6115738
608.8858407
662.2952962
718.2984691
778.1111842
851.5962941
944.6694689
1067.365041
1214.210647
1354.91061
1507.394071
1711.562073
1949.79188
2215.046483
2495.904407
2742.934148
2980.439866
3217.203769
3455.850777
3712.876845
3916.899845
4036.711284
4116.291147
4144.152055
4077.488331
3897.681035
3641.460151
3359.405033
3039.474812
2654.419909
2273.304605
2050.398094
1842.312996
1716.488234
1667.299071
1677.710583
1720.882515
1791.612633
1890.507699
2010.941263
2145.447282
2281.265638
2414.128333
2565.009571
2743.475378
2933.403448
3137.763642
3348.472427
3596.557114
3822.547673
4094.768695
4400.208924
4734.293475
5116.535574
5564.532814
6072.424159
6383.573101
5184.287598
3930.234074
3474.455261
2999.066896
93742.91943
)


100
(
-86.16813559
-123.9921194
-195.1693252
-232.3409235
-242.4633773
-237.508994
-223.5085508
-203.337403
-177.8229457
-153.6893829
-124.7325068
-98.86027695
-74.18709527
-46.43542757
-19.91836775
3.806324958
28.82322923
57.94179402
80.98883429
104.331306
129.3628579
158.0703668
181.5991934
204.4935159
229.3308269
256.7759834
285.8699354
308.5976177
333.7640634
362.0734099
391.2753374
420.7461208
444.4894046
470.908877
512.7742729
559.1558389
609.2060806
668.7767945
723.0882149
788.9917304
869.8321903
977.3626492
1113.966325
1248.308914
1399.599322
1589.861379
1827.848735
2101.880269
2405.480295
2691.139806
2980.585375
3256.301362
3517.965297
3768.833789
3985.212976
4109.270803
4172.416481
4181.550555
4103.926614
3911.506627
3615.000124
3327.581206
2998.903039
2661.274184
2288.895834
1944.963489
1767.760447
1624.995553
1537.97246
1515.247829
1556.509838
1631.377907
1722.344828
1826.369117
1939.727271
2066.016893
2216.329903
2380.095779
2531.510201
2681.266104
2862.814482
3081.56296
3297.480157
3510.559676
3741.116613
4034.606061
4300.607646
4574.129058
4919.425627
5315.959368
5738.092777
6183.22461
6696.551086
7264.157002
7294.914126
5665.791223
4584.566841
4085.481824
3566.447565
127852.3555
)


100
(
-138.9739712
-123.4577106
-191.5699244
-227.611686
-238.6038066
-235.2305165
-218.9264729
-199.5710922
-172.5756976
-146.9655496
-120.2846657
-89.20589893
-64.07507035
-38.38584604
-9.653732048
17.13767764
41.80583677
67.81173544
98.51613943
124.0818045
148.9963836
175.7763521
205.938421
233.8565056
258.7247929
286.0321275
316.5258217
349.5809947
381.8165868
412.2565275
448.0601287
487.6726628
530.8139465
582.0032919
630.7992045
691.363917
763.7439137
852.3952069
970.9599892
1098.681469
1227.333661
1384.643775
1592.21491
1844.512499
2135.212463
2411.853024
2716.930391
3055.495044
3392.980641
3697.658378
3961.899068
4141.380348
4248.003294
4291.637247
4249.170663
4088.623432
3787.613405
3522.479894
3154.136291
2773.186522
2417.149202
2051.862295
1774.000916
1614.254971
1503.418469
1429.603177
1414.79395
1456.981448
1536.442354
1630.61431
1731.816185
1837.988656
1950.046706
2074.409374
2216.339092
2377.878133
2547.257977
2735.122384
2929.423717
3131.926816
3367.196784
3604.492566
3824.27444
4102.192419
4434.67202
4731.683918
4985.201848
5343.803921
5793.524924
6258.020528
6766.631928
7291.854988
7898.295638
8475.373846
8036.547746
6258.409381
5304.691091
4790.294845
4083.075638
176578.3633
)


100
(
-143.2246215
-117.9139585
-186.0193084
-222.3616528
-234.4236947
-231.0340089
-215.8532052
-194.9052122
-170.696987
-140.9303717
-115.0767803
-86.89334084
-55.99469167
-30.63678191
-4.434701832
25.47858731
53.16353144
79.07175921
106.5428598
138.6272677
167.3939687
194.0358534
222.8763835
255.0814608
289.4757684
317.4786414
349.8688495
386.5444768
427.9475273
475.4958425
520.9994132
572.7111356
632.2361328
703.1759244
792.729492
901.2917742
1009.503217
1141.826575
1305.870511
1522.619731
1781.841559
2037.177808
2301.877782
2630.964499
2995.303442
3372.155013
3729.307248
4011.495129
4229.988928
4370.264411
4424.840415
4357.015263
4135.878427
3902.380232
3589.156403
3164.897544
2715.700511
2277.614967
1909.865522
1684.391558
1511.780347
1404.054596
1327.258664
1307.785154
1345.477272
1406.166736
1492.857751
1597.072985
1706.031727
1814.619503
1925.410549
2047.75645
2189.013757
2350.469246
2521.065185
2699.817857
2889.006377
3094.785448
3325.156501
3578.61255
3827.122343
4104.867238
4403.360434
4752.713019
5063.155178
5343.066805
5717.795605
6146.344299
6623.517281
7140.997966
7694.020694
8261.257569
8975.705667
9480.289059
8614.697599
6910.006741
6109.470107
5569.749568
4803.551853
237597.0224
)


100
(
-133.8861541
-112.2979996
-179.5787501
-215.542002
-229.5612542
-225.6965891
-212.9733925
-189.9488549
-167.0298628
-139.537503
-110.1162665
-83.631442
-54.89244881
-24.65250522
1.110275803
28.04895206
59.38654359
88.8490232
116.2275315
145.455362
178.9855106
212.0900465
241.2130965
273.3882891
309.9013851
351.0178621
390.7941134
433.3385717
483.2360463
542.149584
612.2668129
697.4100394
780.5707701
881.7656654
1005.94914
1167.633776
1379.183034
1594.891389
1824.483642
2100.795776
2441.075799
2822.697968
3225.41786
3578.534878
3919.790953
4215.137649
4428.504049
4543.253617
4487.758877
4357.320999
4110.942281
3770.737021
3303.85816
2792.237739
2304.86838
1959.325854
1653.760392
1439.326548
1303.841302
1212.386908
1197.851577
1224.314403
1271.073657
1332.677894
1408.502148
1509.022266
1622.278607
1739.779284
1861.223857
1986.375854
2118.179579
2265.190029
2440.5901
2621.400749
2797.117795
2980.772775
3198.531094
3454.987145
3723.90918
4002.391327
4292.73638
4598.467219
4971.726029
5308.108614
5658.196732
6029.480499
6465.774828
6936.453335
7458.237199
7984.350745
8579.932803
9186.318059
9906.684341
10341.31209
9148.153496
7548.343603
6934.08465
6399.014632
5562.468029
313770.2968
)


100
(
-125.101418
-107.7721353
-172.2438482
-208.4653618
-222.8799235
-220.1515943
-208.3434477
-188.0093523
-162.8676464
-138.0050565
-108.6087516
-80.59959443
-54.19991249
-24.92274621
5.243067605
31.81227757
59.82758344
92.77727531
124.8368875
154.0351543
185.5176836
221.4878466
261.611951
295.4064749
335.1260347
381.0559849
435.0627581
499.2272197
561.5602364
637.9639187
730.1920046
843.8216733
993.7030056
1157.116486
1333.080802
1545.892382
1818.658228
2155.305689
2538.934468
2890.00105
3261.943194
3664.862855
4049.417626
4369.142579
4570.992938
4642.945645
4591.897667
4406.801593
4079.557685
3584.589895
3004.712911
2580.434777
2124.904212
1715.678488
1407.872694
1218.536109
1104.718945
1081.404142
1097.599325
1133.291328
1174.423139
1226.936131
1303.382957
1396.468277
1506.519732
1625.758361
1747.310577
1868.89765
1994.419994
2132.762021
2290.100316
2468.336438
2655.455417
2848.236582
3049.252659
3270.512883
3533.490787
3816.941939
4078.844697
4366.328332
4723.369716
5104.05916
5491.29882
5822.912067
6193.24124
6681.360852
7180.424264
7673.18121
8236.637998
8809.563906
9453.473371
10271.59953
10848.94704
11006.78258
9357.496432
8130.468466
7670.80003
7175.649525
6231.071925
416081.0632
)


100
(
-127.8499391
-104.0232602
-164.3505353
-200.2922598
-215.0727149
-215.2939839
-202.5428426
-185.0364728
-159.9998815
-135.6471115
-109.7865951
-79.62259216
-53.32678714
-26.79297338
3.441486496
34.30043325
62.10273466
91.74873785
126.2889107
162.2477203
194.2096884
229.8312982
271.2166271
319.9747229
368.6637812
423.1239157
488.1750341
567.2975911
664.6716762
780.323956
906.1154469
1059.920576
1250.003101
1500.25346
1808.206751
2094.546252
2419.393248
2812.669196
3252.81785
3704.686061
4119.338605
4427.510358
4647.078088
4740.380354
4684.436502
4433.106414
3950.032551
3538.804442
3042.587997
2482.965809
1942.959329
1498.564922
1200.000706
1052.510549
976.1689563
959.4177339
975.4681734
1008.346448
1060.091076
1125.671396
1196.40376
1273.310437
1362.387269
1467.199369
1581.098007
1701.740761
1829.989948
1964.769438
2109.879717
2272.996238
2462.299073
2660.708344
2853.406422
3049.412538
3273.078604
3537.577832
3825.536464
4109.169719
4411.693926
4761.432881
5162.937225
5541.209253
5887.593925
6282.50096
6759.637217
7293.012935
7811.228464
8350.043848
8948.684553
9550.011977
10224.26421
10940.84289
11571.45253
11420.68778
9530.834579
8554.646076
8328.665971
7871.54522
6944.021387
546920.9
)


100
(
-118.4181185
-99.77795543
-156.5539452
-191.3635363
-206.3304094
-208.3599855
-197.4050161
-180.7394167
-159.6244188
-133.4095555
-109.9482506
-84.09178746
-53.7804705
-28.05616164
-1.026818319
30.44938373
62.9163969
92.38729203
124.3509652
161.1753073
203.5882824
241.4041645
286.0762197
339.2626011
404.394763
482.9102453
564.2718094
664.8780743
789.0941452
944.8136945
1158.853228
1372.06662
1622.684887
1921.756466
2299.678003
2733.722126
3181.099156
3575.895475
3996.50641
4383.435457
4668.977706
4802.410938
4704.936127
4515.490083
4156.25746
3689.268783
3048.690826
2374.73272
1794.613785
1444.789169
1124.231802
928.6276194
843.7514688
818.8983007
840.6006181
890.3564856
949.8607477
1005.686935
1059.515979
1123.380228
1207.638031
1307.515621
1415.027358
1529.088149
1646.764238
1769.134112
1899.750003
2045.816502
2211.415994
2392.700907
2584.123627
2787.613613
3001.013996
3232.44064
3501.133569
3800.063843
4084.157819
4358.028224
4696.40186
5109.726757
5519.250679
5920.789804
6273.062788
6726.324693
7261.217873
7831.313749
8400.853949
8985.045273
9632.986749
10209.14115
10908.39045
11546.35892
12064.28782
11577.32812
9372.33737
8913.086899
8885.281836
8450.911901
7541.734619
710240.9183
)


100
(
-94.6140137
-91.84242334
-147.7893451
-181.828933
-198.4076732
-200.2956148
-192.6967949
-175.604244
-157.3947074
-134.7426394
-109.7509926
-86.73365549
-60.80237443
-30.46843616
-4.273047131
23.56033662
56.52843165
91.70701601
123.7607595
159.2274289
202.0040675
253.6562501
306.6663114
368.4689822
444.3634205
539.4904419
660.0743933
802.7883761
965.0432848
1164.888054
1415.611178
1746.884754
2119.764073
2483.880054
2894.188376
3365.563521
3845.327077
4280.060017
4602.972616
4798.764636
4835.37157
4678.08677
4340.701756
3721.95429
3085.451336
2536.452428
1988.313908
1450.951834
1057.589247
812.4171089
706.4113308
690.5389488
713.547819
760.8249281
809.79503
857.0323756
916.0492404
983.7485287
1054.2061
1132.718846
1225.141911
1326.319149
1432.458596
1544.57553
1667.718684
1801.467062
1949.295839
2116.192178
2300.828722
2494.347938
2689.929598
2893.65065
3122.045284
3388.742435
3673.934566
3971.869055
4276.06236
4605.904195
4999.495493
5409.454045
5771.966588
6174.128164
6610.92405
7130.653857
7684.405365
8275.644108
8889.386156
9499.987499
10144.85255
10727.62387
11425.8216
11948.46729
12321.3772
11192.52049
9149.262825
9154.20732
9321.296967
8913.427517
8069.668302
912747.3043
)


100
(
-103.9276968
-86.02211448
-138.659426
-171.7003817
-189.01284
-191.45112
-186.2294139
-172.4333486
-154.1179741
-135.0503816
-112.0962289
-88.67166467
-65.84262096
-39.28187915
-8.650953347
18.46696019
47.73410961
82.58201081
122.5995543
160.0412336
204.2267478
258.0578633
326.4256939
409.0045548
501.2694021
616.6501368
762.8575342
952.0689491
1204.851838
1460.487809
1768.112974
2140.344615
2596.935306
3101.914102
3573.500538
4009.594821
4418.210994
4724.064278
4860.803027
4770.001274
4472.443285
4048.908119
3477.130457
2820.836179
2086.157542
1451.209091
1064.085352
799.5632117
629.9378154
566.2392906
567.6238094
596.7303985
647.2545575
708.5365561
768.7252499
821.2167192
873.6328404
937.8159658
1020.368371
1114.064498
1213.805784
1319.27826
1428.736861
1544.729759
1671.150355
1813.943725
1977.570067
2150.528066
2328.385321
2524.33201
2737.468924
2969.29297
3231.60271
3521.672281
3811.351779
4097.832671
4419.170716
4796.578395
5197.978658
5591.589075
5975.074547
6397.858615
6893.472546
7455.650774
8040.750425
8653.885413
9248.750859
9856.600648
10445.5101
10997.96279
11611.04968
12017.02889
12203.66862
10568.49753
8702.720406
9264.740546
9619.860664
9259.924251
8280.032838
1170068.842
)


100
(
-112.0547463
-79.9721733
-129.273612
-161.7290084
-179.0556458
-183.933376
-178.577783
-168.1708785
-151.4816819
-134.148048
-115.1703848
-92.04684392
-69.78132272
-46.87301779
-19.51311056
12.21660318
40.86614324
72.81933594
111.5372138
159.3363505
209.067981
268.8251736
344.4340221
442.6483232
570.5991061
720.562828
901.3340458
1128.131104
1419.017638
1800.205452
2209.29471
2632.105078
3107.828354
3627.866075
4129.35936
4535.062862
4787.507792
4867.419905
4740.651881
4393.844011
3816.931583
3000.795533
2382.028542
1785.599454
1247.965213
822.3304707
559.742458
435.2563156
414.5724248
440.8293884
488.8041407
542.09484
588.0000716
630.2109559
688.2814662
747.9159539
811.7035564
885.3808714
970.9193803
1062.482965
1156.309982
1254.569111
1366.176467
1491.392883
1631.34794
1790.260033
1963.394781
2144.055638
2328.087008
2523.098324
2743.883869
3003.189112
3267.566976
3546.51421
3846.896649
4173.709469
4545.556712
4951.833874
5301.289324
5624.874943
6046.947415
6537.888743
7071.880165
7636.185937
8227.153743
8847.284709
9430.32473
10008.7208
10563.72406
11058.79888
11585.8938
11866.78049
11716.6948
9490.476139
8154.104517
9169.233576
9740.491626
9502.72765
8750.991945
1496750.559
)


100
(
-92.69188249
-75.4042229
-120.393731
-151.249941
-168.3700888
-174.948383
-170.9194444
-162.4324093
-149.7437919
-132.5877332
-116.6394647
-97.82048143
-74.42876424
-52.61722231
-29.34792967
-0.9742086024
33.0280966
65.06253183
102.6528009
149.9083158
211.2662855
285.183979
372.9734149
485.7003122
632.7456081
828.1397068
1080.042168
1356.736382
1693.704808
2108.945393
2614.564043
3167.951742
3659.575161
4130.641456
4539.64557
4799.968094
4845.122711
4578.703482
4204.659489
3631.994648
2957.016664
2186.343204
1447.199632
891.3759135
608.1502283
403.7436116
304.5622268
284.0429756
306.8671037
344.8491267
400.4449523
459.0958986
507.2523765
544.8499313
583.8032474
640.0816855
710.7875893
792.3138362
880.9972595
972.9377561
1067.907889
1167.71988
1278.857088
1407.856961
1557.074721
1712.666931
1870.258821
2045.550745
2239.27327
2452.434728
2697.925132
2973.219416
3249.242867
3513.063668
3804.811021
4159.740673
4550.080978
4936.942037
5299.130486
5643.366148
6066.19882
6560.83498
7103.377058
7674.154789
8258.316456
8824.880753
9373.003448
9887.412587
10331.99821
10773.09193
11092.54981
11255.59799
10950.57181
8304.882536
7367.549117
8830.040665
9618.07998
9535.498106
8758.311381
1876451.221
)


100
(
-69.57624606
-68.76884363
-111.3469567
-140.7713897
-158.3007984
-165.2794318
-163.9144041
-155.6694362
-146.0798936
-133.1099036
-116.9174965
-101.3879217
-82.51787755
-58.85609856
-36.74660688
-12.48160663
17.75821848
55.72436095
95.88193658
144.6608505
208.4071852
294.1163356
408.9234397
543.7469358
716.3808105
939.047587
1231.587527
1619.383023
2028.882225
2482.136703
3002.277512
3567.751083
4105.039289
4521.658195
4773.428163
4810.634547
4611.631575
4168.010154
3435.526505
2605.890943
1950.556318
1343.911424
804.8171275
432.4605218
224.9312037
145.8511572
142.1442374
171.9321566
217.6508289
260.4437477
298.4078353
338.3971232
389.225785
431.6859641
473.3644656
525.7025799
589.7344493
662.6771764
739.1143618
823.6515238
918.2565974
1023.148307
1141.921033
1280.083853
1431.627847
1588.267845
1743.960159
1909.144403
2099.159563
2323.590101
2565.237048
2820.098817
3090.453537
3374.998979
3692.490921
4081.916703
4461.246789
4785.058839
5099.217909
5486.275933
5924.285202
6418.205154
6939.224572
7485.492012
8041.398209
8581.126607
9095.326974
9570.091221
9923.115039