/*--------------------------------*- C++ -*----------------------------------*\
| =========                 |                                                 |
| \\      /  F ield         | OpenFOAM: The Open Source CFD Toolbox           |
|  \\    /   O peration     | Version:  2.3.1                                 |
|   \\  /    A nd           | Web:      www.OpenFOAM.org                      |
|    \\/     M anipulation  |                                                 |
\*---------------------------------------------------------------------------*/
FoamFile
{
    version     2.0;
    format      ascii;
    class       dictionary;
    location    "constant";
    object      la_r15;
}
// * * * * * * * * * * * * * * * * * * * * * * * * * * * * * * * * * * * * * //

la_r15_table
100
(

100
(
6.253180148
29.19850606
47.78418404
59.78532466
65.31701305
73.65560461
75.26565752
76.59228425
74.97854964
77.20483
72.35455733
76.2979498
73.45307168
67.97397093
67.88898091
62.73860122
54.4880461
52.95424381
48.1147555
40.66523165
37.74600636
34.86644425
30.15368599
25.60975181
24.06226428
21.07418362
16.86000481
13.88913122
12.74876006
10.53311638
7.449867023
5.735534644
4.479773686
2.558050665
0.08973721453
-1.761706015
-2.090131432
-3.033832779
-4.453735949
-5.622617452
-5.93817521
-6.661686507
-7.708254417
-8.552068317
-8.808603485
-9.287699766
-9.920580762
-10.5832952
-10.43177151
-10.45670433
-10.5945588
-10.69389918
-10.44600121
-10.29235911
-10.21173453
-10.02633257
-9.687535241
-9.416376547
-9.222053931
-8.957174579
-8.528586495
-8.159546994
-7.845736814
-7.454453136
-6.996115544
-6.591758783
-6.232564487
-5.787229819
-5.359522773
-4.980916167
-4.599741577
-4.187868305
-3.825037585
-3.489439264
-3.120678098
-2.798909111
-2.504493785
-2.19185931
-1.929181473
-1.675813596
-1.438452942
-1.241705633
-1.038668914
-0.8779489303
-0.7211965922
-0.5963701432
-0.4786988114
-0.3851563646
-0.3009877425
-0.2295604411
-0.1708244306
-0.1237729176
-0.08773140229
-0.05900435005
-0.03850756596
-0.02400314941
-0.01529519737
-0.008586139671
-0.002995570635
-1.333849101e-12
)


100
(
5.430214422
20.25279724
28.31181717
28.77456498
29.36759816
31.78017687
22.3500037
24.31907603
16.35179483
16.0292696
12.3158352
7.521913909
5.87041203
-0.03818208707
-5.090499549
-7.752306121
-12.9841588
-19.35153751
-20.92430885
-24.11523038
-28.45670595
-30.22937937
-31.39076947
-33.57019208
-36.18026848
-36.10901754
-36.89358447
-38.29889577
-39.86302565
-39.16277128
-39.17486917
-39.61786978
-40.00124193
-39.24380881
-38.87684491
-38.7384246
-38.68920823
-37.98015024
-36.96018435
-36.29388594
-35.76765643
-35.00155972
-33.86964622
-32.9291506
-32.00514843
-30.98535415
-29.72738352
-28.57625299
-27.48733666
-26.42234622
-25.289343
-24.19216608
-23.15917389
-22.08979452
-20.98303271
-19.80183777
-18.64990258
-17.69668799
-17.46499889
-18.9662194
-21.79487898
-20.07375132
-16.29154229
-16.01113239
-17.71955771
-16.15173049
-13.42819311
-14.08084449
-14.53528163
-12.55199169
-11.14645839
-11.82904517
-11.06088829
-9.420409027
-11.30551403
-12.2443406
-8.653893978
-9.355806331
-9.933681131
-6.89981689
-8.174006124
-7.07407421
-6.174906947
-7.504129691
-5.286642021
-5.932653644
-5.975902833
-4.897528817
-5.850489837
-4.852375283
-5.295797327
-5.064963701
-5.817909025
-5.778444063
-6.533048251
-6.251340292
-6.455220425
-5.883044751
-2.460111908
-0.7280497523
)


100
(
3.960192061
10.52786402
10.74393352
4.63359885
5.671265027
0.2534390147
-5.775867056
-12.20638666
-17.05951329
-23.86631845
-26.18494503
-31.99962106
-35.24063705
-38.66132661
-43.96434227
-47.24984868
-49.76308054
-53.31707962
-56.77745156
-57.52910424
-58.89379412
-60.47296594
-61.12086688
-60.98427927
-61.18469017
-61.48225047
-61.01316464
-60.39967314
-59.87640476
-59.33121603
-58.3600091
-57.11920466
-56.06450282
-55.02610607
-53.83185224
-52.36314304
-50.9253206
-49.45649015
-48.07491055
-46.59464023
-45.13020227
-43.81857846
-42.6036342
-41.52272261
-40.0408626
-38.43945274
-36.82682469
-35.40420233
-33.8773339
-32.24002155
-30.86846968
-30.07464553
-30.02328796
-29.53767686
-29.10416583
-28.70040195
-28.77181901
-28.04004825
-27.60835714
-28.04904441
-31.18120654
-34.9963819
-34.71328721
-31.39899834
-29.3003039
-29.50800365
-28.49147996
-26.66759676
-25.55958239
-24.63267076
-23.04375798
-21.44850359
-20.53200346
-19.34061555
-19.10517715
-22.25845685
-26.55199888
-24.55057737
-22.9449146
-22.85859058
-21.78235257
-24.19750441
-21.55309063
-25.80662249
-24.80653067
-23.24201878
-25.06149191
-24.13560466
-24.21678708
-26.26167183
-27.74957882
-28.41681192
-29.87793923
-35.3689733
-32.7064143
-32.9840603
-34.55168278
-28.25416727
-14.93258429
-6.320208745
)


100
(
1.84406356
2.599645581
-3.658649059
-7.980022656
-12.78474837
-22.17478985
-26.56485524
-35.98891789
-39.84395361
-46.13072749
-50.56622587
-54.39282892
-59.5241301
-61.80586678
-64.87792209
-68.46764831
-70.39761869
-71.9162707
-73.62180465
-75.24552954
-75.07948529
-75.09850511
-75.14157919
-74.97354164
-73.93772178
-73.04079993
-72.28678966
-71.56642324
-70.31914185
-68.93257578
-67.45266146
-66.27744764
-64.86322539
-63.53214191
-62.2944691
-61.28368673
-60.19217663
-58.64156054
-56.98906865
-55.56575935
-54.80323766
-54.31566334
-53.72341007
-53.63441791
-53.85733609
-54.86531081
-54.56052519
-54.35752388
-54.07455448
-54.99068552
-54.34354207
-54.01316927
-53.58375568
-53.87324339
-52.95810005
-51.88780868
-50.94390382
-50.98109504
-49.82731487
-48.21986539
-47.40874794
-48.1303538
-49.394318
-48.65245548
-46.19961944
-43.66928331
-42.04439349
-40.49571474
-39.58034746
-40.39104416
-41.76706137
-43.77538621
-46.74774784
-50.32516668
-49.04773059
-51.04923914
-60.88508179
-56.36500691
-51.29327271
-61.31259385
-58.71823644
-54.46785093
-57.29570399
-52.24489273
-47.55729149
-45.33122034
-43.19710195
-39.90673057
-31.56174805
-25.70944416
-14.30874912
4.752043099
21.27952828
60.29111386
87.65232107
117.1684123
129.8231893
-5.60593662
-30.05442913
-21.76656194
)


100
(
-0.5622713153
-0.8035860095
-10.45517606
-18.47761176
-26.66603772
-34.07456606
-41.29196696
-48.4265561
-54.99645167
-59.63468724
-65.47003383
-68.5017068
-72.07537365
-75.67228821
-77.51337457
-79.61557388
-81.79397427
-82.79965469
-83.40510007
-83.97631003
-84.56927325
-84.16881921
-83.66008608
-83.15984809
-82.87353382
-81.85534364
-80.8387936
-80.19904301
-80.19603841
-79.78421306
-78.80561986
-77.7088158
-77.11361433
-77.49595426
-77.01585681
-76.98028537
-77.3942814
-79.31765498
-79.58597293
-80.03111738
-80.60714643
-81.50088963
-82.69810219
-82.36623118
-82.31621374
-82.85099846
-84.97112418
-84.02576633
-83.28612736
-83.06999955
-83.83063537
-82.79688473
-81.69307223
-80.91564443
-80.27663939
-78.66627813
-76.89248879
-76.36878506
-75.84974626
-74.60182497
-72.39426529
-70.64927076
-70.38070842
-71.82578471
-73.62739089
-75.66463428
-77.42181408
-78.34354657
-78.95869568
-79.84525284
-79.94432628
-79.39576503
-81.30340214
-91.29908142
-102.5182566
-92.94865833
-81.36630535
-83.4285879
-74.7434446
-57.98519116
-37.64580815
-16.31046332
-4.090900093
17.80148462
58.28200627
107.0244002
183.095993
259.6663907
338.9616583
391.1864365
560.5174518
767.474588
908.3478104
1169.422348
1390.913752
1610.684554
1575.270305
514.6187568
119.7940142
-2.760315494
)


100
(
-2.595405814
-4.782480289
-16.50250322
-26.63393042
-36.18122334
-42.67770381
-51.25262197
-57.08750358
-63.99457393
-68.50937216
-73.04821728
-77.39460688
-80.09348471
-82.99169884
-85.45902995
-86.8516176
-88.3001766
-89.85975511
-90.6833297
-91.11946319
-91.605021
-92.43618234
-92.88140913
-93.00661066
-93.32009772
-94.14838868
-94.85262963
-95.11410159
-95.95170072
-97.64435362
-100.0723113
-100.9199101
-101.783617
-102.9157857
-105.9755084
-106.2263539
-106.873815
-107.6019709
-111.9881509
-112.4550877
-113.15234
-113.7168456
-115.7348581
-116.3749652
-115.4240439
-114.5689785
-115.9033318
-117.2691061
-115.3731133
-113.9310785
-113.4927987
-113.2133675
-111.9765961
-110.7457055
-109.5711036
-108.3400215
-106.9678487
-107.5431695
-109.9604375
-113.4595007
-116.6141244
-118.2445031
-118.6395097
-118.6512975
-117.1919159
-114.0850716
-110.6571677
-106.446637
-99.04067698
-89.10491866
-78.47266856
-71.4876842
-64.4505886
-53.87463417
-33.54968265
-16.096124
31.51652741
95.43276215
171.6403754
237.9926438
303.8825072
410.5930431
592.6245586
759.590583
958.4321035
1163.072492
1419.700775
1693.463583
1915.383649
2293.855244
2685.867413
3014.150875
3425.561111
3826.211869
4223.856793
4607.538504
4226.229206
2346.834255
1040.310278
362.9832858
)


100
(
-3.329248362
-8.519031707
-21.4826048
-32.73875614
-40.84162341
-48.7145821
-56.35134672
-62.88971061
-68.71272337
-74.28457004
-78.08818796
-82.18802618
-85.50008709
-87.95784906
-90.46607454
-92.57337127
-94.03684453
-95.7868284
-98.00922458
-99.89890258
-101.3500666
-103.1174596
-105.644562
-108.519419
-110.4921116
-113.0364643
-116.4264412
-119.1119316
-120.882723
-123.1826434
-126.7712599
-131.3798105
-133.049782
-134.7529449
-137.4488769
-141.3633669
-141.4604746
-141.731142
-143.7773607
-147.5965772
-147.574479
-147.4191775
-147.9478351
-149.0879211
-148.8149546
-146.920928
-146.8963836
-147.0330874
-147.6459028
-145.911706
-145.0758016
-144.151358
-144.4221723
-146.1468081
-148.3148355
-150.665377
-152.2216443
-152.1398554
-150.4841236
-148.2174554
-144.4413036
-136.5884163
-123.8718947
-107.4528127
-91.41516108
-69.38574321
-42.32399453
-15.07910974
19.0618652
54.01478739
96.11353526
157.1651821
247.7119343
344.2521072
456.6788481
600.1436243
735.776272
906.8173443
1080.292489
1317.086464
1635.96625
1946.974193
2252.55015
2544.432958
2866.782771
3192.473292
3451.84508
3622.879169
3690.925802
3816.815609
3922.418574
3924.367732
3874.258581
3813.164786
3793.579433
3915.241263
4458.894701
4305.535569
3100.395109
2164.901942
)


100
(
-4.238115637
-12.25878291
-25.58814747
-36.04890389
-44.24772592
-52.7731427
-59.50840758
-66.66907596
-71.8496898
-77.19796552
-81.6098953
-85.34703973
-89.30644052
-92.35211453
-95.05438483
-98.00459958
-100.8598729
-103.4904275
-107.0133089
-111.233562
-115.6666377
-119.2348487
-123.4015012
-128.4678317
-134.6150701
-138.3926193
-142.7725329
-147.8876296
-151.4232326
-154.0597215
-156.7961126
-162.9853696
-167.0995597
-168.5556385
-169.894783
-173.8911187
-176.8211322
-176.2960524
-176.2103336
-178.5857927
-180.9240808
-180.2459214
-179.2284641
-179.0338552
-178.7754388
-177.8759114
-176.9362728
-176.6034981
-176.8451599
-178.1989881
-179.9813358
-180.7877416
-180.4699602
-178.1974347
-172.5927999
-163.0272893
-152.9578124
-139.4208958
-118.7836697
-90.3504492
-54.9421188
-19.24745781
29.63753465
88.52403148
150.4858696
225.4743409
315.2330762
403.6089635
512.4335462
683.5174629
894.4551977
1095.16036
1323.056847
1539.642206
1753.886763
2002.517011
2218.814944
2520.13504
2863.095715
3147.46681
3318.134784
3428.065343
3502.013856
3525.606407
3455.436459
3291.534613
3083.474261
2876.769869
2677.243787
2464.399616
2294.311405
2220.277684
2210.797184
2286.979229
2466.604504
2667.028825
2586.913351
3155.07207
3767.021424
7681.852968
)


100
(
-5.636731963
-14.93937114
-27.93402067
-37.93324009
-46.56022262
-54.55262825
-61.51189494
-68.1368734
-73.94374835
-78.96539208
-84.14613787
-88.19210251
-92.35420198
-97.04321221
-100.8275277
-104.7595737
-109.3170352
-113.9844553
-119.5376495
-125.668895
-132.7220734
-140.4942975
-146.2150717
-152.4764836
-159.2968139
-167.0317968
-172.4992938
-177.5552386
-183.1035485
-186.5172036
-189.1224358
-192.5645128
-199.1431585
-202.2143959
-202.9123335
-204.5910574
-207.4204075
-208.8651021
-207.433641
-207.7580955
-208.1084702
-208.4010296
-207.0687736
-205.6993785
-203.8711119
-202.4220231
-201.9810977
-201.4948006
-199.63348
-195.3397003
-186.9124435
-171.7739364
-152.249135
-130.7346673
-102.113571
-58.3361011
-0.2958560783
71.68858046
141.7329796
224.4454109
321.0258534
421.7736198
544.6754625
688.0545957
837.1323763
1011.337558
1243.248366
1521.667794
1796.469725
2075.554154
2377.336596
2617.437029
2855.906763
3030.121464
3155.658523
3314.128808
3412.574242
3419.321611
3308.815458
3126.737992
2902.362453
2661.769204
2413.907739
2173.088806
1992.365342
1876.495012
1816.410838
1823.710578
1863.881933
1950.060509
2083.069228
2272.550238
2514.609428
2828.516538
3197.499837
3434.493461
2640.448016
2125.311827
2175.357986
19417.69188
)


100
(
-6.889752142
-16.17632147
-29.13431132
-39.20403253
-47.99295412
-55.33165138
-62.67595371
-68.8806965
-75.20404569
-80.37812379
-85.71395438
-91.37570416
-96.12452008
-101.6783889
-108.3446627
-113.9849306
-120.3274395
-127.8256628
-136.5070295
-144.194549
-152.5975041
-161.727575
-172.0738112
-179.1074903
-186.3198082
-193.6590553
-201.4082653
-208.0954651
-212.8866095
-217.8877382
-220.5379721
-222.5163454
-226.9548049
-231.5575847
-233.032578
-232.6105622
-233.427721
-233.6088495
-232.761251
-230.9661846
-228.8505896
-225.9045681
-222.4458227
-219.2985916
-214.9275835
-207.8975854
-196.907698
-178.9552623
-152.4702511
-123.4959171
-85.28114111
-33.53568058
37.72181275
128.1580423
231.005934
332.9776018
468.8275762
627.1382272
796.8317531
987.6736021
1188.110716
1373.420495
1579.885464
1852.93701
2168.595766
2459.727882
2727.565712
3006.815678
3215.166544
3342.76148
3402.579213
3384.576099
3305.677153
3159.601531
2944.498402
2720.293346
2448.714453
2181.488535
1952.272119
1775.704566
1659.088512
1604.011732
1613.780021
1670.388512
1761.605506
1883.277305
2034.469963
2200.048811
2381.391912
2589.880482
2837.95525
3145.81871
3505.853229
3972.881851
4491.218428
4584.209005
3427.916358
2608.956428
1979.558401
38844.1941
)


100
(
-7.999830212
-17.47859447
-30.03574472
-39.94697415
-48.1465332
-55.56053359
-62.74160765
-69.15982076
-75.47797943
-81.76846735
-87.51483066
-94.06895234
-101.0701701
-107.7898149
-115.8570093
-125.6654485
-134.0010053
-143.2610588
-153.8084548
-165.542877
-174.913177
-184.646481
-194.6686001
-205.3631425
-213.6997327
-220.8420146
-227.7153893
-234.5167147
-240.9646186
-244.8324471
-248.1876201
-249.7914544
-251.2535663
-253.4596523
-254.1975039
-252.9864189
-250.7706395
-247.1996737
-242.2538678
-236.4013025
-229.9658076
-221.0256104
-207.8163313
-188.2045561
-157.5765803
-122.9175899
-82.29810052
-28.82990946
48.54088647
152.0419964
281.8943477
405.0357006
556.5060879
741.0313995
952.9416938
1183.705263
1438.605204
1666.329094
1907.345673
2162.405625
2457.85985
2762.073376
3002.770427
3205.047499
3398.489506
3516.281072
3505.615281
3398.819604
3241.899058
3023.611747
2714.693729
2375.073306
2118.891784
1874.894444
1681.827634
1552.945105
1494.539405
1489.768671
1530.535645
1609.057163
1717.787327
1848.101813
1992.844361
2150.056126
2333.809394
2525.218751
2752.082118
2984.06209
3246.54062
3547.742321
3899.305406
4320.07196
4836.719193
5470.880685
6129.27197
5866.887354
4362.847732
3425.105898
2615.511926
64812.47576
)


100
(
-8.507548603
-18.6079467
-30.64932536
-40.12297698
-47.81749138
-55.34069689
-62.21154658
-69.16719432
-75.57243049
-82.67057214
-89.75662763
-97.23145027
-106.0920013
-115.4948586
-125.0735268
-136.3207546
-149.4270325
-160.2777836
-171.8420993
-184.2031295
-197.7045746
-207.7813829
-217.7169171
-227.5717748
-237.4624012
-246.008045
-252.1212085
-257.5156749
-262.1344425
-265.6888266
-267.8099249
-267.8733269
-265.8645406
-265.3453424
-261.1921162
-254.042139
-246.271948
-235.7450582
-222.3618238
-203.6933256
-175.9696357
-141.8510567
-100.6511672
-45.64730986
28.60411264
133.5785719
268.1883913
403.8515903
552.2495862
751.8503217
989.5928719
1261.489127
1556.254701
1822.681216
2083.205278
2347.254358
2616.588455
2917.901587
3175.72742
3343.249105
3468.807606
3544.345945
3526.312534
3393.267992
3175.691686
2924.248793
2630.280363
2276.749356
1932.959686
1737.990141
1546.586832
1428.886607
1384.39831
1399.696782
1456.357596
1545.189815
1660.1505
1794.301895
1940.845449
2100.261802
2272.667356
2461.372605
2668.484032
2886.479595
3134.265187
3393.191003
3694.022129
3998.34978
4355.360483
4774.473565
5248.944491
5807.080587
6494.063229
7306.37134
8070.909093
7248.210985
5428.99026
4400.360416
3439.929919
96854.17284
)


100
(
-8.789055741
-19.62876714
-30.95156438
-39.51620379
-47.15194575
-54.53341454
-61.38709059
-68.48515031
-75.61578481
-83.28394376
-92.20668106
-101.0409669
-111.1949267
-123.1945047
-135.4718553
-147.9218395
-161.7994123
-177.1574878
-189.8290999
-202.4587872
-215.3665695
-228.5162793
-239.0167987
-248.1576859
-256.7029176
-264.4894447
-270.9933094
-274.8001067
-276.8834055
-277.124731
-275.1505979
-270.6173316
-264.7847991
-257.5316783
-244.1086004
-225.8312301
-201.4923189
-167.7592258
-132.7360787
-85.84710524
-23.51423798
65.55725611
187.0317841
314.1457034
460.6544495
646.6792521
883.386331
1163.345828
1480.826696
1783.282866
2092.496573
2394.140736
2686.608697
2977.082963
3248.46946
3421.606841
3532.887433
3591.398566
3567.4558
3431.167525
3185.096055
2931.39671
2627.223664
2307.887415
1958.506948
1644.819069
1494.407299
1370.64385
1300.830367
1298.410765
1348.265209
1431.391661
1539.235953
1666.057866
1807.999048
1964.696922
2140.948912
2333.463994
2531.925127
2739.233141
2966.664118
3221.945104
3496.39695
3784.183684
4093.245433
4436.668085
4808.231415
5199.883109
5683.111231
6235.113107
6858.549942
7551.484175
8419.163286
9425.384877
10182.43436
8722.957423
6731.741294
5548.448594
4414.131286
132000.9122
)


100
(
-9.250169151
-20.09442577
-30.56892694
-38.76171569
-46.21044305
-53.26959885
-60.36548369
-67.52030652
-75.60072558
-83.94253087
-93.84829816
-105.4897572
-116.7944632
-129.9732392
-145.0091724
-159.6557686
-174.1514994
-189.4750291
-205.6784922
-219.1929137
-231.6708119
-243.866347
-255.4499677
-264.9077547
-271.9028293
-277.4076021
-280.9127631
-281.7504698
-279.7353104
-275.2876171
-266.9251587
-254.0748777
-235.6192343
-209.7085704
-182.202456
-144.1024418
-92.80580562
-24.08528565
75.37743414
190.1300365
311.0292098
462.0564139
665.2816249
919.262991
1220.445897
1511.384666
1832.911996
2193.018682
2558.979387
2900.441799
3212.949783
3439.881786
3593.310859
3683.124584
3693.444258
3593.294706
3354.870641
3133.156281
2801.670778
2447.973981
2109.808875
1764.351079
1510.898734
1373.929632
1281.693306
1231.42561
1247.488689
1312.023049
1401.150035
1508.369163
1632.652873
1772.856738
1927.858655
2096.055316
2280.183039
2483.944131
2705.943103
2950.298514
3207.175429
3477.341363
3775.765075
4098.235514
4431.32774
4789.671109
5194.067085
5621.535108
6055.23537
6557.670339
7173.20946
7848.015087
8627.813968
9467.696106
10579.2148
11782.42258
12373.92151
10357.71294
8274.691876
6951.705525
5601.056931
184110.3127
)


100
(
-9.591992314
-20.12933627
-30.04404236
-37.81560333
-44.92629915
-51.81094141
-59.01442495
-66.4196946
-74.97231641
-84.83341428
-95.47801336
-108.3244886
-122.6732667
-136.7442012
-152.4505141
-169.6603551
-185.7370567
-201.121908
-216.7345294
-232.3168348
-245.4715369
-256.5571152
-266.5262903
-274.7116175
-280.1944201
-282.7156435
-282.0612942
-277.450872
-267.7637584
-251.5843303
-232.2870324
-206.2361727
-170.5687577
-122.1853434
-54.30521649
34.96073513
129.848739
251.6151777
407.1561915
618.7619028
880.2421775
1144.306832
1419.840032
1765.07177
2151.784037
2559.966025
2957.501252
3282.333843
3545.056986
3733.940278
3837.666396
3828.733785
3671.94003
3487.984455
3218.277439
2836.158031
2423.142702
2015.812517
1670.367814
1461.488059
1302.527756
1209.259663
1158.064828
1176.407411
1249.820824
1335.577688
1443.819523
1568.18414
1704.744896
1852.271638
2011.776107
2187.467805
2380.992922
2593.954366
2823.474493
3073.2794
3343.777979
3636.901815
3952.83575
4294.249834
4654.978381
5047.735759
5458.289929
5909.461133
6386.347662
6876.128713
7416.191439
8033.670082
8742.978387
9541.221015
10462.62113
11237.08053
12813.42705
14186.64368
14582.85532
12194.88123
10038.95104
8576.528752
6961.106843
244770.2873
)


100
(
-10.01913925
-20.1051786
-29.39744649
-36.73407656
-43.4150576
-50.21500322
-57.34948459
-65.32831104
-74.1988934
-85.06991451
-97.31369211
-110.9241787
-126.6374122
-143.3306309
-159.481159
-176.7037215
-194.8129576
-211.3244675
-226.4063709
-240.9669576
-254.3739768
-265.2099431
-273.0423755
-278.2885269
-279.8614924
-276.4879884
-268.9748623
-256.5717659
-236.4891121
-206.6425856
-164.0727882
-104.7847085
-41.65392588
42.01717648
151.2347796
300.272501
503.9370813
719.397362
953.3020205
1238.051493
1592.594213
1996.689976
2432.042281
2817.956831
3196.732583
3535.280298
3797.202938
3965.526598
3976.801208
3899.695267
3703.578189
3409.76559
2990.305793
2524.963865
2077.119069
1757.681401
1468.439747
1266.327813
1144.426769
1076.469856
1096.491215
1156.215469
1234.970637
1332.828054
1448.566454
1581.451796
1726.295438
1883.486031
2054.969944
2240.24864
2438.596875
2652.177378
2890.878871
3148.139362
3420.673474
3712.859873
4033.813386
4386.444114
4767.978982
5179.967523
5608.726444
6058.976659
6558.556342
7083.325354
7644.612775
8238.505105
8891.033417
9612.589335
10438.58447
11326.14307
12408.50797
13410.66133
15036.45315
16611.60032
16774.68281
14146.50063
11949.49363
10370.05612
8497.314811
322587.7839
)


100
(
-10.17100891
-19.99398243
-28.65744335
-35.44299861
-41.81851067
-48.48532209
-55.54858823
-63.85469331
-73.42252443
-84.85974537
-98.70453426
-113.4973766
-129.770938
-147.732953
-165.8668486
-183.0777701
-200.6435354
-218.295396
-233.9421266
-247.2351582
-258.8560116
-267.7329203
-272.3947361
-273.6929858
-269.680614
-258.9328221
-239.3498711
-208.2824239
-172.926233
-122.5041462
-53.28436798
40.06098918
172.3004841
324.0555178
493.2360831
703.7669825
978.6668801
1325.087926
1729.675458
2104.801291
2504.666165
2943.323407
3370.322632
3739.868566
4000.023228
4126.473592
4127.899014
3994.69132
3718.726262
3278.466725
2751.473635
2365.865081
1941.838772
1559.720329
1273.716343
1104.065109
1010.772987
1011.806877
1052.286888
1117.882602
1203.028119
1308.045924
1430.360543
1561.275206
1710.244769
1872.492905
2048.005457
2236.977434
2439.220515
2657.681667
2895.960043
3157.559834
3438.494519
3740.492378
4063.909921
4413.094225
4793.799886
5208.479913
5639.371517
6105.889823
6610.088123
7151.071118
7732.194966
8316.623519
8953.919042
9687.271959
10465.1988
11282.405
12220.75773
13241.62972
14458.74523
16318.21678
17496.33037
19154.91927
18905.56911
16096.6646
13912.62291
12269.0655
10154.84557
427860.0611
)


100
(
-10.1259018
-19.80404645
-27.79010147
-34.08816405
-40.15826127
-46.57412253
-53.70778788
-62.1238991
-72.57258811
-84.52802964
-98.98652743
-115.794668
-132.5273664
-150.6200361
-169.8050468
-188.3306271
-205.4388024
-222.0874014
-237.4939584
-250.032887
-259.2149364
-264.7875709
-265.0262712
-257.803265
-244.6051955
-223.3742905
-189.8460808
-140.426981
-70.31208518
22.23421965
129.7319684
270.5303874
451.5132744
697.772673
1009.899143
1304.883322
1643.788099
2059.482214
2530.273779
3023.157234
3489.619829
3844.940496
4115.104471
4262.332362
4260.363898
4068.640642
3647.923983
3282.338423
2826.679774
2305.845382
1801.803026
1391.150614
1121.963485
996.5326168
939.3149587
943.9598414
988.2871924
1061.560236
1162.993605
1274.619112
1393.571044
1521.148594
1662.794434
1821.467507
1994.857464
2184.681289
2391.924014
2615.650006
2854.966306
3113.604686
3400.164847
3706.293762
4029.433238
4372.803761
4746.463682
5157.500467
5600.668279
6071.522932
6572.012069
7103.404081
7685.670278
8295.132717
8926.195879
9595.656309
10354.16202
11189.46131
12074.88188
13029.17689
14089.37943
15226.09476
16594.70475
18296.94518
19935.25117
21691.08829
20981.9931
17993.2339
15860.18144
14190.90384
11861.7233
559651.7938
)


100
(
-10.04899042
-19.34163028
-26.77738071
-32.69784993
-38.46016467
-44.6025572
-51.7782079
-60.28127458
-71.05653907
-84.20394736
-98.88887585
-115.9939357
-134.7994647
-152.7929972
-171.615575
-190.7580193
-208.4685806
-224.0034852
-237.7641419
-248.3412512
-253.5467378
-254.7451855
-248.7906896
-233.3693024
-205.1215083
-160.8697874
-108.1507307
-33.33006733
69.2908984
207.4306186
409.0019252
615.7687839
866.456738
1171.751274
1563.911618
2021.423497
2502.457415
2928.926914
3392.157506
3828.750659
4170.724993
4364.285004
4334.699884
4196.591337
3886.891718
3464.143548
2869.045004
2239.107572
1700.733494
1384.230697
1092.075292
922.9657233
861.7048437
863.7220222
919.8615642
1009.125709
1110.263603
1215.185906
1331.04191
1460.69342
1602.977378
1756.361546
1925.64204
2112.184229
2314.761224
2533.344121
2768.028992
3021.294711
3299.077372
3600.895175
3924.15931
4272.494057
4645.018608
5044.380061
5482.408845
5957.172621
6450.561762
6967.805339
7530.26534
8141.673427
8801.886785
9484.918068
10168.76153
10939.92599
11811.54716
12755.72156
13767.9389
14851.44871
16057.0902
17275.48722
18798.6162
20508.22644
22350.78849
24115.27915
22924.46682
19827.97672
17773.84714
16090.74075
13595.05913
725010.7957
)


100
(
-9.954432444
-18.81341606
-25.74546162
-31.27908563
-36.69779024
-42.60331668
-49.66529336
-58.47020747
-69.30516012
-82.91827806
-98.56399638
-115.6339061
-134.4708591
-154.0785519
-172.4421806
-190.7753798
-208.3076814
-223.2646106
-234.9903416
-242.6746975
-243.7349808
-236.0454171
-220.731075
-194.1446094
-151.088894
-86.31932064
6.884863437
127.5690982
273.1433688
463.1002966
709.4056596
1043.86633
1428.959203
1809.198397
2243.673087
2750.027426
3273.320733
3761.640382
4139.894627
4390.949151
4484.901522
4385.317605
4102.663977
3541.43881
2952.610549
2440.868226
1926.955211
1424.044299
1066.189235
856.9361178
786.2537472
800.8035055
853.761209
934.3507574
1027.452958
1133.949493
1258.145801
1387.072596
1522.526396
1668.563798
1830.72907
2007.974966
2201.073926
2412.711577
2645.079168
2895.384002
3164.381796
3457.505854
3778.709822
4120.965645
4482.110153
4866.314367
5281.755012
5740.359826
6232.518223
6760.910336
7319.540325
7911.328768
8544.489036
9214.446001
9905.039992
10646.83317
11435.46635
12324.87722
13286.78706
14352.07903
15495.87341
16692.1019
17984.30044
19333.87229
20991.25505
22759.0526
24709.48293
26407.24826
24698.17022
21608.97817
19676.29665
17970.56707
15327.12505
930186.6252
)


100
(
-10.07723852
-18.25643281
-24.68539683
-29.83970562
-34.94121367
-40.63552851
-47.47005822
-56.36505166
-67.47866575
-81.11998503
-97.31916919
-114.7968233
-133.3038267
-152.8107548
-172.0285713
-189.4682046
-205.7037535
-219.268526
-227.9101832
-231.7475369
-227.9132536
-213.196698
-183.2624699
-135.4710946
-73.0813623
16.65964164
141.7836372
314.6395224
558.166366
809.5220413
1121.149129
1505.5677
1984.584823
2523.188352
3033.396881
3510.626197
3971.864391
4336.024919
4534.695965
4508.485167
4270.094714
3896.45644
3370.655671
2755.590145
2061.484243
1466.347616
1116.708966
887.0608359
753.1341143
725.6495355
764.5558624
835.962147
935.4156202
1045.920515
1161.815295
1279.604953
1409.746114
1554.813188
1713.150892
1883.288905
2069.659628
2274.878496
2497.377779
2735.645573
2991.478655
3268.095341
3573.786319
3902.890158
4253.178137
4633.902924
5040.172888
5473.619158
5946.550176
6463.857406
7003.427194
7572.819263
8190.259013
8846.718319
9538.922672
10271.85965
11012.79381
11817.88647
12716.59363
13713.40318
14783.76091
15957.54371
17167.62851
18449.00808
19780.34487
21237.15367
22964.96485
24792.74941
26784.5028
28256.51167
26259.06301
23325.21654
21530.68858
19845.16765
16994.56674
1191579.638
)


100
(
-9.878036199
-17.66806262
-23.60693412
-28.38606406
-33.19182054
-38.63442891
-45.29173279
-54.04267737
-65.45274666
-79.06267211
-95.11670877
-113.1351871
-131.4549167
-150.2879096
-169.1723956
-186.537437
-201.2221554
-212.7380461
-218.7038868
-215.8464149
-204.7817056
-181.0177952
-138.9395491
-71.96137578
28.3550098
156.4299976
321.4269132
539.6661115
828.5772
1216.604413
1639.99853
2082.504555
2588.993054
3151.410875
3704.395567
4171.897643
4481.204559
4620.356738
4553.082146
4262.150881
3738.946964
2973.653873
2393.238164
1831.411592
1330.47208
943.4289409
722.5397209
642.709186
666.531291
733.9084565
827.9240176
931.7041869
1038.108981
1153.495062
1284.73388
1419.717125
1566.182635
1727.81098
1904.843659
2096.065013
2302.298556
2527.712193
2776.330818
3043.708087
3330.389206
3644.681724
3987.759752
4354.251081
4739.221399
5149.330279
5592.033798
6077.524714
6587.189319
7141.04847
7739.180219
8379.758528
9071.243721
9792.039308
10491.0352
11218.46915
12031.27898
12954.02521
13958.33602
15026.02175
16188.17145
17447.94279
18730.2727
20067.12715
21448.99065
22974.74335
24756.12122
26657.0187
28537.38139
29829.41465
27586.8803
24849.89405
23246.29488
21654.08025
18570.0647
1515318.676
)


100
(
-9.554314561
-17.02016572
-22.49417468
-26.94647695
-31.47192568
-36.64657009
-43.16480503
-51.65519686
-62.91584827
-76.86266633
-92.48237126
-110.0760221
-128.81011
-146.9863749
-164.864667
-181.4453397
-194.566682
-203.5330841
-206.0632899
-198.618861
-176.5047676
-137.5969346
-80.33098914
6.498993501
132.0322725
310.7913362
553.6947358
826.994649
1169.805709
1599.816772
2130.941836
2722.402729
3252.036495
3770.296688
4238.047977
4562.261193
4673.298401
4476.117924
4153.603882
3628.270933
2994.90659
2263.220831
1560.838957
1044.786668
801.8598038
640.7019956
590.4941024
619.4065819
692.1132689
786.6834408
903.1796887
1024.210954
1144.498297
1264.055219
1394.192214
1544.368828
1707.420173
1889.397997
2089.308324
2306.248533
2538.511163
2785.960221
3051.932928
3341.096909
3659.394891
3999.732771
4361.533909
4757.14771
5180.461367
5635.070555
6130.984687
6669.149358
7222.242073
7795.399982
8425.135542
9120.697434
9855.791035
10617.77343
11383.37312
12144.14362
13006.20745
14003.34567
15082.14786
16240.0601
17485.87248
18753.56155
20063.86362
21416.69686
22774.00053
24353.4326
26099.52226
28000.5402
29826.72348
30785.64595
28626.5164
26134.34717
24717.31559
23288.03808
19934.08054
1901568.124
)


100
(
-9.241170019
-16.31919255
-21.39511936
-25.51852385
-29.76814795
-34.68316742
-40.9870799
-49.35720972
-60.22093197
-73.85730002
-89.5636233
-106.5034358
-124.6306437
-142.8412514
-159.6551641
-174.8323842
-186.5361101
-191.7516275
-189.7072984
-176.554331
-146.6353281
-93.10179478
-6.745981297
105.4374507
261.8244382
475.4839014
765.711904
1161.078478
1583.183737
2057.832241
2611.284675
3221.449439
3813.442206