/*--------------------------------*- C++ -*----------------------------------*\
| =========                 |                                                 |
| \\      /  F ield         | OpenFOAM: The Open Source CFD Toolbox           |
|  \\    /   O peration     | Version:  2.3.1                                 |
|   \\  /    A nd           | Web:      www.OpenFOAM.org                      |
|    \\/     M anipulation  |                                                 |
\*---------------------------------------------------------------------------*/
FoamFile
{
    version     2.0;
    format      ascii;
    class       dictionary;
    location    "constant";
    object      la_r22;
}
// * * * * * * * * * * * * * * * * * * * * * * * * * * * * * * * * * * * * * //

la_r22_table
100
(

100
(
-45.26563799
-65.61794448
-100.7112739
-124.8572302
-143.3666216
-153.1685285
-160.314148
-163.5267267
-166.108352
-166.6325187
-167.725021
-164.7198548
-161.266595
-157.505629
-152.5249464
-146.7735528
-140.845106
-135.3510545
-129.3710269
-123.4061497
-118.2916065
-113.2645763
-108.215991
-103.3383233
-98.50505319
-93.52134244
-88.53048582
-84.25144634
-80.66620093
-76.92484424
-73.1393773
-69.27834958
-65.2524132
-61.14400893
-57.03738116
-53.53207403
-51.01062666
-48.332005
-45.55824439
-42.9756818
-40.74789607
-38.38570779
-35.9392937
-33.50940613
-31.09016301
-28.62834973
-26.18705997
-23.88482319
-22.41847639
-20.92401416
-19.44983682
-18.08738019
-16.97560819
-15.87143813
-14.78562719
-13.71980201
-12.6664138
-11.59814478
-10.46263097
-9.471448069
-8.794628477
-8.01490585
-7.158272786
-6.533488912
-6.108557524
-5.583267729
-4.987567444
-4.685253679
-4.39128458
-3.988200227
-3.660851696
-3.526948166
-3.271587354
-2.980313907
-2.937258017
-2.76569677
-2.538600222
-2.537928564
-2.362845758
-2.254699439
-2.190136231
-1.961591091
-1.942358873
-1.723079496
-1.641946226
-1.416941776
-1.297493802
-1.080785506
-0.9374776841
-0.8234966333
-0.7264969238
-0.6345815037
-0.5247709136
-0.4504770782
-0.3483682372
-0.2617213057
-0.09790328183
-0.02377830129
-0.01357490267
4.39025218e-11
)


100
(
-39.18611896
-57.49066877
-86.18606488
-103.1439327
-116.1693311
-123.5967537
-120.3534259
-123.3634781
-118.4381563
-117.1898912
-115.1172419
-107.5579851
-102.2293838
-94.40119646
-85.33088339
-78.5569333
-70.80343491
-60.55009861
-55.13156112
-49.02332413
-41.37874237
-36.32913921
-32.27157996
-27.44218302
-21.5227987
-18.8539413
-15.23654051
-11.12348877
-6.781223982
-5.66650037
-3.780582306
-1.319796775
1.364522644
2.507781497
4.228231243
6.027263526
7.947228939
8.789258318
8.947316225
9.380870932
10.0046118
10.28990007
9.907733685
9.701012704
9.650363458
9.610943321
9.221049119
8.850513354
8.600206091
8.455726696
8.146620145
7.663653416
7.180672939
6.708747728
6.161315221
5.531093584
5.06603385
5.241525961
6.695180906
9.808143381
12.84706707
12.44779767
10.19941326
10.01563221
11.58126967
10.80996614
9.288794586
10.25757351
11.1178252
9.456481332
8.585184159
10.01262284
9.480051135
8.96034379
13.3303301
15.30416863
10.78940496
12.3840346
13.4839924
8.447953995
11.4617621
9.25738798
8.003908659
12.15403557
5.548930266
8.37373019
8.92715399
4.987483408
9.692248714
4.738904522
7.151373223
5.250536924
9.857353829
8.363603354
13.45294951
9.860449008
11.29420128
10.93255397
3.495259697
1.700367802
)


100
(
-32.00780433
-45.88082125
-70.59692582
-82.73493476
-94.47892471
-96.21370838
-94.22539948
-89.70778493
-85.7649153
-78.44968907
-75.74069906
-67.76454646
-60.80533316
-53.76018634
-44.19068053
-36.21191627
-29.53558057
-21.78818767
-14.10982596
-9.481253031
-4.454478884
0.571846881
4.436437473
7.3283198
10.42896722
13.46246456
15.694188
17.69688488
19.57870496
21.10034721
22.0846763
22.69995422
23.25866454
23.77383855
24.30405604
24.63192762
24.78276475
24.7245083
24.58935139
24.38184131
23.99974377
23.44578624
22.93341045
22.4979919
21.91336331
20.88596414
19.79939603
18.82730937
17.87938209
16.78352599
15.84692187
15.44861136
15.5373797
15.74045493
15.71134455
15.85494176
16.08541242
16.66399015
17.58683067
20.33545603
25.35787208
30.70114687
31.42745573
28.93646324
27.67399814
27.76023882
26.41695403
24.48804532
24.1319631
22.61211404
20.10121009
17.86829047
16.88519042
15.37972848
16.67893485
22.76527945
28.65364562
27.39902263
25.34445666
24.89337758
24.18473395
26.28522858
24.62912477
30.68822959
30.13671465
27.51764399
30.84991764
29.05448637
29.17507031
33.87441946
38.0235742
40.3510489
44.599782
59.26994466
56.2689093
59.58118308
70.67257024
49.5456681
22.58003522
9.776890991
)


100
(
-23.24052347
-35.856041
-56.25712157
-68.38710155
-74.98736712
-72.450752
-71.42777128
-63.2512536
-59.48412756
-52.31115744
-46.70420385
-41.00607139
-32.68339893
-26.66859646
-19.46508683
-11.56047059
-5.250092764
0.5007256323
6.109958658
11.16599195
14.86789583
18.25452968
21.23231503
23.82342242
25.97728646
27.7754628
29.28918336
30.72463622
31.91788931
32.61002723
32.92218262
33.18591557
33.60592361
33.74138842
33.75836374
33.89385741
34.17033232
34.26017589
34.01052264
33.6358691
33.4553386
33.60997913
33.8510175
34.02943801
34.42432995
34.96664069
35.77161436
36.07959695
36.37801793
36.52173737
37.24370654
37.59585556
37.89855859
37.67787753
37.81589902
37.7514925
37.56435498
36.68543152
36.43220133
36.24933116
36.3761509
37.71639882
39.96657303
39.49164748
36.99591187
34.58552917
32.72542084
30.70152034
30.05119164
30.91964857
33.25185886
36.37718213
40.663611
44.61408607
46.74831805
51.25463436
58.30971921
58.92262708
58.66670107
64.45068271
65.91680923
65.05428759
66.18777181
64.95999393
61.84744
61.31315331
62.92950242
64.79884568
62.73509889
63.95573103
60.57245485
49.47320042
44.00737651
14.79271976
3.054582688
-5.606903712
0.6352092904
64.30905626
54.03733346
21.99060095
)


100
(
-15.38376403
-28.3136929
-45.96283973
-54.96966693
-57.19563737
-55.9535806
-51.85646193
-45.65721606
-38.85948748
-33.29772978
-26.23918627
-21.44989514
-15.50903328
-8.954826168
-3.309475261
2.622656547
8.340067343
13.31588946
17.72836041
21.44137284
24.56166557
27.56991944
30.01386346
31.97342073
33.80339465
36.01930973
37.72341299
38.9831986
40.09033973
41.34205746
42.20492131
42.63183213
42.9653733
43.62097643
44.68380248
45.45848968
46.41977061
47.57068857
49.43203823
51.07932183
52.38004687
53.2341955
53.94700521
55.05589641
55.81293197
56.50304767
56.6232465
57.98292563
58.51754713
58.63341157
58.06049169
58.69306074
58.98505941
58.54559832
57.35249116
56.89351842
56.92717108
56.20469502
55.66010535
55.17383316
54.56729323
53.77643939
54.18943707
55.60301037
57.48950248
59.46325819
61.71275874
63.12072559
65.19402908
67.43419457
69.86834478
73.05560345
78.97473392
89.36409957
98.14985612
97.95427892
94.45518463
93.97783581
90.83929515
80.74405741
65.74657594
51.67442209
47.26095609
33.85976217
2.341429069
-35.07590683
-98.3828173
-160.029573
-218.1968843
-246.5716616
-392.8430459
-575.7506535
-684.7192021
-907.956147
-1080.852216
-1235.712975
-1201.914477
-349.5618988
-47.36393722
-7.997366688
)


100
(
-12.26660854
-21.26019873
-36.10869459
-42.47071955
-42.18761127
-41.571508
-35.68233731
-30.99664039
-23.9757029
-18.63766887
-13.20757899
-7.82202658
-3.179975775
1.756424536
6.721370066
11.55433121
16.05531255
20.09341296
24.04763103
27.50733682
30.17689689
32.37194552
34.99603601
37.48074833
39.6635579
42.10413677
45.32197052
48.45206153
50.70676898
52.49088209
54.39487414
56.70674231
58.54104424
59.95864964
61.09063129
63.20677232
64.79398013
66.4856596
67.54413395
70.53076868
72.83824887
74.78802814
75.39264174
76.08167329
77.21531534
78.21046311
78.09381335
77.65026221
79.10779395
79.40873937
78.86047963
78.32006762
79.03884023
79.41172746
79.143743
78.75882203
79.73533743
81.41739982
84.33651349
87.67631242
90.60260098
92.86648467
95.30014913
97.13316274
97.72082387
96.85171193
96.65974169
96.23955574
93.0689697
88.64997004
83.18700285
80.55520669
78.01072271
73.89483101
58.66595923
43.94096536
11.86496661
-38.9457154
-101.4029243
-153.9030622
-204.1595236
-292.7825116
-453.0031791
-592.3983739
-762.2357875
-935.9408917
-1159.726138
-1392.41603
-1562.589649
-1883.10331
-2231.519783
-2495.92597
-2838.651068
-3152.206109
-3446.038448
-3703.230357
-3442.121283
-1933.390636
-829.8794791
-367.2540346
)


100
(
-9.420102907
-14.96155166
-27.01625151
-30.96575299
-31.46779741
-28.99873719
-24.24764003
-18.99558903
-13.56175099
-7.934857462
-3.445499768
0.9765822189
5.095321113
9.058821179
12.78838884
16.58599744
20.6442646
24.25840095
27.44978579
30.88589433
34.22274684
36.8531314
39.1880587
41.97160324
45.45603505
49.16309896
53.65264378
59.10032928
64.14033919
67.69845491
70.17072777
72.57410358
76.06497831
78.83427421
80.68475943
81.8194642
84.42250062
86.55366026
87.95663295
88.51644427
91.47014363
93.8350304
95.10728482
95.00179888
95.43397119
97.41523805
97.84525737
98.59086701
98.68516208
101.4240008
102.0787699
103.3250968
104.6619837
106.9042322
109.7831591
112.4670323
114.8995456
115.6368725
115.7114878
116.7965483
117.0019702
113.6527343
106.3546204
95.56670326
87.46208896
73.1966324
54.43027527
35.44666126
7.545271352
-19.18191404
-51.63775528
-101.8333222
-180.3317886
-261.6539573
-356.3241283
-479.7516441
-591.6007233
-738.9889003
-884.7822262
-1091.269312
-1373.478613
-1640.464436
-1898.057658
-2138.11699
-2404.363084
-2668.685038
-2862.29817
-2964.345375
-2950.702644
-2993.238619
-3023.973303
-2935.629134
-2781.111257
-2588.153801
-2404.356894
-2351.677251
-3169.499486
-3477.432592
-2600.945824
-2099.166581
)


100
(
-5.106866092
-9.336727125
-18.72540567
-21.99192924
-21.8882531
-18.19988409
-14.82838167
-9.517550081
-5.209309003
-0.6293576795
3.516879932
7.23232453
10.43737724
13.80484528
17.0461745
19.87032309
23.01020548
26.88578851
30.59516127
33.85146847
37.45633509
41.50693289
44.97948947
48.1941323
51.38201121
56.13431496
61.55714202
68.26070553
76.16179047
82.98183638
87.77115452
89.95924751
92.77409283
96.54972947
99.59496425
100.6255992
101.6030189
104.5284031
106.7378595
107.2720263
107.7291381
110.6322474
112.8140645
113.247618
113.268634
114.8749584
117.3874591
119.4147754
121.7691367
124.1173863
126.9176214
129.4765426
131.1065017
131.1762938
127.219759
119.5131768
115.0398743
107.1139897
92.53271605
71.25312596
43.9891369
19.2345035
-18.05549731
-64.27479245
-113.262021
-175.9669703
-252.8962689
-325.5158567
-416.6857421
-568.279122
-755.2089052
-928.7232879
-1127.854993
-1313.266739
-1495.758386
-1710.832948
-1889.736824
-2148.34469
-2439.685941
-2667.265678
-2781.348627
-2830.571558
-2837.382164
-2787.00533
-2638.106594
-2393.890197
-2100.260929
-1801.297364
-1505.04011
-1190.751756
-914.1510549
-707.8362028
-535.9881206
-412.2674299
-334.943087
-316.2618174
-748.5774245
-1853.32513
-2855.021377
-7433.912303
)


100
(
-1.389414793
-4.827693713
-12.12805034
-14.55688492
-13.1849229
-10.07773563
-6.682305437
-2.728807038
1.244216352
4.948786111
8.240564534
11.6473834
14.46641508
16.71613753
19.95329913
22.91628978
25.47903799
28.31537165
33.33400239
37.79182039
41.91368036
46.03226884
51.24758561
55.99307044
60.18539594
63.78122312
68.98536461
75.8101303
84.1681436
93.96386105
102.2528432
107.249095
108.4636424
111.4011269
115.3712119
117.5144214
117.6660706
118.3730257
122.2594423
123.4091407
124.3014366
124.4523141
127.8530893
129.1031667
129.61243
129.626224
130.3767845
132.2791347
133.2904502
132.4385512
127.4026266
114.862467
100.0062827
85.83546697
65.78163237
30.41606629
-17.55882502
-78.22431195
-134.6248539
-203.2405055
-285.1002243
-369.729392
-476.194961
-601.1202905
-728.3368577
-878.3952908
-1084.271438
-1332.511438
-1572.522017
-1813.340704
-2072.832305
-2268.734487
-2462.603602
-2591.935416
-2672.13335
-2778.775251
-2817.323259
-2761.601544
-2589.713442
-2343.058854
-2049.208848
-1732.799394
-1401.925547
-1074.176578
-797.7043725
-576.6034678
-400.885719
-280.5075054
-193.530853
-137.9527123
-105.1440517
-87.04950047
-78.23615154
-73.71656969
-71.27481512
-81.09724698
-113.5970219
-277.0161296
-816.8144552
-18844.48816
)


100
(
0.964935245
-1.151833325
-6.737259755
-7.910554283
-5.549295267
-3.273710811
0.1079536254
2.959346893
6.034444949
9.18765893
11.93500762
14.23907359
17.44239036
19.738806
21.76340011
25.54064924
28.99300253
32.18166293
36.23076435
41.93044342
47.4942976
52.61752945
57.04163591
63.20986545
68.99156152
74.00808451
77.84090645
82.48709411
90.05201077
99.12609253
110.0875516
119.5257971
123.0638241
123.7869178
126.5687524
130.5329889
130.6485982
130.0161387
130.5804248
133.8026357
133.8726301
133.4320671
131.1396123
130.4399733
129.0687249
125.055906
117.2392378
101.8490719
78.80192024
57.65772059
28.79707103
-12.65954216
-73.49532258
-151.8823769
-240.2515324
-324.7773321
-442.0409805
-579.9284202
-727.7314129
-896.455014
-1074.324365
-1234.997876
-1414.552706
-1657.675453
-1937.784167
-2188.621453
-2413.644554
-2646.065652
-2804.453238
-2880.498682
-2886.562576
-2813.888995
-2679.15117
-2473.125615
-2193.262643
-1902.307522
-1564.114257
-1226.530725
-921.513191
-661.8657366
-453.3191714
-298.7737632
-199.8416576
-136.6829871
-95.62695793
-72.7312449
-59.97307987
-51.49031454
-46.7913437
-44.63924337
-43.81186563
-45.38497077
-45.59099882
-47.62407095
-49.52894964
-55.40259947
-56.31616992
-68.9806637
-85.62820726
-37812.81574
)


100
(
1.423204427
1.976296336
-1.974821373
-1.859166089
0.2490502419
2.686458605
5.350226732
7.697214417
9.829320979
11.9397524
14.66869594
16.8333229
19.11870943
22.4145919
24.93654589
27.47718533
32.29229155
36.77051757
41.10604666
45.76129509
52.58495518
59.31139657
65.13404687
69.81103628
75.91515989
82.52707024
88.07865843
91.8534539
95.21599145
102.0163119
110.9179551
123.7652335
130.9899323
132.8284018
131.5876795
133.8252012
134.7854809
132.4775387
128.4483642
124.522605
121.6065856
116.8009614
107.7073699
91.90225737
63.38406089
34.16020534
1.589238102
-42.38107864
-110.4774919
-202.7844912
-318.5555037
-423.5000562
-555.3818923
-718.6643138
-907.9150405
-1113.547114
-1341.184578
-1539.876596
-1748.929162
-1970.33988
-2230.77048
-2496.193463
-2694.990466
-2852.67799
-2996.196947
-3060.396801
-2995.82074
-2834.928245
-2622.399777
-2346.767319
-1975.211936
-1566.178474
-1238.216531
-919.8031819
-649.0002597
-436.6049083
-287.3744571
-184.505451
-118.201962
-79.44766949
-59.26021678
-48.13927388
-41.25291892
-36.59101007
-36.09902805
-34.39463359
-34.54108275
-33.36000339
-33.06440308
-32.64708583
-33.30571244
-34.17783058
-35.7407586
-38.00424948
-38.98739141
-42.44836726
-41.85137421
-45.51391601
-48.08202914
-63197.11021
)


100
(
2.409896047
4.450120038
2.198107392
3.181119458
5.134567635
7.715298848
9.635378122
11.23143493
12.85605957
14.20403183
16.23632266
18.87097376
21.18076728
24.26558979
28.21416556
31.55999373
34.94786242
40.91728926
46.56184123
51.76095018
56.56894654
64.13848175
71.53445031
77.79054528
82.50499322
87.67621911
94.6580413
100.3077196
103.5835634
105.8987734
110.0837436
116.5475302
127.1969477
130.7188296
127.9581242
120.7303867
115.9805175
108.1349434
97.8666583
81.9096103
56.09107032
26.26988646
-7.370985415
-52.98060109
-117.452224
-212.9552692
-336.2600874
-456.2066438
-585.9169019
-765.5902886
-981.1699648
-1228.080302
-1495.368802
-1731.847334
-1960.19044
-2189.742947
-2423.72223
-2686.459479
-2900.849237
-3022.765433
-3099.316125
-3122.177849
-3048.731691
-2858.599717
-2583.886559
-2274.80511
-1922.977889
-1509.557066
-1100.334562
-833.6854651
-563.97231
-359.8412006
-223.6218252
-140.1263437
-89.68989873
-60.28869577
-44.71206136
-36.80868154
-33.26016446
-31.51229309
-29.76720448
-28.25332689
-27.81585879
-27.32272076
-27.69250002
-26.84037255
-27.87813283
-26.81456693
-26.36979199
-26.67141852
-26.68953481
-27.83300351
-29.01928239
-30.00447739
-31.36612772
-33.12677632
-32.97574882
-35.08148692
-58.4348015
-94486.18444
)


100
(
3.292647859
6.386500215
5.633093477
6.913438162
9.30777534
11.57772048
13.1535354
14.102056
14.98531702
16.16980628
17.28266459
20.16651405
23.33477285
26.37387716
30.65784764
35.6451157
40.02407982
44.15363892
50.89423048
57.41669599
62.94451896
67.75986426
74.94312961
82.6424771
88.83500407
92.97022501
96.0516784
101.7233715
105.9973703
107.3635643
106.3306933
103.4882155
104.2583028
105.8802629
96.97544079
82.04091356
60.47857771
28.11661946
-1.708031057
-42.57338603
-98.07408146
-180.6021266
-294.0323039
-407.8040917
-537.1680938
-704.1704445
-920.9551448
-1178.559923
-1470.135893
-1743.946993
-2022.473201
-2290.17567
-2547.666595
-2801.796697
-3032.954022
-3163.971478
-3229.148687
-3238.19757
-3161.17076
-2966.750375
-2659.321302
-2344.397312
-1978.080338
-1596.506455
-1183.721301
-802.7259772
-579.559467
-379.2746736
-226.7390696
-133.3283592
-82.46585605
-54.99416095
-40.66404366
-33.05428681
-28.61202658
-25.94186357
-25.21200971
-25.28398226
-24.517496
-23.24029069
-22.37004575
-22.58909725
-22.91851174
-22.40565883
-21.7950549
-22.07282301
-22.43572375
-21.65536473
-21.85020478
-22.14802202
-22.25746846
-23.42387425
-23.25409903
-23.6993429
-25.58209975
-26.26353604
-26.88055185
-27.82919046
-58.15586433
-128917.9756
)


100
(
3.270973608
7.784507893
8.096846663
10.03701547
12.77300709
14.61765757
15.75556742
16.37738712
16.44556915
17.62955334
18.86589315
20.56324579
24.81749585
28.90805053
32.9139258
38.40056528
44.43516556
49.65144299
54.10175761
60.91852505
67.7875712
73.2142204
77.47095909
82.98127878
90.09220726
95.1275919
97.05988626
96.6300055
95.83329171
95.57947589
90.51130382
80.31852434
64.86555327
42.29642364
21.52208043
-9.933679459
-54.64020847
-117.6662772
-212.8552793
-320.3452601
-429.4377218
-566.5378252
-755.5287318
-992.868934
-1273.039759
-1538.334027
-1831.026638
-2159.538019
-2491.787383
-2796.906274
-3071.232623
-3259.369157
-3371.245876
-3416.970249
-3381.152708
-3229.968814
-2934.238305
-2653.069507
-2258.000096
-1838.002667
-1433.106267
-1020.207345
-695.5610786
-482.0262796
-309.9775408
-175.287262
-97.96505922
-61.22543439
-41.74546447
-31.7284979
-27.00150334
-24.37318241
-22.52629556
-21.16212899
-20.37557718
-20.08158478
-19.7513536
-19.68340331
-19.29916511
-18.66194579
-18.80118432
-18.90244974
-18.26636442
-17.83117407
-18.32106132
-18.52726491
-17.8179909
-17.71991996
-18.20293492
-18.261493
-18.30944233
-22.07400603
-19.81489574
-19.91278284
-20.83282088
-21.2521539
-21.96065333
-22.88688343
-36.58765836
-179883.636
)


100
(
3.646514926
8.972886414
10.05689009
12.61333243
15.35274371
17.06076552
17.71193844
18.02817356
18.02526934
18.26499563
20.15658969
22.13906881
25.19771465
30.65731429
35.79960912
40.52898569
46.80808004
53.59004003
59.1488748
63.4107226
69.33358153
75.97439189
80.47612398
82.91588093
84.1817774
88.43248004
89.33362607
85.71038142
76.88378807
61.91713742
46.75493557
25.37822066
-5.526722442
-49.59859323
-113.642242
-198.2567417
-283.6428116
-394.1466764
-538.1944567
-739.0103164
-987.4247547
-1233.350031
-1486.734632
-1807.677173
-2167.503778
-2544.981307
-2907.866156
-3194.933739
-3417.167657
-3563.119344
-3624.284034
-3571.058295
-3366.268716
-3131.769112
-2806.615448
-2363.712969
-1885.829856
-1409.847989
-992.2340227
-709.1272213
-472.8872235
-299.3222506
-163.4325657
-88.97986319
-59.96500868
-37.91231845
-27.27446927
-22.94949466
-21.3152961
-20.10324523
-18.82993011
-17.71908721
-17.11605073
-16.90763146
-16.83459545
-16.69543005
-16.1689945
-15.7055353
-15.53683243
-15.59386697
-15.35598204
-15.26563315
-14.89796471
-15.19109068
-15.2458434
-14.73404441
-14.42255633
-14.40737449
-14.4908979
-14.81471442
-14.77114457
-21.74281352
-16.33839292
-16.16049688
-16.88869049
-17.34516155
-18.07973652
-18.78517098
0.8453685611
-239847.4313
)


100
(
2.813852253
9.787652449
11.55992212
14.62260544
17.31396571
18.9011002
19.31039181
18.89107644
19.08542289
19.24383319
20.64345443
23.44082
26.58167663
31.04604618
37.58975866
43.49108211
48.45182321
54.80207364
61.82942396
67.0440481
70.25423591
73.6370382
78.77282293
80.55115985
78.31628545
72.41129818
66.17246883
57.2000566
40.15902973
12.77078969
-27.34612032
-84.36773749
-141.4396683
-218.2112522
-319.959096
-462.3399556
-658.7798167
-861.655986
-1078.198132
-1343.900244
-1679.001734
-2061.224926
-2470.093862
-2825.672914
-3170.629445
-3471.690825
-3694.019233
-3821.620191
-3788.346101
-3665.608074
-3419.527239
-3073.932487
-2600.863979
-2077.098482
-1563.798429
-1174.450696
-809.8502666
-527.8653025
-325.4700965
-173.4998941
-103.3615654
-65.32442627
-39.92329429
-26.1614638
-20.19655174
-17.95218393
-17.07982219
-16.68960143
-16.3491711
-15.7766088
-14.97566297
-14.30987501
-14.17931959
-14.26585354
-13.90354206
-13.31486454
-12.86812239
-12.79062166
-12.89992381
-12.949063
-12.59541377
-12.40094635
-12.59816775
-12.58452874
-12.39908798
-12.00395229
-11.92231262
-11.97461548
-12.13686447
-11.94959791
-11.91769636
-16.42152707
-12.72780341
-12.44005273
-13.53961118
-14.15192074
-14.85957185
-15.46572119
13.08630396
-317096.0502
)


100
(
2.340235503
10.21519111
12.67745826
15.95854139
18.78712197
20.13204188
20.43683455
19.77111823
19.51095041
20.07637132
21.00466027
23.98117673
27.91835843
32.05042904
37.55518622
44.82460313
50.99822972
55.52745967
60.87692236
67.31076167
71.00013107
71.37535527
68.80784838
69.15698156
63.79714625
51.55281409
31.14587583
0.3174173903
-30.91367175
-76.65001293
-141.0398968
-230.3332726
-359.5874184
-505.2435456
-663.9001835
-862.027784
-1124.960449
-1458.127684
-1845.069346
-2196.769719
-2569.460376
-2978.536436
-3373.852188
-3708.522479
-3929.765644
-4015.377343
-3972.27857
-3792.371145
-3469.839405
-2979.853523
-2397.387272
-1951.781418
-1462.859747
-1010.713884
-651.3395193
-402.5794298
-225.1826165
-134.5522208
-78.44981624
-45.88642868
-28.16741863
-20.20677817
-17.88705823
-15.46406415
-14.42277357
-14.16949305
-13.93891236
-13.47125646
-12.85417659
-12.32576719
-12.00277411
-11.81834726
-11.79236687
-11.67068786
-11.30846673
-10.8205654
-10.62794659
-10.77992888
-10.63562038
-10.41354835
-10.34210573
-10.40917687
-10.55041345
-10.21615195
-9.956265532
-10.02158022
-9.960936353
-9.803919025
-9.853318731
-9.892148726
-9.8537694
-7.579626606
-10.38743082
-10.56502748
-10.87935368
-11.42163629
-12.23582754
-12.7490487
18.73737526
-422005.1493
)


100
(
2.208776163
10.30456369
13.33445843
16.8448948
19.78984879
21.05765357
20.98130831
20.39819653
19.56131421
20.43570603
21.77127342
23.65689149
28.32881766
33.21569495
37.84310133
43.73547438
51.17342804
56.82349909
59.95396016
62.41206741
66.58062944
66.2743608
60.07161004
47.60686388
33.23863136
12.73558146
-20.18185042
-69.26685041
-138.1877445
-228.2612991
-329.3762214
-462.6176379
-636.454835
-876.7956436
-1181.139022
-1461.806467
-1782.353421
-2178.534307
-2628.243517
-3095.831736
-3531.252454
-3852.206987
-4083.51231
-4189.398222
-4145.566948
-3910.434645
-3442.315535
-3025.729058
-2514.575498
-1935.345977
-1369.828754
-890.7228411
-546.4202916
-339.4528053
-195.3185851
-108.7584879
-59.08982082
-32.52499781
-24.26853156
-19.51429917
-15.53822669
-13.46287511
-12.25161799
-11.82046327
-11.49995073
-11.35022096
-11.09313921
-10.73644868
-10.35569904
-10.07727479
-10.05390295
-10.04877388
-9.806440634
-9.424579677
-9.106824107
-8.992443279
-8.972233104
-8.937290982
-8.659494187
-8.449052441
-8.645131093
-8.715950911
-8.589801718
-8.22885499
-8.100914441
-8.03988693
-7.967308468
-7.93564076
-7.948949362
-7.974472597
-7.871532085
-7.22707872
-8.431489492
-8.192616097
-8.86755093
-9.250418304
-9.917976442
-10.51410402
29.32817699
-553921.4243
)


100
(
2.517079412
10.25021484
13.60087672
17.34307147
20.24917521
21.55023854
21.20143102
20.61471421
19.93950956
20.02212663
22.12558103
24.3594619
27.27575691
33.14323443
38.56190776
43.00905418
48.25579588
54.92484742
58.73834888
58.54635052
54.5319582
52.48341084
42.83283101
23.40532008
-8.23529784
-54.42583618
-105.3524659
-177.7405323
-277.9507243
-413.8905956
-613.6997082
-812.7564886
-1052.263452
-1345.768178
-1727.545301
-2172.406154
-2635.139986
-3037.475441
-3472.767492
-3878.139511
-4186.022732
-4341.497504
-4269.583386
-4087.36034
-3729.460233
-3257.033858
-2611.812906
-1926.766076
-1325.755534
-939.359715
-571.8636781
-322.4799325
-176.0647465
-88.84631805
-48.09180927
-31.37071232
-22.74690564
-16.95804712
-13.58111277
-11.72398058
-11.30759748
-10.46896299
-10.18820968
-10.00194034
-9.719480173
-9.299286172
-8.887257097
-8.62727166
-8.504903404
-8.430525172
-8.382799628
-8.274421935
-8.042196715
-7.731091374
-7.562553502
-7.551503428
-7.479288762
-7.248186342
-7.122576098
-7.145327157
-7.219883731
-7.092785058
-6.813279086
-6.702612376
-6.605249681
-6.536087345
-6.511491538
-6.519361472
-6.650959605
-6.460198384
-6.516573948
-6.373678618
-6.487532156
-6.853095472
-7.104445763
-7.504069054
-8.048749836
-8.553802272
25.5629616
-720352.9207
)


100
(
3.271470994
10.2833616
13.6423097
17.50860332
20.38998948
21.60125245
21.33014893
20.24689672
19.95091323
20.01278205
21.51391678
24.59081743
27.60013614
31.24616229
37.60067941
42.88273651
46.15082564
49.00193974
53.11864098
52.7840984
45.44344677
30.35424997
11.99621643
-16.12200687
-60.89281215
-127.7072625
-222.157137
-342.1104156
-483.5158091
-668.6205462
-911.0312879
-1241.566884
-1618.340953
-1984.004668
-2401.684366
-2890.977865
-3395.355113
-3859.054209
-4206.704858
-4421.990303
-4474.685629
-4331.241154
-4005.154896
-3397.495691
-2758.64478
-2190.924715
-1616.422689
-1049.276729
-620.9724067
-332.6418299
-175.2766532
-95.56038194
-50.73140661
-30.17896984
-19.49057466
-14.32897633
-13.58541297
-12.04144201
-10.35519608
-9.37582487
-8.747642411
-8.56858979
-8.3176451
-8.042440429
-7.787454964
-7.536602763
-7.339185291
-7.204537101
-7.191465292
-7.149265025
-6.959040558
-6.721918842
-6.552731405
-6.495911773
-6.456238801
-6.367212506
-6.172748581
-5.910464465
-5.867264606
-5.983701643
-5.937415188
-5.777076679
-5.56205787
-5.444921472
-5.396918641
-5.418835266
-5.419749448
-5.313926528
-5.322318157
-5.259928213
-5.398178561
-5.27193048
-5.631898958
-5.422332153
-5.786060816
-6.149182759
-6.587783248
-6.93513634
23.20936877
-927944.5177
)


100
(
0.7783119057
9.960358668
13.47345265
17.33920717
20.23115839
21.19757545
21.07810093
19.98628566
19.41322768
19.80709137
20.83581553
23.68127973
27.48149668
30.77637521
34.44108686
40.47687109
44.42967937
44.92621863
42.24135199
40.37300507
30.52061438
9.506622476
-25.96366203
-77.08208257
-139.6437601
-229.0879992
-354.4077511
-528.0366659
-771.9649581
-1017.835815
-1321.822691
-1698.967448
-2170.9813
-2698.654143
-3191.69624
-3646.937475
-4083.116284
-4419.381472
-4585.97904
-4522.179453
-4241.284195
-3819.544796
-3242.085849
-2575.767714
-1829.043221
-1175.520026
-757.7423765
-451.1358385
-232.4801665
-113.5988873
-56.21011086
-27.56711139
-19.4827904
-15.61149224
-13.47387138
-11.18946332
-9.305541904
-8.503304313
-8.064388618
-7.589937935
-7.400498307
-7.222268282
-6.95940183
-6.598811364
-6.280467675
-6.153743317
-6.120153144
-6.102718784
-6.05011514
-5.920791451
-5.764079708
-5.586398153
-5.460460127
-5.439393317
-5.360326726
-5.218309112
-5.087848514
-5.082491046
-5.051026416
-4.939864454
-4.720963287
-4.605606743
-4.536066231
-4.438738554
-4.298463816
-4.328787944
-4.322798716
-4.39321811
-4.333668653
-4.279902391
-4.205754067
-4.208231198
-4.099702771
-4.504218949
-4.686608147
-5.056488723
-5.422754913
-5.682423593
23.46052255
-1194052.298
)


100
(
-0.6058010965
9.51499716
13.09824667
16.91201915
19.77955045
20.76258394
20.41747471
19.54389795
18.60428077
19.14840246
20.34342354
22.11388824
26.00947027
30.1044554
32.97950303
35.43226938
39.76732796
40.39738274
34.98072329
22.53580453
6.378530341
-21.22016145
-67.35222388
-138.4288635
-241.8388273
-370.118819
-533.1616844
-749.6364237
-1038.504241
-1426.154996
-1844.343783
-2276.513253
-2771.600354
-3322.175566
-3859.944261
-4305.680724
-4587.449201
-4692.726504
-4587.29532
-4256.076956
-3690.410828
-2877.487556
-2243.339775
-1621.514572
-1057.441653
-604.4792876
-309.9750851
-145.8524212
-74.82478212
-37.88586692
-21.73261907
-16.11621682
-12.07083608
-10.1810401
-10.00400451
-8.549408298
-7.478145415
-6.76922689
-6.416308095
-6.246537721
-6.024127688
-5.787535575
-5.567211076
-5.365945936
-5.237014737
-5.142741725
-5.147622518
-5.117450535
-4.950239908
-4.784484985
-4.706476394
-4.684429356
-4.725162896
-4.639366175
-4.489577561
-4.311253112
-4.189027063
-4.179342663
-4.217184032
-4.142649234
-3.942677498
-3.844966325
-3.755488671
-3.688252209
-3.720881441
-3.692679683
-3.57916084
-3.479898195
-3.469092665
-3.390800886
-3.516211765
-3.560093994
-3.693456178
-3.573748644
-3.800771818
-4.098526088
-4.453449444
-4.656334654
43.87518044
-1521761.109
)


100
(
0.2963220547
8.894452795
12.53716194
16.289687
19.02942884
20.07915353
19.53358435
18.78535481
18.00916173
17.79052586
19.42402371
21.21154997
23.37735164
27.72839494
31.44449864
32.76482837
31.95602224
31.81053905
25.28069706
8.591269998
-21.44000008
-65.3542273
-124.8370678
-213.822184
-341.8881318
-523.4705073
-767.7925959
-1038.047598
-1377.151786
-1805.165945
-2334.424451
-2920.183928
-3437.651685
-3939.297088
-4387.829368
-4689.340667
-4772.324237
-4539.507052
-4176.318705
-3604.562001
-2922.787595
-2143.036127
-1388.590246
-811.9918519
-497.5425367
-256.6936268
-118.742467
-54.30100211
-27.15014907
-14.93137505
-13.03168816
-11.32723495
-10.09946874
-8.381517187
-6.747915893
-6.41410899
-5.834329395
-5.498713959
-5.357484244
-5.2187271
-4.982396684
-4.664293623
-4.423440971
-4.352475623
-4.344794634
-4.35339288
-4.342607645
-4.23436861
-4.112158053
-3.973743121
-3.879276598
-3.888432865
-3.812534651
-3.745582179
-3.676874695
-3.669977527
-3.692153333
-3.6186221
-3.423973628
-3.2526245
-3.235331559
-3.201574798
-3.098625812
-2.994128127
-2.937535642
-2.909295249
-2.949932153
-2.908024638
-2.832932872
-2.827534179
-2.81103999
-2.668193429
-2.646046002
-3.101166678
-3.063972016
-3.262942537
-3.590687153
-3.760563445
85.43372277
-1916664.723
)


100
(
1.403799002
8.435405165
11.89703705
15.50470861
18.14583552
19.14729973
18.70964729
17.6354429
17.14901676
16.92929839
17.68385276
19.91590689
21.90775351
23.91333767
27.72506459
29.81519762
27.60060155
20.48275108
10.16893269
-10.02266111
-47.05768271
-107.1762911