/*--------------------------------*- C++ -*----------------------------------*\
| =========                 |                                                 |
| \\      /  F ield         | OpenFOAM: The Open Source CFD Toolbox           |
|  \\    /   O peration     | Version:  2.3.1                                 |
|   \\  /    A nd           | Web:      www.OpenFOAM.org                      |
|    \\/     M anipulation  |                                                 |
\*---------------------------------------------------------------------------*/
FoamFile
{
    version     2.0;
    format      ascii;
    class       dictionary;
    location    "constant";
    object      la_r16;
}
// * * * * * * * * * * * * * * * * * * * * * * * * * * * * * * * * * * * * * //

la_r16_table
100
(

100
(
2.730144591
2.181477352
1.314903712
0.6213931412
0.009823899391
-0.2650476719
-0.5411187565
-0.6689183104
-0.7845318721
-0.8022037655
-0.8417060283
-0.8147574586
-0.7947704625
-0.7735709653
-0.7355051955
-0.6969152689
-0.6569028111
-0.6171645275
-0.5744317767
-0.5278765233
-0.4912714054
-0.4557623931
-0.4167092105
-0.3791671564
-0.3525738502
-0.3234084286
-0.2914371265
-0.2635768763
-0.2428646672
-0.2201283769
-0.1953278923
-0.177857747
-0.1644978972
-0.1497794307
-0.1335609696
-0.1186763251
-0.1084243519
-0.09706762938
-0.08468651076
-0.07375707437
-0.06723510147
-0.06009679225
-0.05224055186
-0.04546521502
-0.04170854974
-0.03742068617
-0.03253222623
-0.02718411035
-0.02458400818
-0.02151457543
-0.01800798109
-0.01456917134
-0.01291133054
-0.01095662794
-0.008700247422
-0.006916004512
-0.005904434057
-0.004777948315
-0.003732694106
-0.002939574865
-0.002341474553
-0.001890635833
-0.001483443101
-0.001032977426
-0.0006646172524
-0.0003889593695
-0.0001403036394
9.785490121e-05
0.0002735607773
0.0003667202599
0.0004723957128
0.0006077591406
0.0006387868
0.0006153981427
0.0007425437683
0.0007293467207
0.0006431448623
0.0007522120196
0.0006649216808
0.0006340034965
0.000618372822
0.0004687679029
0.0004792037264
0.0003525238022
0.0003217183162
0.0002225488016
0.0001856198327
0.0001223473161
9.097532071e-05
6.848800361e-05
5.021226442e-05
3.552281888e-05
2.42254144e-05
1.552324885e-05
9.508133837e-06
5.421283323e-06
3.30811659e-06
1.582554123e-06
4.020273411e-07
1.041724249e-19
)


100
(
2.860102322
1.243445615
0.5945925074
0.2172977674
0.06396437984
0.00489192307
-0.02409156197
-0.03823861528
-0.03994133784
-0.03447982975
-0.03731765735
-0.02352833067
-0.01917692091
-0.0149740867
-0.008360188227
-0.005436803058
-0.003090405731
-4.086398964e-05
0.0008055266853
0.001911248145
0.003043535326
0.003048777941
0.003371951766
0.003925034632
0.004033466016
0.003518246415
0.003620510798
0.003759576934
0.003560177921
0.003045562037
0.003017033455
0.002935988897
0.00265818738
0.002295519862
0.002129592156
0.001977662357
0.001804001903
0.001558779329
0.001385801186
0.001275807939
0.001137777183
0.0009697349995
0.0008323611125
0.0007407123128
0.0006465399028
0.0005444822188
0.0004581487793
0.0003966518546
0.0003442595339
0.0002898305653
0.0002404726979
0.0002009052691
0.0001655976748
0.0001340952465
0.0001075533969
9.008714187e-05
7.812941582e-05
6.888243148e-05
4.586962397e-05
-1.792396002e-05
-0.0001068335698
-0.0001055499707
-3.868607929e-05
-2.093967496e-05
-8.57654729e-05
-8.469745761e-05
-4.80329578e-05
-5.61779187e-05
-9.083784724e-05
-6.430930938e-05
-4.410974789e-05
-6.599019791e-05
-6.252737662e-05
-4.162571587e-05
-9.27327551e-05
-0.0001315518744
-6.500705671e-05
-6.587107233e-05
-9.574473888e-05
-4.330153919e-05
-7.004364728e-05
-5.035378808e-05
-3.994102427e-05
-7.533178828e-05
-2.964720819e-05
-4.089996471e-05
-4.474659692e-05
-2.354045391e-05
-4.619973927e-05
-2.331308684e-05
-3.092549815e-05
-2.332379962e-05
-3.895327254e-05
-3.153180848e-05
-4.689357285e-05
-3.264550345e-05
-3.288844013e-05
-2.583965065e-05
-1.411998887e-05
0.0003533415601
)


100
(
2.934279238
0.6068510643
0.235065113
0.0793844516
0.04810230556
0.03013200169
0.02560337654
0.02464328121
0.02419244645
0.02284707935
0.02407986232
0.02252782266
0.02256908409
0.02150146146
0.01965061716
0.01864580194
0.01756806462
0.01619551129
0.01438225129
0.01378167234
0.01257892114
0.01131857357
0.01032482016
0.009595316317
0.008696121561
0.007748628318
0.007075854734
0.006435789917
0.005788111308
0.005144934811
0.004641369469
0.004227400728
0.003775777386
0.003359447789
0.003005934469
0.002722289725
0.002432157527
0.00217769196
0.001940468942
0.001751849755
0.001576165028
0.001396740479
0.001243047136
0.001083199645
0.0009721939756
0.0008572544148
0.0007720437505
0.0006796288647
0.0006015116964
0.0005427604891
0.0004954171898
0.0004495214561
0.0003647859895
0.0003341070596
0.0002928373089
0.0002741908452
0.0001912801224
0.000182654878
0.000158200976
0.0001314334239
2.273148839e-05
-6.099094606e-05
-9.901464951e-05
-5.152909003e-05
-1.154452531e-05
-3.116254215e-05
-4.582045088e-05
-3.560622423e-05
-2.75527484e-05
-3.324923407e-05
-1.897149416e-05
-1.408034737e-05
-2.40468759e-06
1.688966761e-05
1.206244484e-05
-6.468597596e-05
-0.0001390437966
-5.600408509e-05
-2.337002671e-05
-4.615332308e-05
-1.783968445e-05
-3.057224647e-05
-1.363640618e-05
-5.638688598e-05
-1.858391896e-05
8.735961135e-06
-1.12948025e-05
2.157826882e-05
4.63489892e-05
4.841098961e-05
7.04126697e-05
0.0001044380961
0.0001397498871
0.0001929860006
0.0002624471533
0.0003302839073
0.0004067247649
0.0001128221393
-4.408440456e-05
0.001794454028
)


100
(
2.952480702
0.3171932006
0.08869903356
0.04793537147
0.03108681133
0.02291154544
0.02669510708
0.02301641808
0.02607750422
0.02400811264
0.02404006576
0.02297476894
0.02047317911
0.02023149236
0.01872797909
0.01690445254
0.01597450549
0.0148934965
0.01376630329
0.01240337782
0.01186042736
0.01092251525
0.01005193547
0.009191652116
0.008650103016
0.007946210762
0.007279440322
0.006640279569
0.006163760854
0.005640700877
0.00519227345
0.004711068879
0.004380871895
0.004013729618
0.0036783827
0.003345528145
0.00304405248
0.002797405137
0.002564275356
0.002364190021
0.002149603609
0.001956710507
0.001830834586
0.001679415446
0.001577349593
0.001336860268
0.001266168126
0.001147688767
0.001117414499
0.000920815076
0.0008771759407
0.0007709736848
0.0007498819714
0.0006443482885
0.0006053651702
0.0005517696745
0.0005575573063
0.0004847340771
0.0004546853066
0.0004565981665
0.0004651284002
0.0004249025698
0.0004008715077
0.0003537092503
0.0003491949372
0.0003430837215
0.0003616264002
0.0003623370022
0.0003683186692
0.0003532776472
0.0003632748899
0.0003488931201
0.0003235550769
0.0003026661384
0.0003094837084
0.0003528971319
0.0003782617254
0.0004728657391
0.0004878781076
0.0004745313127
0.000569237005
0.0006426279263
0.000613345264
0.0007250123549
0.0008221646432
0.0009257058561
0.001090733258
0.001284347681
0.001510842658
0.001839669705
0.002313183589
0.002756764176
0.003371672603
0.004095829899
0.005051667366
0.006272976034
0.007244045847
0.002408919493
0.0005044988324
-0.002879469421
)


100
(
2.915040017
0.3041374518
0.06150831169
0.02688437889
0.02234738003
0.02196294442
0.02283382995
0.02259071053
0.0220196381
0.02242286312
0.02029389856
0.02097270815
0.01974216089
0.01809832633
0.0176697831
0.01655808075
0.01525361569
0.01458676942
0.01379621847
0.01302279963
0.01200483154
0.01152947361
0.01085718436
0.01023774786
0.009438643642
0.008971962348
0.008388635248
0.007862504725
0.007225474945
0.006741676201
0.00626969637
0.005847179924
0.005463528502
0.004928903921
0.004693941963
0.004362857584
0.004182363455
0.003674778473
0.003507152571
0.003247007194
0.00301546634
0.002846073694
0.002573213709
0.002486114157
0.002347920591
0.002363393564
0.002065076502
0.002078424735
0.001985495376
0.001995311242
0.001848774821
0.00181292412
0.001745560808
0.001728829678
0.001666946714
0.001611409583
0.00160127115
0.001550032197
0.001515140551
0.001438109362
0.001426768232
0.001434856859
0.001436040491
0.001426687246
0.00143195391
0.001419071055
0.001444291164
0.001433039326
0.001446517832
0.001457674153
0.001513782675
0.001600026774
0.001660753192
0.001774256398
0.001948249072
0.002173294679
0.002403183017
0.002597389375
0.002717372082
0.002993704532
0.003282534074
0.003581225077
0.00410252609
0.004726780952
0.005426413852
0.006182750213
0.007185752579
0.008527908487
0.01010377038
0.0120862912
0.01402752594
0.01672774473
0.01962706945
0.02384762181
0.02903514717
0.03551844304
0.03710591286
0.01351449558
0.004387258153
-0.02497274947
)


100
(
2.822845042
0.2446143574
0.04139866843
0.01797141646
0.01417215132
0.01901139955
0.01772720695
0.02038236638
0.01907615194
0.0206982565
0.02021333758
0.01905122254
0.01924177921
0.01829443605
0.01726583737
0.01689970381
0.01615392874
0.0151656889
0.01466278779
0.01411105527
0.01353722382
0.01268877706
0.01217258363
0.01169223487
0.01116217217
0.01038685033
0.009654082421
0.009097194124
0.008585355223
0.00814778843
0.007435350041
0.007100230132
0.006631399397
0.006490565701
0.005706641358
0.005615385366
0.005216459693
0.005435732895
0.004711727939
0.004765758712
0.004476706269
0.004465191628
0.00427119974
0.004132775041
0.004019107289
0.004058939701
0.004089558871
0.003899367782
0.003947791952
0.003906512476
0.003925457273
0.003861716626
0.003813693708
0.00374132665
0.003703004055
0.003623367642
0.003645782097
0.003583157372
0.003635057474
0.003700160573
0.003738053781
0.00373042554
0.003742021642
0.003824730454
0.003983194196
0.004107026667
0.004181506519
0.004247014243
0.004375802033
0.004594776375
0.004789080692
0.005085916391
0.005455590719
0.006037561321
0.006732542814
0.007459422712
0.008002867849
0.008880532063
0.009874255494
0.01100016161
0.01224831995
0.01388691173
0.01618259447
0.01844748362
0.02108184068
0.0238695512
0.02711114018
0.03073157342
0.03447618022
0.03922765312
0.04357307587
0.04820437804
0.05420277616
0.06148281702
0.07087069766
0.08421738948
0.07847369046
0.0402458197
0.01786990983
-0.08977443922
)


100
(
2.805023357
0.1882522512
0.02811401306
0.01127698673
0.01428189338
0.01623111439
0.01674001199
0.01846997091
0.01902728257
0.01845664388
0.01984333665
0.0192127224
0.0189610686
0.01894082319
0.01821103791
0.01752202962
0.017323578
0.01680152445
0.01595388316
0.01542171767
0.0150479644
0.01454058287
0.01383710818
0.0130704919
0.01282617833
0.01235303864
0.01141996998
0.01049699787
0.00986030465
0.009463268973
0.009260117341
0.008477749567
0.008406087886
0.008102600599
0.008100115265
0.007359354688
0.007428701309
0.007311105847
0.007506524701
0.007006224116
0.007155804319
0.007041643815
0.007088971389
0.007044218451
0.006880962201
0.007051810035
0.006938460666
0.007215260753
0.006941246956
0.007147430121
0.007009512019
0.007140058209
0.007154156802
0.007122881741
0.007157789417
0.007241313363
0.00739447165
0.00751115158
0.007655911157
0.007850035801
0.008114328921
0.008461018887
0.008906789554
0.009188558398
0.009495570304
0.009862787887
0.01040381752
0.01115776627
0.01189713161
0.01265520239
0.01348742021
0.01466083501
0.01610128665
0.0175077611
0.01908577348
0.02113486824
0.02312231595
0.02544628081
0.02773534621
0.03078346432
0.03470452811
0.03852000431
0.04202110704
0.04522957558
0.04889492061
0.05257642661
0.0550376242
0.05729001002
0.0583664411
0.05915326257
0.06072098098
0.06263835402
0.06413940515
0.06801952337
0.0748561322
0.08777065663
0.08024111086
0.05984703892
0.03970545455
-0.22939707
)


100
(
2.828266135
0.1302695167
0.01644162684
0.008786514499
0.01195020009
0.01231121607
0.01586613038
0.01551669003
0.01845754079
0.01850171295
0.01928406593
0.01996302774
0.01926449185
0.01960732537
0.01952247782
0.01889551478
0.01831038602
0.01820451118
0.01774812475
0.01702033448
0.01623419849
0.01608966137
0.01561363406
0.01526469787
0.01412615158
0.01421639704
0.01391624668
0.01279988229
0.0118817893
0.01110104005
0.0115280485
0.01094847253
0.01074823019
0.01073027005
0.01102663978
0.01087979762
0.01046785953
0.0106401446
0.01083813389
0.01100777061
0.01081011968
0.01099057782
0.01108601707
0.01116591888
0.01123368233
0.01126375022
0.01139393247
0.01143000981
0.01166155202
0.01179317032
0.01188353587
0.01209877618
0.01232631493
0.0127707343
0.01331967924
0.01364565922
0.01410112438
0.01458639178
0.01526862812
0.01612085414
0.01677667228
0.01754021613
0.01836951716
0.01948732182
0.02085308809
0.02240342456
0.02408446577
0.02574321859
0.02781962274
0.03065578131
0.03372456579
0.03651643947
0.03952693593
0.04235724496
0.04500005005
0.04796798902
0.05069507988
0.05443285023
0.05848300961
0.06170586849
0.06312141489
0.06383248493
0.06452525978
0.06490751511
0.06399904156
0.06217346049
0.06027615093
0.05895533536
0.05817574181
0.05887509063
0.06011767442
0.06211621827
0.06771619691
0.07679937288
0.08916860873
0.1079217122
0.07247262574
0.04654410568
0.04020530998
-0.5135382757
)


100
(
2.81095055
0.10685002
0.01083812091
0.007784557726
0.01008037855
0.01130789103
0.01456741175
0.01581884758
0.01733719114
0.01897106052
0.01859392555
0.0204084028
0.02080551963
0.01984695193
0.0205366675
0.02035040535
0.01962383293
0.01914953303
0.01922235829
0.01863350731
0.01820404333
0.01700638872
0.01730514384
0.01699831747
0.01710174927
0.01620244324
0.01633242826
0.01650397143
0.01525410156
0.01438971379
0.01385651446
0.01478784371
0.01427275029
0.0145147459
0.01491114325
0.01519937552
0.01538242906
0.01501212539
0.01582172614
0.01571050315
0.01635762835
0.01609962829
0.01663551023
0.01665581174
0.0170278761
0.01735349373
0.01752730604
0.01785616509
0.01825740095
0.01877872199
0.01964489031
0.02055177845
0.02143366886
0.02230589194
0.02345294156
0.02478317657
0.02647876678
0.02788187037
0.02927135699
0.0308471244
0.03278709915
0.03504716725
0.03750172568
0.04016165421
0.04290750628
0.04608181562
0.05021146342
0.05485169035
0.05905785227
0.06318680545
0.06713007988
0.07008966888
0.07270243903
0.07468936031
0.07621248982
0.07828169514
0.07953411025
0.07951728143
0.07737820354
0.0745584707
0.07212737571
0.07062083188
0.06970091312
0.06743859852
0.06711635674
0.06709843927
0.07006563774
0.0693298607
0.07921062392
0.08843855257
0.09489346201
0.1029397214
0.1114134936
0.1241618789
0.1509667071
0.1635862153
0.1046073608
0.05491967461
0.03019791512
-0.908624711
)


100
(
2.753599838
0.1251077621
0.01034198304
0.005822837163
0.006581184548
0.01081247191
0.01205462638
0.01555154124
0.01593037586
0.01897644737
0.02008717385
0.01938525505
0.02141812061
0.02176651102
0.02034227277
0.02123573328
0.02099913747
0.02057911957
0.01934912079
0.0197641487
0.01950281037
0.01986134413
0.01837370931
0.01922721515
0.01928815312
0.01980480571
0.01977706978
0.01961843341
0.0204012681
0.01904850625
0.01793654294
0.01869494986
0.01931483059
0.01953908346
0.01988526496
0.02099142238
0.02112503113
0.02174394509
0.02171276678
0.02257655491
0.02272394067
0.02358440164
0.02383801925
0.02419812333
0.02482620299
0.02556672875
0.02670108445
0.02809684931
0.02926668094
0.03080841444
0.03233953032
0.03431444352
0.03673577827
0.03947728865
0.04180753194
0.04441862499
0.04735379763
0.05079110556
0.05448599051
0.05837023946
0.06219172873
0.06590680111
0.07016393182
0.07556553091
0.08142378792
0.08630554033
0.09062416181
0.09473610518
0.09740281256
0.09841049749
0.09855557553
0.09800774867
0.09685273209
0.0957763982
0.09366074157
0.09127139032
0.08725906637
0.0836274658
0.08213867418
0.08295533078
0.08503445653
0.08641112357
0.08936384544
0.09309555766
0.09810271723
0.1020069877
0.1050432776
0.1165007218
0.125103703
0.1314490344
0.1382343948
0.1408927949
0.1544669957
0.1636200572
0.1975567219
0.1949460114
0.1362230598
0.08377318475
0.04943435238
-1.449077252
)


100
(
2.656943961
0.1154269334
0.008473183311
0.003976563661
0.006102048998
0.009632032627
0.01135215182
0.01487454382
0.01692757205
0.01762789582
0.02026866998
0.02093896504
0.02041910787
0.02188418397
0.0223689077
0.02033739872
0.02142381473
0.02124315738
0.0213959676
0.01993548858
0.02108651967
0.0212151321
0.02221460515
0.02156840517
0.02225062559
0.02303968029
0.02382062665
0.02476261466
0.02441194264
0.0248003855
0.02578022349
0.02539556179
0.02479570292
0.02614776958
0.02663057904
0.02781749718
0.02865223999
0.02950398476
0.03042643513
0.03094491973
0.03167768371
0.03258124196
0.03366173073
0.03561794833
0.03708858823
0.03899760051
0.04108638544
0.04378752837
0.04700641775
0.05115340328
0.05476689769
0.05855726498
0.06253239356
0.06731077362
0.07254415971
0.07844190783
0.08371588131
0.08898870607
0.0941126566
0.09976850377
0.106456189
0.1128792982
0.1175807533
0.1216962706
0.125174078
0.1265898038
0.125234485
0.1220511713
0.1187831238
0.1150631723
0.1116174945
0.1078676288
0.10595105
0.1035161441
0.1010753298
0.09972986937
0.102456626
0.1073505318
0.1127623618
0.1168945734
0.1198544937
0.1235005986
0.1305382525
0.1406591731
0.138096525
0.1468738858
0.1465031347
0.1583594121
0.1630945429
0.1694663178
0.1719055211
0.1731654232
0.1653122227
0.1650917987
0.1910691485
0.1811522664
0.1385176911
0.1007586051
0.06859993176
-1.889299511
)


100
(
2.588414733
0.09824504716
0.005857134873
0.0009307438432
0.005445684173
0.007598719305
0.01133755291
0.01264102378
0.01681912232
0.0179368094
0.01945197218
0.02104779429
0.02091894488
0.02061401554
0.02169924704
0.02247812601
0.0199652904
0.02155686015
0.02183152206
0.02317661709
0.02154123858
0.02346993354
0.02420965781
0.02565418568
0.02636654899
0.02661276666
0.02832346997
0.02943978146
0.03083462371
0.03171560287
0.03257222845
0.03015577073
0.03392428596
0.03435406615
0.0357326107
0.03655334203
0.03804317278
0.03909231502
0.04067129323
0.0426913256
0.04442559601
0.04649923368
0.04919661202
0.05206467606
0.05603780389
0.06108374461
0.06602381308
0.07071709733
0.07623607134
0.08254036259
0.09001318683
0.09806856474
0.1054713678
0.112073941
0.1186318465
0.1248561541
0.1322754391
0.1404716104
0.1466899294
0.1512095262
0.1545500582
0.1567441066
0.1564975802
0.1526099656
0.1464044486
0.1400665479
0.1336717333
0.128823456
0.1243296253
0.1250599198
0.1243126545
0.1250814897
0.1243356171
0.126420063
0.1323148582
0.1387098637
0.1433452071
0.1479943076
0.15058592
0.1541852524
0.1621394802
0.1695240714
0.1692285174
0.1724093725
0.1715746837
0.175703098
0.15797841
0.1648844614
0.1665484643
0.1540646529
0.1466338705
0.1262460673
0.09697085503
0.0901096009
0.08495956503
0.09874020784
0.09947085233
0.08684230109
0.07287665292
-2.272309942
)


100
(
2.566978276
0.07525991597
0.001848280369
0.001318756048
0.004332556394
0.006240747445
0.01066033483
0.01294116985
0.01562203525
0.01836554532
0.01806319796
0.02034881843
0.02111310172
0.02007771
0.02002437826
0.02114950503
0.02261667812
0.02017224738
0.02233844107
0.02357124728
0.02575520795
0.02523512333
0.02697165722
0.02875634746
0.03049906119
0.03259054487
0.0326801843
0.03481956374
0.03653866669
0.03826258907
0.04040165633
0.0409071481
0.04149918354
0.04353169069
0.04499258094
0.04732499543
0.05034617977
0.05170963663
0.0550229939
0.05830191768
0.06280197379
0.06835499442
0.07377684191
0.07981301255
0.0863380425
0.09406227827
0.1031426457
0.1136236213
0.1233786043
0.1326902316
0.1417766323
0.1505655003
0.1589358844
0.1686332251
0.1752328344
0.1809284301
0.1849931881
0.1880248399
0.189520392
0.1882542199
0.1811035115
0.1743359451
0.1648105613
0.155923999
0.148567156
0.1416537231
0.1429737893
0.1443478465
0.148561905
0.1534801682
0.1570097983
0.1612402845
0.1655555266
0.1700455994
0.1761508346
0.1837736468
0.1840698123
0.180091543
0.1865190004
0.1969229144
0.199801308
0.1923526612
0.1855031223
0.1873815265
0.1850003639
0.1565703376
0.1428761711
0.1409977018
0.1046205031
0.06375094384
0.02606961563
-0.01398985891
-0.05353778443
-0.09102426441
-0.1355728125
-0.04261001606
-0.02003405189
0.03317852192
0.05183982947
-1.31558688
)


100
(
2.519528909
0.07046015465
0.001424733725
9.763004061e-05
0.00254851375
0.006275477574
0.008824913454
0.01282218296
0.013645534
0.01752586859
0.01912360857
0.01714496735
0.01984500106
0.0203079554
0.01878900317
0.01942761509
0.02108098844
0.02348311921
0.02179410322
0.02426017289
0.02675256809
0.0294257204
0.03052121681
0.03171224929
0.03483982913
0.03698843093
0.03962979959
0.04137105592
0.04243426416
0.04531031523
0.04744816457
0.05003275014
0.05299389022
0.05378578356
0.05695972634
0.06070704401
0.06499525365
0.07119201933
0.07699570231
0.08304209609
0.0903986502
0.09921116876
0.1094656036
0.1219029647
0.1336233514
0.1453615196
0.1576196837
0.1706155688
0.1829288511
0.1953258167
0.2042345087
0.2116581187
0.2173698154
0.2220690644
0.2245324617
0.2257143956
0.2188782676
0.216094997
0.2068138128
0.1952980136
0.1850767857
0.1727253359
0.1642460658
0.1635131379
0.1646995761
0.1695847525
0.1760524194
0.1817890463
0.1857131669
0.1895481611
0.1939933347
0.2000666198
0.2083755065
0.2149240987
0.218342197
0.2173290009
0.2184581444
0.2167224502
0.2131420341
0.2153715244
0.2019450742
0.1865610909
0.1865740186
0.1678855799
0.1264408565
0.09788329444
0.09648593939
0.04571537751
-0.04140384945
-0.09793467657
-0.1815211811
-0.3442619348
-0.399145844
-0.4162771156
-0.4449138882
-0.2803602672
-0.2044084517
-0.1018254194
-0.01615700162
-0.7072818348
)


100
(
2.446578238
0.07558088754
0.0003870408386
-0.0007348833753
0.001319371009
0.005533811434
0.007765033469
0.01197921544
0.01442023454
0.01454026049
0.01773978222
0.01837010603
0.01611989903
0.01850605809
0.01954086914
0.01798126406
0.01953056243
0.02219805957
0.02527601935
0.02512298559
0.02735294404
0.03135535848
0.03435699674
0.03750157722
0.03781214579
0.04216029618
0.04488510847
0.04800358566
0.05150116051
0.05283711716
0.05590111068
0.05949952276
0.06354642791
0.06889055426
0.0748352577
0.07971223497
0.08790451564
0.09625015258
0.1073534844
0.1205535356
0.1339086552
0.1466746503
0.1616184501
0.1775880364
0.1953596651
0.2133359247
0.2281641501
0.2398360031
0.2502586366
0.2571636463
0.2632093354
0.2663912296
0.2617068672
0.2594417598
0.255011931
0.244774339
0.2339278867
0.2204341428
0.2033028095
0.196554502
0.1882171596
0.1877536619
0.1901313263
0.1932831339
0.2069131593
0.2134273884
0.2200297296
0.2212443864
0.2213284068
0.2280188976
0.2372988817
0.2430415229
0.2438532101
0.2423135419
0.2397738039
0.2389828998
0.2416987183
0.2373817083
0.2213656069
0.1925251819
0.1777266282
0.1594466468
0.1365714147
0.07847830809
0.02652798222
0.00243186734
-0.04041786301
-0.1114342844
-0.1913507469
-0.3342409101
-0.4470443138
-1.311492662
-0.8027347648
-0.8648784456
-0.8795060436
-0.6438272077
-0.4991888019
-0.3229520771
-0.170686883
3.974170991
)


100
(
2.34859302
0.07022766728
-0.0004921652994
-0.002292681297
0.001144877288
0.004161122205
0.007823679391
0.009498434292
0.01352856748
0.01424955145
0.01470373776
0.01645461673
0.01638978531
0.01468091527
0.0174147319
0.01944606181
0.01853825754
0.02066899778
0.02472948064
0.02827219431
0.03022431549
0.03163891917
0.03742150633
0.04095128506
0.04519192325
0.04735940819
0.05053789024
0.05500534622
0.05890546037
0.06340827192
0.06887051985
0.07175522031
0.07918011194
0.08669861424
0.09664337475
0.1097185204
0.1221983677
0.1361507436
0.1519211156
0.1701331732
0.1907037332
0.2139102375
0.2338750666
0.2530979038
0.2705007988
0.2861644029
0.2980190029
0.3097209134
0.3083982383
0.309005408
0.3045346987
0.2983288807
0.2874121811
0.2754430306
0.2583113829
0.247816542
0.2336889215
0.2211638587
0.2177281134
0.2097284128
0.2140101509
0.2262178107
0.2350234657
0.2471167014
0.254306567
0.255889125
0.2581335315
0.260635053
0.2628747515
0.2655033034
0.2724963701
0.2797264994
0.2680448489
0.2541035104
0.252893633
0.2548598075
0.2422025804
0.2195336147
0.1907420563
0.16360616
0.1374348718
0.09236484408
-0.003757644736
-0.05920721607
-0.1008564782
-0.154734263
-0.2586347654
-0.390327989
-0.5466798964
-0.6408521351
-0.7779865036
-0.7613012074
-1.289975762
-1.193063172
-1.28468835
-1.116272273
-0.9101196138
-0.6529725492
-0.4369352472
11.50496002
)


100
(
2.27941172
0.06051598291
-0.001668557087
-0.002763600129
0.0004011531929
0.002523903726
0.007068947177
0.009202414216
0.01146628603
0.01355177023
0.01224465656
0.01370608206
0.01473857057
0.01430788068
0.01372650491
0.01722690966
0.02037008066
0.02079717538
0.02292059659
0.02864030756
0.03262370104
0.03712097225
0.03744486734
0.04464468402
0.04903021788
0.05414803043
0.05957178811
0.0617656021
0.06818735676
0.07444395063
0.08198060875
0.09299915766
0.1027201054
0.1143692551
0.1296501351
0.1473046079
0.1683378236
0.193721095
0.2171687361
0.2408396477
0.2660732222
0.291828297
0.3162052386
0.3372860639
0.3488441576
0.3551555632
0.3586107414
0.3560526151
0.3499673703
0.3376899554
0.3154687303
0.3067003733
0.2923149828
0.2775963341
0.2620539087
0.2542082366
0.2390601905
0.2405704837
0.2418934826
0.2496005841
0.263556338
0.2708372794
0.2906908125
0.295349633
0.3002294728
0.2980805629
0.2953002658
0.2997875142
0.3034925722
0.302373709
0.2954143834
0.2772097801
0.2697655395
0.261552637
0.2564647146
0.2550658162
0.2268741801
0.174302176
0.1375820138
0.09411322502
0.02556067357
-0.04957058443
-0.1352307718
-0.1992322813
-0.2819664942
-0.4568795193
-0.5925351285
-0.7110376428
-0.9244965045
-1.129236098
-1.33357234
-0.5083421402
-1.843864827
-1.873898061
-1.654660721
-1.619207397
-1.433599622
-1.105752737
-0.8445292043
22.23279186
)


100
(
2.229277576
0.04894673115
-0.003062681869
-0.003237442725
-0.0004501592329
0.002532107061
0.005300323373
0.008681568443
0.008753480956
0.01156143531
0.0122399284
0.008860958766
0.01214075444
0.01334826041
0.01304621923
0.01365386096
0.01836463252
0.022201222
0.02482616447
0.026290877
0.03406269437
0.03878668263
0.04469432492
0.04760262083
0.05307292136
0.05997130925
0.06653542619
0.07411023116
0.08245187136
0.08953891333
0.1025792095
0.116185022
0.1349447393
0.1577782842
0.1786899122
0.2035897137
0.2317410912
0.2625204314
0.2966957237
0.3317110535
0.3580712054
0.380668496
0.3983435724
0.4085289775
0.4133513054
0.4095042291
0.3847347273
0.374600355
0.3598839898
0.3406356542
0.3229175462
0.3066867379
0.2868157807
0.2789726833
0.2707719538
0.2675755927
0.2710014906
0.2688467256
0.2834520721
0.3039581591
0.3152724765
0.3287787869
0.3316681561
0.3330963516
0.332381049
0.3350040025
0.3348082629
0.3308338132
0.333000452
0.3291516883
0.3057839491
0.2805145663
0.26656921
0.2561410297
0.2362730965
0.1833003372
0.1433278275
0.1101421171
0.08514419416
0.01512384337
-0.1287855683
-0.2640511001
-0.3323290691
-0.3829627693
-0.5336635245
-0.7169771144
-0.8948126491
-1.089329553
-1.315749528
-1.603596656
-1.815578449
-1.721224172
-2.402673041
-2.107667063
-2.259580783
-2.134353708
-1.945976132
-1.629417433
-1.410145279
37.66797577
)


100
(
2.164100457
0.05096991023
-0.003268583176
-0.003773329748
-0.001838234291
0.001891597728
0.003876712836
0.007394327874
0.008826122877
0.007412502206
0.009740283544
0.01014792972
0.00610347123
0.01067537033
0.012839743
0.01331713439
0.01461096535
0.02096449038
0.02542615904
0.03097610257
0.03127195494
0.04076789084
0.04667532533
0.0538422097
0.06106327733
0.06527238387
0.07528854232
0.08564183376
0.09821568726
0.117295767
0.1312231301
0.153620637
0.1779487211
0.2086807898
0.2441698217
0.2833903744
0.3166860528
0.3543562548
0.3891724232
0.4228951109
0.4482481808
0.4677216999
0.4605601735
0.4592071182
0.4444206628
0.4294740905
0.4018045187
0.373805651
0.3407444768
0.3373780938
0.3213909369
0.3067557575
0.3035043544
0.2924286703
0.2832650713
0.2931236518
0.308896975
0.3202586888
0.339415365
0.3473846009
0.3638812443
0.3665091551
0.3679853218
0.3664351923
0.3648564234
0.3691133043
0.3668336492
0.3584858217
0.3355107386
0.3045117565
0.2840436753
0.2640040593
0.2442559322
0.2309214204
0.1942193084
0.1244377896
0.05812689922
0.01386757314
-0.07917758134
-0.1964164978
-0.3104510444
-0.415253017
-0.4972290741
-0.6744114911
-0.8459430868
-1.027939951
-1.272907538
-1.57376588
-1.942246027
-2.069189529
-2.445382776
-2.542754814
-2.475920695
-2.642585297
-2.57953328
-2.620574427
-2.43182714
-2.145819481
-2.019098124
57.70230202
)


100
(
2.084217369
0.04925778481
-0.003795880562
-0.004295649118
-0.001852710207
0.001017339864
0.00371427608
0.004725967805
0.007303122072
0.006892742083
0.005579547215
0.007146208498
0.007902449153
0.004685675966
0.01006133501
0.01339615316
0.01534583579
0.01670442362
0.02552718443
0.02949233433
0.0366396688
0.04072307678
0.04887795779
0.05791799968
0.06718460816
0.07812116628
0.08945477595
0.1017791663
0.1216848228
0.143782429
0.1747320293
0.2079126856
0.2414691669
0.2805137885
0.3240360334
0.3705480503
0.4194490338
0.4595401004
0.4905320609
0.5123369416
0.5240571524
0.5202119903
0.5128564644
0.4758679601
0.4394033798
0.4170318834
0.3954054271
0.3665346957
0.3507637366
0.3345908153
0.3168698006
0.3201304686
0.3136789645
0.3232847941
0.3253350094
0.3200818066
0.3495773384
0.3730018599
0.3875464101
0.3975969578
0.3942369185
0.3908925512
0.3907405831
0.3868983502
0.3876981809
0.3749868102
0.374174572
0.3545554674
0.3279716001
0.2969474069
0.2726503166
0.2443728219
0.2029487181
0.1267499311
0.04740312338
-0.004301784489
-0.04323767087
-0.08187999275
-0.202427119
-0.396430626
-0.5541160958
-0.6590673107
-0.777006024
-0.9748199188
-1.227482177
-1.51778491
-1.789717402
-1.963943833
-2.269811462
-2.477634056
-2.870311768
-2.786669006
-2.96870072
-2.050622202
-2.62119189
-2.993931833
-2.923250527
-2.622098809
-2.586476738
82.51524051
)


100
(
1.989953048
0.04485069551
-0.004219840469
-0.004903963668
-0.002364335975
-0.0005159370114
0.002937825743
0.004041116224
0.00477764735
0.005438041204
0.003435953918
0.003446288891
0.005031701619
0.006055885259
0.004091515465
0.01072645046
0.01477415016
0.01921195146
0.02004055743
0.02999350342
0.03720416343
0.04582975188
0.05396541081
0.0611645684
0.07446682208
0.08867213735
0.1068469396
0.1320282953
0.1525623581
0.1864753557
0.2235513165
0.2702575901
0.3234504904
0.3761214452
0.4249565937
0.476659528
0.5224451326
0.5600115326
0.5836519366
0.5850009716
0.5667606949
0.5474784664
0.5130415494
0.4781425644
0.4350919939
0.3908520193
0.3747508355
0.3686531376
0.3537602298
0.3432899957
0.3501471957
0.3243475653
0.3327881433
0.3492398619
0.3696686972
0.3846118753
0.3997861509
0.4068912117
0.4196848837
0.4229292853
0.423472262
0.4223522367
0.4220645513
0.4265876043
0.4176400082
0.4017720889
0.3564835754
0.3162523882