/*--------------------------------*- C++ -*----------------------------------*\
| =========                 |                                                 |
| \\      /  F ield         | OpenFOAM: The Open Source CFD Toolbox           |
|  \\    /   O peration     | Version:  2.3.1                                 |
|   \\  /    A nd           | Web:      www.OpenFOAM.org                      |
|    \\/     M anipulation  |                                                 |
\*---------------------------------------------------------------------------*/
FoamFile
{
    version     2.0;
    format      ascii;
    class       dictionary;
    location    "constant";
    object      la_r5;
}
// * * * * * * * * * * * * * * * * * * * * * * * * * * * * * * * * * * * * * //

la_r5_table
100
(

100
(
-9721.716117
-9189.118608
-8731.128997
-8264.033191
-7809.050147
-7457.051004
-7087.625222
-6751.837712
-6425.573104
-6165.667852
-5854.838948
-5667.562675
-5423.477029
-5169.497382
-4985.871998
-4760.126643
-4512.62389
-4343.510668
-4145.730496
-3926.298684
-3762.685807
-3603.83764
-3428.679701
-3260.589965
-3133.606034
-2992.909217
-2840.475845
-2705.446596
-2595.26849
-2474.102008
-2344.017527
-2237.700512
-2141.672423
-2038.21215
-1928.3103
-1827.021639
-1747.123464
-1659.917166
-1566.89971
-1479.703337
-1408.897122
-1332.92208
-1252.528508
-1177.427536
-1115.62542
-1050.528251
-982.8193471
-914.4567846
-863.5206786
-809.6504217
-753.8010406
-699.7921229
-657.1037784
-612.6538177
-566.7850365
-525.3060954
-489.8371616
-453.6459409
-417.5653855
-384.874553
-356.5157878
-328.1863837
-300.054329
-274.6364595
-251.7354908
-229.0885586
-206.8083655
-187.8385704
-169.6835856
-152.0663827
-135.8279779
-121.3146343
-107.4353018
-94.44882429
-82.99449009
-72.25682956
-62.46490596
-53.55188941
-45.5838456
-38.37300928
-31.9214485
-26.42998466
-21.4228464
-17.38366022
-13.69627526
-10.81681136
-8.259551678
-6.331013499
-4.666841213
-3.286757295
-2.199130007
-1.396523009
-0.8578485219
-0.4670235622
-0.2437776044
-0.1155840506
-0.07441204862
-0.04216053373
-0.005044972837
-3.455808387e-14
)


100
(
-9775.182837
-9019.218838
-8449.347963
-7832.166264
-7339.459665
-6942.063569
-6434.286793
-6128.904911
-5731.884532
-5457.828115
-5169.203302
-4885.299037
-4658.094351
-4395.558418
-4153.281857
-3952.224299
-3729.766736
-3496.732932
-3332.516413
-3154.587814
-2964.189134
-2813.424503
-2676.042543
-2527.232721
-2375.244807
-2268.00004
-2150.675504
-2024.882399
-1898.60032
-1812.384273
-1716.551409
-1615.479511
-1518.486753
-1445.229434
-1366.478503
-1284.151835
-1201.011372
-1132.561443
-1071.927201
-1005.384772
-937.9823866
-878.3552747
-828.4704259
-774.8149687
-721.6182157
-673.1385282
-632.9017596
-591.1949804
-549.2169943
-510.1553253
-477.7771793
-448.1070245
-417.2244332
-387.9153324
-362.3509606
-339.777246
-318.2046375
-299.6403834
-284.6493747
-271.6850707
-258.3329029
-241.0448701
-225.4540765
-212.1594672
-197.9778918
-183.2475088
-171.9020073
-162.7257853
-151.0817643
-140.6003742
-132.3565624
-125.3427045
-118.4900356
-115.3814508
-114.564995
-110.2508968
-103.1190268
-97.67298985
-90.92637302
-83.71619517
-80.13451069
-74.34124759
-70.90197369
-69.74386864
-62.33801352
-62.00120349
-60.54719969
-56.32778332
-59.53031722
-54.50173978
-57.01934285
-56.82740439
-64.72537634
-65.59435722
-75.4995536
-74.74219774
-81.11733286
-78.30661581
-29.78901137
-9.095780063
)


100
(
-9815.998121
-8816.355339
-8142.945054
-7434.62216
-6975.883735
-6465.45128
-6008.997885
-5591.777235
-5240.591498
-4883.231827
-4621.98256
-4322.504904
-4079.024397
-3848.500258
-3597.299492
-3387.465246
-3200.321599
-3001.049154
-2806.062855
-2664.445016
-2515.003366
-2363.312927
-2232.38813
-2119.370701
-2001.496258
-1884.006704
-1786.032857
-1692.57611
-1596.855147
-1502.592517
-1421.626505
-1350.003098
-1276.268166
-1204.418179
-1139.577415
-1082.260782
-1023.151867
-964.8391693
-909.5044533
-862.1861871
-817.7790358
-772.4400112
-729.0311116
-688.6302297
-653.9093997
-618.2151673
-584.1966874
-552.3388259
-523.4199847
-495.514951
-468.776976
-444.3974249
-422.0024795
-402.071242
-381.7209681
-363.1565703
-345.8345185
-332.4664425
-320.1080484
-311.0777732
-303.6558635
-297.3152122
-285.6511828
-272.8576529
-260.8542024
-249.15164
-236.7665527
-225.8380083
-216.6033896
-206.2493692
-197.0086797
-188.7628525
-181.8428698
-176.7113232
-177.0679351
-181.0014103
-182.9162649
-179.8071512
-177.0244276
-173.737713
-169.9960872
-170.5115037
-171.0986041
-175.2956523
-175.7418533
-175.8579429
-180.0979267
-182.2091745
-188.7035778
-202.122686
-216.3924072
-229.872897
-249.4335981
-284.9308387
-298.8099949
-323.8640712
-359.3899031
-253.7404279
-123.4285981
-59.39706886
)


100
(
-9839.291928
-8641.196979
-7845.788488
-7196.97808
-6639.937694
-6047.30338
-5635.188776
-5156.469519
-4834.720644
-4488.11522
-4197.855033
-3938.144289
-3661.391163
-3456.189723
-3243.48486
-3025.642592
-2850.18986
-2688.545519
-2524.612723
-2364.889381
-2249.056974
-2129.052948
-2009.392615
-1898.106413
-1808.704569
-1716.297431
-1624.689291
-1539.756231
-1467.459112
-1393.795267
-1321.651418
-1252.693116
-1196.20862
-1140.73066
-1086.445597
-1034.559305
-987.8734533
-944.6534225
-901.7339959
-860.2297527
-821.3828941
-786.9837834
-755.0900374
-722.8216231
-692.546721
-663.430423
-638.9280244
-613.3039241
-589.4400501
-565.6688117
-546.1357124
-525.1251204
-505.5682235
-486.4841399
-469.6801057
-452.0228091
-435.5852138
-420.3245297
-407.3848548
-394.3712039
-383.0791564
-373.9965167
-365.4619485
-353.7440023
-341.680707
-329.8904551
-318.9704576
-309.0603683
-303.0386364
-300.5186295
-299.8970307
-301.0821869
-304.6976879
-310.1974451
-315.4404283
-320.126223
-325.6392849
-331.7870044
-337.518515
-342.2410607
-347.277029
-354.4528212
-361.6139394
-367.317415
-377.2230916
-392.6032742
-413.6446263
-440.1224942
-468.4858515
-505.5929313
-546.2971591
-585.638893
-636.629939
-686.3124007
-759.975914
-847.241369
-914.0935711
-563.6113353
-312.9313748
-179.8864474
)


100
(
-9844.09108
-8586.696575
-7693.919022
-6968.811634
-6320.963374
-5782.575481
-5310.579848
-4885.525243
-4507.095599
-4204.733509
-3886.830253
-3654.477914
-3416.579063
-3183.830703
-3003.722264
-2820.810333
-2640.407536
-2495.612869
-2362.784901
-2231.445585
-2104.190729
-2006.223107
-1910.785358
-1816.450021
-1724.671329
-1651.127814
-1578.264598
-1506.190039
-1436.077614
-1375.62139
-1317.950649
-1261.043826
-1206.275063
-1155.445842
-1113.044241
-1070.106366
-1029.407446
-988.9404136
-956.5419473
-923.6763172
-891.1982512
-860.2742652
-831.1442196
-805.4159351
-778.7761634
-754.3880989
-730.4708089
-711.325487
-689.8085259
-669.9053235
-650.9698092
-634.0967576
-615.8568847
-598.9423848
-583.2907239
-568.0019184
-553.1432658
-540.5863324
-530.4409716
-520.0631112
-509.4006014
-499.9559181
-492.7841606
-486.8168888
-480.8573788
-475.8666251
-473.1781031
-472.5203737
-471.946776
-472.5638435
-476.9458437
-486.4108634
-499.818522
-513.9532238
-527.2917921
-541.6120709
-556.5195724
-568.4442282
-579.3773103
-595.2213084
-616.094864
-639.960172
-670.0188554
-707.1065287
-745.3862668
-782.7902689
-825.4912695
-881.5012714
-954.5773235
-1041.782943
-1100.067303
-1179.603948
-1279.720586
-1399.90841
-1557.476079
-1748.57415
-1755.054304
-1050.812418
-630.5901306
-406.275397
)


100
(
-9842.825262
-8516.581929
-7541.332941
-6742.299834
-6052.519755
-5554.393248
-5040.521482
-4661.46039
-4275.897764
-3986.39239
-3711.570014
-3450.234843
-3245.840457
-3038.481286
-2847.528793
-2693.30387
-2541.401487
-2394.553453
-2275.093776
-2167.503737
-2062.042334
-1959.913845
-1875.910905
-1799.994111
-1724.992652
-1651.745081
-1587.446423
-1529.445994
-1471.441545
-1415.125018
-1361.940827
-1316.361791
-1270.380925
-1226.016907
-1181.244466
-1146.336435
-1109.881046
-1076.715231
-1041.372804
-1016.291511
-988.1829852
-961.8731353
-936.0176714
-913.0098419
-890.2816211
-868.5980685
-849.7648601
-833.0019011
-816.6649539
-798.7189875
-783.7713545
-770.7187791
-757.3138092
-743.5388883
-731.6777432
-721.3767723
-712.9732454
-706.7038744
-701.992821
-698.9606316
-698.6623367
-698.8648632
-697.0956683
-695.8076918
-697.8335279
-702.2080423
-705.9522822
-709.1095532
-714.8778604
-724.3219108
-736.658686
-750.3691409
-767.6234167
-791.1025379
-820.3581674
-847.3830123
-875.1832585
-908.2128228
-947.481037
-990.3288794
-1035.714435
-1089.898902
-1155.197554
-1221.211885
-1295.570382
-1376.67063
-1459.296081
-1558.710881
-1706.268662
-1832.819048
-1932.517167
-2104.270017
-2275.51434
-2514.489458
-2796.909814
-3123.546864
-2788.618749
-1756.814785
-1120.20969
-794.381498
)


100
(
-9855.770619
-8427.987299
-7381.880031
-6526.582255
-5896.821559
-5354.383721
-4876.917037
-4479.716709
-4138.712358
-3822.087742
-3583.24279
-3341.8036
-3131.314181
-2953.270161
-2776.949408
-2620.310096
-2491.48092
-2367.084378
-2248.072175
-2148.116332
-2061.046079
-1975.523387
-1892.876022
-1820.082577
-1759.277421
-1699.285385
-1639.861861
-1586.733685
-1537.730447
-1489.09982
-1441.48717
-1395.924744
-1358.653703
-1319.836537
-1281.806586
-1244.435521
-1214.808716
-1184.46435
-1156.376875
-1129.421871
-1108.322548
-1084.953199
-1063.372334
-1043.839689
-1025.24935
-1007.775347
-992.7086738
-982.8898813
-972.900128
-962.8891706
-953.2578119
-947.0757515
-942.0653501
-937.393392
-931.9888695
-927.5983864
-925.7797773
-926.8560217
-929.456007
-932.2772608
-937.2431688
-946.0609155
-959.0327912
-974.2351533
-986.6666354
-1000.221524
-1017.455917
-1038.267927
-1062.907053
-1086.15032
-1110.011286
-1139.19998
-1174.624019
-1210.600465
-1249.243789
-1296.197921
-1350.529709
-1411.515456
-1475.088491
-1547.957382
-1632.800048
-1725.085526
-1831.916914
-1950.115459
-2076.177804
-2211.010309
-2360.523118
-2528.55501
-2739.962928
-2946.607862
-3135.050473
-3380.579857
-3681.803969
-4063.015299
-4529.881905
-5001.565097
-4140.006522
-2772.364654
-1852.105003
-1426.426722
)


100
(
-9863.117737
-8317.561167
-7217.29876
-6382.607458
-5754.525359
-5180.611885
-4750.829213
-4334.080044
-4031.012219
-3737.036331
-3489.996864
-3281.030393
-3073.36182
-2903.650238
-2751.718681
-2603.49373
-2473.97927
-2367.639954
-2267.384511
-2170.246981
-2085.668283
-2014.796101
-1944.770317
-1877.327228
-1813.846328
-1764.6062
-1715.252926
-1665.789514
-1621.616604
-1579.563821
-1540.539416
-1498.7867
-1463.615424
-1431.68635
-1399.503467
-1367.029801
-1338.085296
-1313.059855
-1288.33112
-1267.055085
-1249.239448
-1232.665636
-1215.001413
-1200.396001
-1188.857869
-1178.390108
-1170.337229
-1166.391233
-1165.739065
-1166.562903
-1167.610504
-1167.435515
-1168.029719
-1170.648543
-1177.969837
-1187.855044
-1194.316925
-1201.209165
-1212.460067
-1228.136308
-1246.996074
-1265.618857
-1288.843142
-1317.10763
-1348.519576
-1384.574556
-1422.047298
-1457.13669
-1495.946297
-1546.386353
-1603.470986
-1658.417453
-1715.955026
-1777.348749
-1844.68514
-1918.82186
-1996.305256
-2089.943707
-2197.943567
-2312.79925
-2439.209147
-2580.42673
-2737.591361
-2911.100048
-3102.590752
-3314.840356
-3540.700087
-3783.427976
-4052.627556
-4349.989351
-4664.090944
-5046.471003
-5504.449614
-6063.885529
-6745.409972
-7335.610297
-5807.364057
-4122.014168
-2899.705733
-2385.303781
)


100
(
-9851.238983
-8231.394237
-7104.286691
-6277.50923
-5619.218464
-5075.596516
-4641.314859
-4262.933317
-3944.382469
-3684.903835
-3433.680425
-3240.857929
-3061.08894
-2884.773901
-2747.344004
-2619.296602
-2495.221186
-2387.304739
-2303.882646
-2220.12355
-2140.8211
-2068.35417
-2011.229487
-1954.417936
-1899.174913
-1845.859979
-1803.052407
-1762.245878
-1720.465742
-1683.366326
-1649.528711
-1618.471924
-1585.064001
-1558.635817
-1532.764226
-1506.484136
-1482.49448
-1461.00859
-1442.785602
-1426.067291
-1415.810619
-1406.719028
-1398.458153
-1390.88315
-1386.955787
-1385.925078
-1387.427296
-1390.256571
-1395.241131
-1402.885209
-1413.29526
-1428.079452
-1442.980083
-1455.748106
-1470.939365
-1491.587237
-1516.964831
-1545.674701
-1571.622243
-1598.700176
-1629.86007
-1664.872559
-1706.863172
-1753.048976
-1800.382394
-1852.637675
-1914.029858
-1983.16673
-2054.508331
-2129.203096
-2212.614844
-2302.234337
-2400.804141
-2496.184554
-2593.688742
-2712.121809
-2844.672798
-2982.029735
-3130.008435
-3292.389571
-3471.391573
-3668.135651
-3885.997527
-4129.532426
-4392.196113
-4673.699049
-4982.463384
-5323.43914
-5689.269213
-6085.800925
-6535.916625
-7073.8121
-7726.481761
-8513.552322
-9417.602527
-9969.291026
-7759.336083
-5773.088241
-4238.31114
-3716.21252
)


100
(
-9828.854947
-8201.298016
-7032.099645
-6174.488829
-5491.753725
-4994.868078
-4544.259316
-4204.59458
-3884.500724
-3644.721104
-3423.521315
-3214.511379
-3059.090511
-2906.489786
-2758.854203
-2647.256941
-2541.025705
-2440.23945
-2350.28846
-2280.16231
-2212.607734
-2148.733722
-2086.851083
-2040.661892
-1994.444579
-1949.962229
-1906.776074
-1868.59069
-1834.614967
-1798.899648
-1768.477754
-1746.367012
-1722.814829
-1702.070644
-1683.212939
-1664.619227
-1646.917546
-1634.08552
-1622.80566
-1614.744831
-1610.406735
-1611.584056
-1614.853974
-1618.583373
-1621.737993
-1627.08597
-1635.470539
-1649.694373
-1668.465055
-1686.6025
-1706.830339
-1731.432528
-1760.183292
-1793.812017
-1828.948772
-1862.958224
-1903.133917
-1948.696874
-1997.055791
-2050.773453
-2105.109145
-2156.851484
-2213.744231
-2283.402351
-2363.584734
-2445.659035
-2529.940995
-2624.607102
-2727.100682
-2840.291586
-2962.722576
-3086.948586
-3222.38309
-3373.859327
-3535.346803
-3700.711155
-3877.95657
-4068.608177
-4274.424256
-4498.194169
-4744.230667
-5015.703392
-5305.721771
-5615.551875
-5950.84234
-6318.329938
-6734.428099
-7189.592472
-7667.545278
-8205.497947
-8814.612049
-9553.448801
-10398.60488
-11451.48338
-12633.6565
-12813.67934
-9909.520934
-7653.941841
-5805.84525
-5380.066347
)


100
(
-9805.742556
-8156.397541
-6955.296856
-6067.381584
-5419.622529
-4917.941005
-4490.327964
-4152.91681
-3867.088921
-3612.48912
-3417.921973
-3230.71852
-3063.20395
-2932.429451
-2805.129076
-2681.498843
-2590.523061
-2503.965162
-2422.354281
-2347.258659
-2291.271737
-2237.368346
-2185.979607
-2136.281493
-2097.365929
-2061.817678
-2027.535568
-1994.046652
-1961.105739
-1929.487481
-1902.275654
-1891.627216
-1872.493702
-1863.231798
-1853.207416
-1844.837932
-1837.010938
-1832.288069
-1831.645486
-1833.744846
-1838.845735
-1846.156648
-1856.015861
-1869.912574
-1889.350376
-1909.021457
-1928.267262
-1951.489628
-1980.648667
-2017.013669
-2057.997864
-2096.314759
-2138.219915
-2187.102091
-2240.382999
-2300.239555
-2367.00242
-2431.763273
-2499.858365
-2574.360262
-2658.259644
-2750.096988
-2839.542055
-2931.073118
-3036.375393
-3149.973439
-3268.858544
-3396.769367
-3527.831393
-3672.053064
-3844.566005
-4032.930726
-4218.839649
-4419.943041
-4636.237628
-4866.400137
-5111.835668
-5372.943228
-5653.27904
-5956.078292
-6281.037432
-6630.435686
-7003.355
-7403.449496
-7839.327722
-8320.275592
-8835.665507
-9413.04423
-10044.80089
-10753.97809
-11576.68627
-12520.33292
-13628.82531
-14984.14061
-16344.25509
-15730.67893
-12168.55851
-9715.794297
-7555.652642
-7263.324835
)


100
(
-9790.323177
-8096.78518
-6868.506587
-5971.603781
-5359.154277
-4844.730823
-4455.926457
-4107.213516
-3851.425822
-3613.218246
-3416.075999
-3252.246696
-3095.078834
-2960.613895
-2851.781469
-2746.842762
-2644.548706
-2571.421772
-2502.057639
-2437.380859
-2374.842822
-2330.83817
-2288.383151
-2248.925963
-2211.816893
-2180.624433
-2156.109978
-2132.782448
-2110.244045
-2089.065304
-2070.655614
-2046.015823
-2035.740499
-2045.980587
-2046.381575
-2048.958984
-2053.242502
-2058.266921
-2065.224475
-2074.98744
-2090.409373
-2109.243658
-2130.151359
-2155.16571
-2184.922644
-2221.621741
-2263.805275
-2304.215795
-2345.605795
-2395.576923
-2451.780093
-2513.620287
-2581.483683
-2649.683112
-2720.918419
-2798.649948
-2883.846655
-2984.843697
-3092.493979
-3193.334211
-3301.104709
-3421.999759
-3549.307541
-3682.383919
-3818.536933
-3956.57593
-4105.136226
-4278.111062
-4467.3826
-4655.218393
-4871.075458
-5109.524329
-5360.126722
-5627.21534
-5912.613939
-6218.886246
-6543.679065
-6888.271177
-7257.217896
-7648.44346
-8068.211676
-8517.825357
-8996.827228
-9514.648843
-10061.27401
-10653.82743
-11290.68639
-12023.04448
-12824.85626
-13755.76976
-14798.13589
-15980.77
-17366.20292
-19012.97652
-20420.79936
-18685.34184
-14565.87867
-11974.66657
-9510.796564
-9402.972126
)


100
(
-9764.932038
-8019.418604
-6778.023587
-5928.696967
-5300.243932
-4799.139904
-4423.382612
-4101.153217
-3838.224055
-3626.735579
-3427.580679
-3275.254364
-3138.082179
-3006.29031
-2898.663744
-2810.264197
-2725.53859
-2642.084249
-2583.45885
-2529.784354
-2479.288154
-2430.571115
-2395.303937
-2364.84049
-2337.12213
-2312.281199
-2290.530622
-2276.307275
-2263.836558
-2253.961886
-2246.547375
-2239.850162
-2239.129287
-2243.442263
-2254.533433
-2268.510705
-2284.146742
-2301.779248
-2319.605881
-2339.637479
-2364.588987
-2396.468068
-2435.917955
-2476.508678
-2519.206643
-2569.211102
-2626.04774
-2689.398083
-2758.9039
-2829.127556
-2901.640201
-2979.094686
-3061.070069
-3155.256712
-3263.851846
-3368.363614
-3476.276455
-3599.122474
-3733.86966
-3878.989594
-4028.630622
-4174.075129
-4323.850521
-4484.403691
-4666.456118
-4864.375406
-5056.988274
-5268.531277
-5506.721617
-5763.802762
-6042.682143
-6335.318756
-6644.616777
-6976.13961
-7332.088255
-7716.986123
-8139.06554
-8587.866155
-9061.334914
-9559.508409
-10083.60329
-10640.13814
-11234.75845
-11874.42226
-12548.57104
-13274.33308
-14055.32486
-14927.32882
-15935.36572
-17079.24346
-18366.28968
-19745.83437
-21422.71474
-23315.37655
-24593.86354
-21737.0256
-17308.07848
-14491.99564
-11758.07457
-11711.01143
)


100
(
-9723.229562
-7962.469159
-6736.092264
-5882.475712
-5241.963683
-4778.028456
-4392.205018
-4100.445307
-3835.583092
-3639.588229
-3463.661925
-3297.771678
-3178.659349
-3065.148664
-2956.830882
-2871.692817
-2801.490516
-2734.718103
-2668.370541
-2622.119874
-2582.356748
-2545.061566
-2510.237385
-2483.972234
-2465.930133
-2450.456159
-2437.288127
-2427.920908
-2423.835968
-2424.362945
-2427.354608
-2432.672072
-2442.285812
-2457.457829
-2477.551629
-2499.676553
-2525.775744
-2555.232159
-2590.389674
-2628.802772
-2667.103752
-2710.310673
-2761.372038
-2821.081265
-2888.113227
-2955.82688
-3028.224987
-3109.629634
-3196.068476
-3288.384149
-3389.471171
-3490.743069
-3593.334907
-3705.705454
-3833.255509
-3977.215041
-4129.635936
-4276.49146
-4435.067793
-4602.899469
-4774.006394
-4960.872343
-5159.448313
-5360.435858
-5579.409967
-5826.823134
-6093.05477
-6368.432008
-6658.389744
-6968.667056
-7301.563005
-7658.831087
-8039.620563
-8446.349269
-8887.355585
-9373.951941
-9895.316543
-10434.22553
-10998.96091
-11600.46439
-12243.90183
-12924.16235
-13650.51932
-14405.2159
-15206.78881
-16070.93186
-17020.57729
-18065.04752
-19260.71309
-20565.45038
-22075.24972
-23500.07029
-25624.97222
-27765.87847
-28731.56522
-24996.60507
-20432.53234
-17385.23648
-14341.57158
-14152.63513
)


100
(
-9676.193007
-7927.735423
-6695.794689
-5833.115026
-5206.689471
-4754.871512
-4381.184096
-4097.923758
-3859.417045
-3649.846273
-3494.753147
-3348.062992
-3215.285556
-3118.867508
-3027.628614
-2939.687257
-2873.3629
-2819.795093
-2769.017448
-2719.200901
-2683.937776
-2657.734654
-2633.557149
-2612.826212
-2596.644158
-2591.019892
-2587.388518
-2588.079068
-2592.634535
-2601.180335
-2615.126832
-2631.897766
-2652.862707
-2677.005816
-2707.45161
-2744.243885
-2783.59117
-2825.885691
-2873.604241
-2928.438096
-2990.165538
-3052.709063
-3117.380068
-3191.840499
-3274.639076
-3365.120415
-3463.620523
-3564.109374
-3667.356743
-3777.452325
-3894.543421
-4027.465943
-4170.119449
-4306.259115
-4450.764112
-4617.472148
-4795.350569
-4981.984008
-5175.92374
-5365.821324
-5562.955407
-5780.304736
-6033.109163
-6304.399973
-6573.031228
-6866.756783
-7187.247411
-7522.255391
-7875.19839
-8250.903619
-8653.720795
-9083.772808
-9539.302999
-10027.83557
-10555.71929
-11123.90173
-11728.8345
-12362.7678
-13032.77209
-13755.94069
-14526.11589
-15311.57227
-16140.50994
-17015.83771
-17966.62613
-18997.08395
-20105.59861
-21311.92459
-22629.38892
-24096.5246
-25769.29226
-26725.55756
-29804.55962
-32163.77372
-32754.16991
-28480.39438
-23842.64202
-20600.54414
-17227.07777
-17063.77966
)


100
(
-9628.281035
-7882.395297
-6648.718821
-5779.23324
-5188.645379
-4728.515063
-4384.606719
-4091.440844
-3876.598178
-3681.09749
-3519.049073
-3391.181487
-3271.186401
-3166.233379
-3090.330732
-3019.208107
-2949.976391
-2899.500855
-2861.658841
-2825.92603
-2792.242961
-2767.655115
-2755.371017
-2745.180338
-2737.857546
-2735.109102
-2740.737627
-2751.813253
-2767.137012
-2785.426405
-2808.90287
-2837.318396
-2870.160652
-2905.946407
-2947.645485
-2996.383624
-3053.097029
-3113.848221
-3176.35168
-3245.855644
-3322.779833
-3407.643544
-3499.35049
-3592.986078
-3691.506402
-3798.26773
-3909.880031
-4032.433743
-4169.323251
-4303.815265
-4440.587713
-4590.988264
-4754.864142
-4930.987535
-5115.471982
-5301.11235
-5496.407254
-5702.718912
-5921.007983
-6165.282303
-6415.110745
-6671.802887
-6963.358657
-7282.520944
-7620.614128
-7980.288243
-8352.343513
-8741.452241
-9154.934304
-9596.253438
-10065.59416
-10567.79834
-11111.18
-11687.91665
-12308.21898
-12969.13167
-13663.23293
-14385.57509
-15161.98563
-15990.39275
-16856.4914
-17738.9102
-18679.35034
-19707.382
-20800.69417
-21988.13447
-23239.28539
-24582.06555
-26052.95485
-27652.27216
-29566.01525
-31197.68339
-33824.47685
-36420.62265
-36592.89411
-32047.09496
-27358.15315
-23994.78866
-20276.80582
-19478.16692
)


100
(
-9578.362672
-7823.813008
-6591.530628
-5750.204161
-5165.170104
-4708.649116
-4381.572874
-4106.266005
-3887.077869
-3712.704852
-3550.764523
-3426.789561
-3323.738822
-3226.231132
-3145.164719
-3088.112671
-3035.563795
-2984.237015
-2947.709116
-2925.079179
-2904.353527
-2886.825816
-2873.601815
-2875.101992
-2878.242039
-2886.356937
-2899.64544
-2918.252756
-2944.370215
-2973.669929
-3008.589012
-3048.187463
-3093.354151
-3144.921963
-3200.089067
-3261.472442
-3330.101987
-3408.851847
-3495.777296
-3584.160704
-3676.961437
-3779.951071
-3888.758453
-4004.270705
-4127.999832
-4253.895112
-4384.349675
-4524.898863
-4676.632243
-4844.791407
-5021.546911
-5193.471528
-5376.077729
-5576.788636
-5783.55214
-6000.320215
-6232.111889
-6468.639375
-6719.081429
-6997.504463
-7305.801309
-7632.59653
-7965.270046
-8326.091782
-8718.391477
-9126.577669
-9554.221662
-10007.54127
-10489.05883
-10999.39679
-11547.37629
-12141.93654
-12765.25799
-13422.25949
-14124.65532
-14874.85742
-15659.44868
-16478.95274
-17364.44196
-18292.9251
-19229.96114
-20225.27676
-21282.86941
-22446.95459
-23684.99422
-25035.83859
-26435.95639
-27900.45341
-29489.79255
-31231.57033
-33280.30775
-36633.55141
-38018.87532
-40547.78719
-40273.88618
-35512.21567
-30831.18924
-27397.18776
-23352.23921
-21117.84328
)


100
(
-9516.289818
-7751.540278
-6538.460461
-5724.767694
-5135.705352
-4708.136229
-4371.836423
-4120.204213
-3898.253568
-3735.341736
-3592.720353
-3458.362715
-3366.859938
-3285.825373
-3208.620117
-3148.31929
-3109.191477
-3073.883326
-3040.616068
-3016.666253
-3009.362955
-3004.54842
-3002.280861
-3004.341171
-3017.558092
-3037.028233
-3061.756637
-3089.949812
-3124.000633
-3164.929889
-3212.500565
-3264.748199
-3322.342641
-3388.248838
-3462.106553
-3539.645587
-3621.993374
-3715.666149
-3817.967306
-3929.747368
-4049.516517
-4170.068281
-4294.108359
-4425.169244
-4561.824202
-4714.280652
-4879.327867
-5042.549629
-5211.769928
-5400.41529
-5600.59295
-5811.5011
-6028.606839
-6246.943707
-6473.259215
-6716.202967
-6985.443779
-7278.463559
-7576.562321
-7888.807247
-8241.805601
-8616.912544
-9009.396669
-9429.911835
-9870.750566
-10329.10232
-10812.26232
-11325.97091
-11871.77048
-12456.60584
-13085.80235
-13750.22658
-14453.54836
-15201.63475
-15994.87943
-16834.39785
-17711.08736
-18632.10265
-19614.40464
-20617.85776
-21633.39506
-22749.62966
-23937.99954
-25219.84707
-26611.16316
-28067.5194
-29581.21937
-31199.23531
-32900.20499
-34770.2406
-36908.64275
-39567.65514
-41906.05571
-44396.29957
-43594.28644
-38734.55674
-34140.98319
-30693.44919
-26391.18299
-22610.51197
)


100
(
-9445.601772
-7702.142989
-6506.525876
-5693.224378
-5105.627884
-4699.627208
-4369.291965
-4126.418698
-3925.304102
-3749.328329
-3623.915893
-3509.000572
-3400.960412
-3333.928807
-3273.426083
-3215.713007
-3173.484514
-3152.016595
-3133.624343
-3118.304683
-3105.599118
-3114.250361
-3124.173432
-3138.948163
-3158.805955
-3184.932115
-3220.78193
-3260.487526
-3306.197311
-3359.361879
-3418.370517
-3485.948337
-3557.122789
-3637.270499
-3724.794442
-3822.084346
-3926.830087
-4035.671253
-4152.797867
-4281.965617
-4416.151173
-4557.457454
-4706.112774
-4855.979081
-5010.224327
-5178.674307
-5362.235274
-5561.240881
-5767.754718
-5976.593514
-6198.813771
-6432.774336
-6670.070141
-6920.439463
-7187.985832
-7466.588423
-7767.117286
-8100.937422
-8461.164536
-8836.994941
-9225.849759
-9640.000963
-10082.78614
-10549.59728
-11040.79639
-11556.33455
-12100.73779
-12676.43993
-13296.15547
-13963.01981
-14659.46767
-15388.29528
-16163.91039
-16994.6005
-17879.13191
-18803.19289
-19768.32968
-20794.53041
-21845.63848
-22914.5731
-24049.45542
-25279.50047
-26587.98252
-27975.22698
-29462.34749
-30984.38807
-32620.24466
-34362.0076
-36186.23992
-38144.19779
-40330.68345
-42799.2333
-45444.73476
-47731.28911
-46622.48039
-41667.94997
-37220.77378
-33811.97892
-29348.90598
-22539.26816
)


100
(
-9370.684012
-7649.63685
-6466.247095
-5654.649404
-5097.068408
-4685.068065
-4377.555999
-4124.716264
-3942.013967
-3779.577882
-3644.761758
-3545.714493
-3455.329363
-3372.005778
-3324.77725
-3283.665201
-3244.960104
-3218.923022
-3215.743048
-3212.359974
-3209.950873
-3217.297484
-3238.584355
-3266.014584
-3298.776643
-3335.276805
-3377.392907
-3428.030022
-3487.077
-3552.961446
-3625.513373
-3705.759052
-3795.544537
-3890.874342
-3993.353532
-4106.393306
-4228.328092
-4358.11231
-4495.588912
-4637.150964
-4785.563627
-4939.7202
-5103.369595
-5279.57976
-5464.629959
-5652.479877
-5854.076827
-6074.168951
-6308.549355
-6552.327869
-6802.591785
-7054.777593
-7312.800346
-7591.254072
-7902.112483
-8237.846734
-8584.887688
-8953.494056
-9356.752474
-9778.005381
-10215.82104
-10679.57716
-11170.55114
-11686.74751
-12226.08848
-12791.10625
-13392.37485
-14039.15636
-14731.00479
-15456.7507
-16216.41419
-17016.29096
-17860.39322
-18762.99322
-19720.48782
-20721.71328
-21779.23148
-22896.69841
-24016.56345
-25158.27421
-26395.81092
-27700.93016
-29118.05711
-30611.14793
-32134.13067
-33729.66001
-35475.544
-37298.00664
-39175.60348
-41204.10779
-43435.73129
-45820.91526
-48471.46167
-50508.02748
-49145.77851
-44301.60071
-40046.36574
-36726.49732
-32217.12102
-20628.51283
)


100
(
-9292.600359
-7588.504373
-6417.404142
-5618.434067
-5080.426787
-4665.947696
-4377.491814
-4137.445137
-3949.470567
-3803.954911
-3672.661747
-3571.6503
-3495.935381
-3426.430023
-3365.530943
-3336.918441
-3313.70661
-3294.078377
-3281.796186
-3291.82383
-3306.136423
-3325.369765
-3350.342232
-3383.93548
-3428.583558
-3477.761633
-3532.349629
-3594.460165
-3662.411337
-3742.817141
-3828.640569
-3924.907701
-4029.422052
-4143.395415
-4264.869841
-4392.637274
-4529.675
-4674.60617
-4825.680446
-4984.452492
-5148.885168
-5319.649538
-5499.557886
-5692.11028
-5900.490262
-6121.040069
-6349.067956
-6588.052731
-6843.020919
-7106.150952
-7379.150325
-7663.94979
-7962.776221
-8274.739688
-8619.616929
-8995.414718
-9397.686088
-9817.614768
-10254.92899
-10712.88357
-11195.3882
-11703.95693
-12240.94477
-12803.20902
-13390.48444
-14007.68513
-14669.90494
-15383.15492
-16129.26611
-16906.7293
-17717.20031
-18576.69922
-19490.89613
-20462.99909
-21481.92792
-22554.12844
-23679.3304
-24823.46925
-26003.86087
-27265.78882
-28609.07187
-29981.58785
-31449.68824
-32975.2153
-34557.45492
-36230.96761
-37987.49138
-39792.15554
-41644.63606
-43724.73577
-45936.06762
-48212.92966
-50809.36945
-52329.61029
-51189.67665
-46620.72328
-42579.55522
-39406.1969
-34794.07864
-14800.00643
)


100
(
-9204.344573
-7516.28662
-6361.6932
-5596.008183
-5057.770483
-4666.050277
-4369.821912
-4147.688811
-3957.304005
-3818.265883
-3703.088714
-3596.610412
-3524.736172
-3470.200711
-3420.336803
-3378.826373
-3368.318206
-3362.86443
-3361.625
-3366.154955
-3390.104486
-3421.359007
-3458.860128
-3501.54278
-3550.034635
-3609.927596
-3677.902025
-3753.827881
-3836.640162
-3925.797197
-4027.62407
-4138.646835
-4259.313087
-4388.516992
-4527.512067
-4673.964238
-4826.211882
-4982.166244
-5145.357422
-5313.381146
-5495.084531
-5687.357955
-5888.885836
-6097.667792
-6325.808818
-6566.999589
-6822.626272
-7088.394475
-7361.388304
-7640.881057
-7936.690547
-8252.1554
-8593.73991
-8957.23888
-9339.459529
-9748.790033
-10191.96448
-10652.30987
-11125.29745
-11621.88079
-12146.10144
-12696.28325
-13271.49693
-13869.5227
-14503.73298
-15183.15151
-15907.44141
-16668.93774
-17465.09077
-18288.84656
-19143.0405
-20045.29618
-20990.67101
-22001.77531
-23075.05098
-24215.74986
-25405.80351
-26603.60719
-27804.82571
-29086.6813
-30471.59036
-31928.20491
-33426.52214
-34914.92609
-36475.53472
-38190.2578
-39960.25936
-41773.04338
-43562.62344
-45604.91582
-47638.03011
-49830.04002
-51949.19876
-53364.07893
-52612.84007
-48460.27471
-44675.59512
-41768.51988
-37103.50077
-11649.92361
)


100
(
-9109.444276
-7445.631908
-6322.29929
-5566.22128
-5028.971308
-4657.311797
-4362.333601
-4149.302654
-3974.477877
-3823.010865
-3720.827973
-3631.275088
-3547.542149
-3499.599889
-3464.852558
-3434.102784
-3410.315563
-3416.539109
-3427.873279
-3444.95591
-3468.430778
-3504.544514
-3553.38184
-3608.091997
-3668.429808
-3735.59139
-3811.178622
-3901.442501
-3999.105955
-4105.204515
-4219.154242
-4344.437752
-4481.032634
-4624.927828
-4779.303494
-4938.61526
-5104.427737
-5273.692729
-5448.530816
-5628.412356
-5823.799592
-6031.096687
-6253.97794
-6489.920669
-6737.903111
-6996.263659
-7271.65484
-7551.524564