/*--------------------------------*- C++ -*----------------------------------*\
| =========                 |                                                 |
| \\      /  F ield         | OpenFOAM: The Open Source CFD Toolbox           |
|  \\    /   O peration     | Version:  2.3.1                                 |
|   \\  /    A nd           | Web:      www.OpenFOAM.org                      |
|    \\/     M anipulation  |                                                 |
\*---------------------------------------------------------------------------*/
FoamFile
{
    version     2.0;
    format      ascii;
    class       dictionary;
    location    "constant";
    object      la_r7;
}
// * * * * * * * * * * * * * * * * * * * * * * * * * * * * * * * * * * * * * //

la_r7_table
100
(

100
(
-129.7339159
-99.32061371
-77.79411675
-63.33026159
-52.05843302
-44.2735216
-37.60216993
-32.39872934
-27.87834236
-24.45710986
-21.06928071
-18.91802271
-16.73988681
-14.73803538
-13.30704683
-11.86623071
-10.47337228
-9.493456113
-8.512848374
-7.538911921
-6.802516692
-6.141810669
-5.486151693
-4.892910515
-4.449481096
-4.010872997
-3.578422012
-3.205334109
-2.905226396
-2.608577298
-2.317192463
-2.086926971
-1.893070027
-1.703267435
-1.517761837
-1.351954257
-1.219442879
-1.089425779
-0.9628949938
-0.8509664388
-0.7640926856
-0.6799266757
-0.5984285221
-0.5271430024
-0.4724610998
-0.4197415846
-0.368939949
-0.3206864613
-0.284911958
-0.2502953126
-0.2170521956
-0.1868477543
-0.1644796381
-0.1430791515
-0.1226508528
-0.1055136169
-0.09220511798
-0.07977392382
-0.06849334247
-0.0588752914
-0.05087736038
-0.04373937671
-0.03730448064
-0.03167402458
-0.02690576313
-0.02270826931
-0.01896907559
-0.01586045718
-0.01319294609
-0.01090775349
-0.008934233916
-0.00726723245
-0.005895734047
-0.004750990204
-0.003735890911
-0.002950459063
-0.00232729482
-0.00173409097
-0.001335734331
-0.0009896702143
-0.0007124771224
-0.0005476939623
-0.0003657931708
-0.0002774999282
-0.0001818436609
-0.0001372642217
-8.940673687e-05
-6.702300779e-05
-4.461587602e-05
-2.750748884e-05
-1.599076664e-05
-8.800326478e-06
-4.821257998e-06
-2.27823757e-06
-1.133385299e-06
-5.342033199e-07
-3.829308247e-07
-2.202301797e-07
-1.773198743e-08
-9.787250205e-18
)


100
(
-134.1292671
-102.6184675
-80.06884173
-64.80297717
-53.34718603
-45.02634048
-37.98286022
-32.7515091
-28.06800491
-24.47718118
-21.23974935
-18.66304265
-16.57604859
-14.62416178
-13.01599921
-11.66022633
-10.36751708
-9.245961021
-8.332062215
-7.454592189
-6.665167123
-6.006089856
-5.408866752
-4.847614065
-4.357403708
-3.94801444
-3.559104906
-3.19771947
-2.8794762
-2.605252743
-2.343451854
-2.105597735
-1.900211463
-1.721963184
-1.554742626
-1.399141792
-1.260926661
-1.138436766
-1.023807103
-0.9167578711
-0.8227323661
-0.7408333776
-0.6645866475
-0.5930546131
-0.5294911186
-0.474958541
-0.4252892518
-0.3791213376
-0.3382307434
-0.3040669869
-0.2737253166
-0.2449708771
-0.2187980718
-0.1957354622
-0.1745314749
-0.1538072417
-0.1360119825
-0.1238252444
-0.1194350377
-0.1254742414
-0.1345809039
-0.1209249402
-0.09722096914
-0.0889772706
-0.09144888674
-0.08161521079
-0.06804447136
-0.06611296004
-0.0650068484
-0.0549636955
-0.04761357083
-0.04732367045
-0.04298829584
-0.03974999506
-0.05139260523
-0.05956963348
-0.0396553297
-0.03964169477
-0.04334499404
-0.02711804517
-0.03237256537
-0.02728321026
-0.02182705623
-0.02858030255
-0.01976538863
-0.02052625483
-0.02832689983
-0.01626189319
-0.02615486472
-0.0172912788
-0.0204964277
-0.01736012735
-0.0254544339
-0.02565047446
-0.03292972639
-0.02980745963
-0.03313398416
-0.03064424787
-0.005919007078
-0.0005598291921
)


100
(
-138.4356425
-106.1715725
-82.65798405
-66.57242408
-55.08856552
-46.10783028
-39.08027967
-33.41660551
-28.78844083
-24.88096164
-21.69725034
-18.96296802
-16.77030752
-14.875559
-13.21072824
-11.81999052
-10.59115121
-9.482804488
-8.515823877
-7.681904561
-6.915118938
-6.232641048
-5.634526063
-5.09567766
-4.60640273
-4.174708466
-3.793017307
-3.44264761
-3.121326091
-2.834287307
-2.577392565
-2.34040726
-2.125804043
-1.936842322
-1.770146636
-1.614540857
-1.470439361
-1.340822168
-1.228594777
-1.1245203
-1.025767475
-0.9386307359
-0.8647646604
-0.8009131384
-0.7320632016
-0.6665867404
-0.6093230068
-0.5599545877
-0.5107606723
-0.4647191764
-0.4292629577
-0.4044212984
-0.3878251282
-0.3652291206
-0.3459569566
-0.3288482706
-0.3177709078
-0.2988288269
-0.2872531398
-0.2850335696
-0.3007439887
-0.3125765416
-0.2997224037
-0.2670352423
-0.2431325842
-0.2320148022
-0.2176161346
-0.2005822984
-0.1870431622
-0.1764774602
-0.1624217085
-0.1506939017
-0.1401772339
-0.1281771915
-0.1310844655
-0.1715572297
-0.2121282334
-0.2012303318
-0.1997748784
-0.1818015917
-0.1770230748
-0.2215004224
-0.176832113
-0.2372549148
-0.2274613541
-0.1940547471
-0.2167579185
-0.2000530213
-0.1984278121
-0.2396855742
-0.2728637379
-0.2943649182
-0.3348850373
-0.507113632
-0.4661865266
-0.5040943557
-0.6063364335
-0.3646399915
-0.100800535
-0.0207868218
)


100
(
-142.6622238
-109.7007235
-85.27862676
-69.09033909
-56.96771714
-47.45419006
-40.36036691
-34.40946432
-29.75371705
-25.75811577
-22.44830525
-19.6743754
-17.32182891
-15.41091381
-13.74675634
-12.30669224
-11.07671654
-9.985907569
-9.014511395
-8.160381612
-7.404115279
-6.718190183
-6.107898243
-5.572062148
-5.087086813
-4.649090389
-4.259523443
-3.915716824
-3.592022289
-3.292986306
-3.02423347
-2.795106117
-2.577455888
-2.378623246
-2.205442776
-2.05890367
-1.923807042
-1.791519095
-1.673908761
-1.572781883
-1.490284196
-1.412286193
-1.33557369
-1.276372316
-1.227391046
-1.197511737
-1.146623142
-1.102762556
-1.058950496
-1.03823971
-0.9935118024
-0.9607445926
-0.9271850538
-0.9024142207
-0.8567454425
-0.8125528371
-0.7740795306
-0.7516654658
-0.7101440248
-0.6641339917
-0.6324376965
-0.6168017507
-0.5995555216
-0.5725877046
-0.5336667521
-0.4958061365
-0.4602286076
-0.4334975948
-0.4251027854
-0.4425625471
-0.4721778229
-0.5228801799
-0.6040719059
-0.690218661
-0.6617645617
-0.709892137
-0.9266434975
-0.8471774956
-0.7251613637
-0.9210393707
-0.9083117136
-0.8377985826
-0.8928919922
-0.8456039646
-0.8049311969
-0.8610208972
-0.9516579552
-1.081220305
-1.151183062
-1.416471768
-1.664118915
-1.742848117
-2.104168971
-2.095572194
-2.549399769
-3.079315457
-3.387459412
-1.709364114
-0.5979709976
-0.1803096905
)


100
(
-146.5131059
-113.662448
-88.69035083
-71.6872992
-59.00665624
-49.38226066
-41.87941562
-35.88451555
-30.97396809
-26.94683066
-23.49280866
-20.66304674
-18.24988504
-16.2173241
-14.52849188
-13.06728038
-11.80945275
-10.7196092
-9.749269258
-8.885751187
-8.132604647
-7.452484566
-6.838119202
-6.298649592
-5.849096539
-5.438668479
-5.064397145
-4.728339993
-4.438178692
-4.156915831
-3.889898753
-3.65214218
-3.451255856
-3.290732937
-3.109588659
-2.957628819
-2.833646165
-2.765496431
-2.666626503
-2.591783763
-2.526190223
-2.462425616
-2.403432107
-2.309500947
-2.229340953
-2.168453565
-2.150022654
-2.060012518
-1.980707701
-1.918224558
-1.879384103
-1.802150199
-1.730390344
-1.670114727
-1.610787625
-1.530590986
-1.456665402
-1.423092701
-1.392140728
-1.340578812
-1.266704498
-1.211134001
-1.194886627
-1.215122063
-1.249646966
-1.299580882
-1.341300199
-1.357950657
-1.369616182
-1.401163872
-1.426981225
-1.457541458
-1.596467845
-1.9676455
-2.356481947
-2.273132925
-2.116445589
-2.259407891
-2.284309918
-2.217206578
-2.167656398
-2.213692684
-2.635740241
-3.024852359
-3.127352345
-3.221860528
-3.206357327
-3.562876715
-4.286732406
-5.967401935
-5.677048012
-5.595928748
-6.821855361
-7.27916114
-8.880004255
-10.95691604
-11.12095321
-5.209221639
-2.124879889
-0.7738022066
)


100
(
-149.6685672
-117.3584618
-92.06349054
-74.42466558
-61.27516143
-51.49483448
-43.65066377
-37.57015469
-32.50945441
-28.38486604
-24.87974929
-21.91398738
-19.441293
-17.33823567
-15.57279492
-14.08160258
-12.80314303
-11.71926962
-10.76983331
-9.915173119
-9.160288469
-8.518767925
-7.940913581
-7.414527861
-6.977015509
-6.654279693
-6.39394654
-6.126762466
-5.861396578
-5.616399683
-5.419737736
-5.194811818
-4.999904763
-4.825288607
-4.727768369
-4.537872069
-4.375514685
-4.231202856
-4.229516815
-4.11092602
-4.014329638
-3.920865851
-3.867473963
-3.763451633
-3.614115473
-3.482266255
-3.431475905
-3.383883105
-3.233482776
-3.108531922
-3.030252076
-2.963791529
-2.869391855
-2.786324109
-2.719977427
-2.658929093
-2.599156785
-2.614924146
-2.693850299
-2.816187531
-2.935684687
-3.007845487
-3.040059973
-3.077722594
-3.096580945
-3.099817301
-3.112290363
-3.121664833
-3.099370702
-3.077182243
-3.146178651
-3.356146034
-3.677323822
-4.021316614
-4.307157989
-4.648382401
-4.632876841
-4.560633209
-4.697162085
-5.326660919
-6.08825029
-6.577443006
-6.640029994
-6.89237008
-7.514957192
-8.51361147
-8.748309673
-9.357818685
-12.86557769
-13.39318691
-13.05797102
-16.03587547
-17.12230778
-20.45729853
-24.40196196
-29.68684778
-25.29195206
-12.58581251
-5.707914888
-2.364200375
)


100
(
-153.0889922
-120.9040128
-95.41046239
-77.25973565
-64.02284573
-53.81584295
-45.82667588
-39.49492239
-34.35429255
-30.07243543
-26.51304534
-23.47754725
-20.92190756
-18.76175821
-16.94188584
-15.41984674
-14.12573314
-13.04305017
-12.15439495
-11.36929792
-10.64579845
-10.01997285
-9.512386992
-9.081177835
-8.662529413
-8.36520464
-8.218334141
-8.104478713
-7.92862665
-7.714914419
-7.519327186
-7.388391359
-7.155556374
-6.950078417
-6.796336632
-6.700728769
-6.451259724
-6.231509695
-6.107601722
-6.071501972
-5.89069016
-5.723088748
-5.596921376
-5.496217134
-5.338439952
-5.131200994
-5.037718295
-4.977435272
-4.950409102
-4.811523129
-4.752878506
-4.727382843
-4.766612255
-4.848648697
-4.939295701
-5.070004551
-5.20563434
-5.321579996
-5.410533213
-5.505951994
-5.62877105
-5.718045095
-5.771527065
-5.867030478
-5.920347348
-5.959113065
-6.081058724
-6.402466913
-6.870365917
-7.277936613
-7.662695327
-7.936655855
-8.079968511
-8.245589208
-8.384275648
-8.69740578
-9.62843501
-10.53101464
-11.49000958
-12.05395642
-12.14603073
-12.57382171
-14.05386574
-15.96621747
-17.106008
-17.91260913
-19.97926403
-22.67609916
-28.91573227
-32.41471733
-31.47494341
-34.17078731
-39.42065331
-47.16794841
-58.04317051
-66.93533995
-52.22919077
-27.81676569
-13.56931568
-5.859658191
)


100
(
-156.7841551
-124.2311945
-98.65966537
-80.4299785
-66.87897992
-56.3275029
-48.21983105
-41.65521069
-36.42404724
-32.06094964
-28.41838788
-25.33628963
-22.74115397
-20.54749339
-18.69226246
-17.15806281
-15.88710418
-14.81448166
-13.97066768
-13.29386571
-12.71333052
-12.13601387
-11.65575597
-11.28750527
-11.0255772
-10.68904213
-10.50286873
-10.49945909
-10.4801077
-10.36085472
-10.1474208
-10.06113237
-9.863156125
-9.554690787
-9.274329239
-9.150465706
-8.977641006
-8.643414059
-8.368492632
-8.262198027
-8.181747429
-7.951551418
-7.731257768
-7.603233482
-7.502783795
-7.378239211
-7.300898128
-7.358957095
-7.507554742
-7.729438734
-7.948708719
-8.131490784
-8.349756476
-8.570177334
-8.806538041
-9.030421372
-9.121935945
-9.215529856
-9.276098287
-9.317312996
-9.448187686
-9.5841001
-9.807372795
-10.2171569
-10.90584158
-11.70453968
-12.35482221
-12.91099721
-13.42341059
-13.80455238
-14.15888408
-14.54153816
-15.03643537
-16.15407995
-17.65360945
-18.75779221
-19.83568552
-20.41795945
-20.69261222
-21.41038113
-23.66759852
-26.27236264
-28.36587373
-30.29427587
-33.110921
-36.83655186
-40.95036099
-45.31817199
-52.59724703
-56.83897528
-60.66276485
-70.95335931
-83.34248181
-99.84770138
-122.538905
-137.1397812
-97.51764201
-56.02414303
-29.96291474
-12.94032789
)


100
(
-160.1505876
-127.5873166
-102.1092816
-83.75823842
-69.86148908
-59.15581661
-50.8055814
-44.13613038
-38.73113492
-34.30638268
-30.63990848
-27.54107802
-24.91881278
-22.7677294
-20.92744282
-19.39474507
-18.1631866
-17.15169431
-16.38083999
-15.76441043
-15.30737322
-14.95365997
-14.50026223
-14.13540177
-13.85455743
-13.6724578
-13.41212313
-13.27166707
-13.33538231
-13.33420559
-13.2110175
-13.01145945
-12.94189582
-12.6439912
-12.23415163
-11.93999658
-11.76424089
-11.529148
-11.12988898
-10.95043675
-10.86763011
-10.8592948
-10.70030911
-10.65494872
-10.69287945
-10.84788529
-11.11011978
-11.41001522
-11.82082133
-12.30215118
-12.75528716
-13.17551821
-13.46618891
-13.67022739
-13.88216981
-14.10697319
-14.32184023
-14.64647481
-14.90302358
-15.17082834
-15.63466772
-16.40841008
-17.42130128
-18.42398172
-19.43070832
-20.42206983
-21.14362699
-21.69305689
-22.33082094
-23.12542397
-24.54389095
-26.80287281
-28.99213523
-30.6812614
-32.19263673
-32.97188971
-33.63240518
-35.04379517
-38.06856913
-41.53325357
-44.57785778
-46.9767594
-49.74533681
-55.81173647
-61.86471864
-68.99241328
-75.00103986
-87.26042076
-91.9840678
-98.60815501
-111.1849351
-129.460737
-154.6300875
-187.3243267
-220.1626294
-243.6762838
-166.8435184
-102.4917033
-59.19623584
-26.62508099
)


100
(
-163.134857
-131.1794101
-105.6976759
-87.10421051
-72.92203498
-62.14175255
-53.57260006
-46.81846673
-41.32863958
-36.84841472
-33.16308383
-30.15737248
-27.56134224
-25.41358201
-23.73661488
-22.2612731
-21.07997189
-20.19419877
-19.55514742
-18.96142299
-18.52811235
-18.22374291
-18.05862058
-17.6667405
-17.34669279
-17.08671371
-16.89604951
-16.70741548
-16.54037388
-16.58546078
-16.52397612
-16.34904881
-16.25313277
-16.13260324
-15.76040271
-15.28176464
-15.06968806
-14.92695262
-14.77064167
-14.57285863
-14.65347985
-14.8869705
-15.28563636
-15.64416751
-15.96885804
-16.38408663
-16.85498201
-17.41790758
-18.02180525
-18.48546659
-19.01594892
-19.50145669
-19.88418169
-20.25012049
-20.68140961
-21.07476526
-21.72301799
-22.68159597
-23.97184901
-25.46982298
-26.80993934
-27.9555112
-29.09059021
-30.11732065
-31.06734535
-32.14412149
-33.35988108
-34.97179681
-37.41262642
-40.45126815
-43.34149305
-46.12541182
-48.43005317
-49.80142973
-51.35224426
-53.79244455
-57.92763296
-62.61888661
-66.65621987
-70.04600158
-74.16023263
-81.07803573
-88.76490201
-97.3713879
-106.1015992
-117.5263709
-131.6361547
-141.3200279
-153.7080199
-171.4580014
-194.8245188
-230.1659579
-266.425339
-324.9135611
-376.1250694
-396.3903818
-264.6540805
-172.1379949
-104.7843999
-47.7907441
)


100
(
-165.7823409
-134.5494742
-109.1776169
-90.42715392
-76.24415719
-65.24437468
-56.59717932
-49.73204874
-44.21429087
-39.73448857
-36.06598724
-33.12188959
-30.73402603
-28.6647886
-27.01727852
-25.83852258
-24.73099676
-23.88425985
-23.29462897
-22.94219822
-22.48183424
-22.15492491
-21.91535112
-21.78291802
-21.48542788
-21.15510018
-20.86753739
-20.63270301
-20.48871305
-20.26818763
-20.24426363
-20.13789562
-19.99527214
-19.99670333
-19.95062244
-19.65385261
-19.45215889
-19.47785364
-19.68948845
-20.02502825
-20.45534416
-21.04372733
-21.77923185
-22.57763234
-23.50115574
-24.16492256
-24.7294512
-25.30140278
-25.88416411
-26.45895811
-27.15758011
-27.72277146
-28.45030829
-29.36499568
-30.51579553
-32.02478404
-34.01227745
-35.87604542
-37.98811912
-40.06605142
-41.84000295
-43.35676539
-44.67443178
-46.02248441
-47.87247504
-50.53773325
-54.13232828
-58.0043492
-61.77481475
-65.32751678
-68.09616341
-70.74636733
-73.73287025
-77.7160588
-83.51646851
-90.03100515
-95.43516283
-100.3697005
-106.2936339
-114.7017515
-125.6297686
-137.4674044
-147.7090546
-157.1283817
-177.297624
-191.8525889
-214.4202417
-230.2552551
-254.4822379
-283.6079727
-323.0644482
-374.8128992
-445.1756066
-537.4105382
-612.7409148
-594.7454277
-393.3761645
-267.8070707
-172.4400656
-80.43108996
)


100
(
-168.5590672
-137.7518728
-112.5280663
-93.75446335
-79.61756908
-68.46328417
-59.79970213
-52.89944125
-47.38817218
-42.97644638
-39.40988231
-36.5435973
-34.34699241
-32.56559083
-31.02257951
-29.8637046
-29.15047183
-28.34460231
-27.73985271
-27.32473379
-27.16270175
-26.74458436
-26.43240017
-26.19846624
-26.04422177
-25.84523517
-25.48373756
-25.17647322
-24.92675749
-24.78714838
-24.76706504
-24.69432674
-24.36772644
-24.77795141
-25.07266616
-25.4758633
-25.75213993
-26.18123804
-26.73134612
-27.46000424
-28.45525475
-29.42301299
-30.37767007
-31.44893886
-32.48112074
-33.49150548
-34.48003215
-35.22132685
-35.8931431
-36.82152366
-37.92053653
-39.36530116
-41.3465186
-43.51177023
-45.96104246
-48.69273737
-51.29638274
-53.97749699
-56.50459091
-58.58580447
-60.8686405
-63.44579457
-66.50767912
-70.46475523
-75.07574407
-79.91161111
-84.6962929
-88.69860501
-92.12972645
-95.17689423
-99.34066955
-105.0490815
-113.2536157
-121.4805086
-128.7543033
-136.5706482
-146.3245109
-157.7528417
-171.8349526
-186.4754554
-199.7069576
-214.5482265
-234.9934006
-255.2851232
-281.2167458
-305.3904332
-345.2578581
-371.938604
-409.8583799
-464.7787775
-526.1782211
-607.4729882
-717.7703696
-845.675265
-960.6621307
-845.7716925
-563.2586884
-398.2365586
-264.6276277
-136.3368004
)


100
(
-171.1464417
-140.7235562
-115.7403172
-97.30981602
-83.02958983
-71.8683217
-63.16661222
-56.33216178
-50.88942995
-46.5623926
-43.22510507
-40.50313719
-38.42237834
-36.9437914
-35.72083567
-34.63982844
-33.87104218
-33.4938184
-32.90199172
-32.41086162
-32.05515219
-31.89164706
-31.55531354
-31.22094832
-30.97342508
-30.80686736
-30.74001427
-30.45405917
-30.21869744
-30.11109168
-30.17095584
-30.51497184
-30.87266108
-31.23625742
-32.07378766
-33.04009681
-34.07153039
-35.30513034
-36.18862901
-37.22184139
-38.35666748
-39.63691256
-41.03711107
-42.145333
-43.24322796
-44.45806047
-45.77245783
-47.26089444
-49.19062328
-51.23877831
-53.62098276
-56.43779483
-59.57884823
-62.98588149
-66.86836899
-69.85994769
-72.81662142
-75.90348175
-79.08035385
-82.77978682
-87.53901264
-92.62663124
-98.63200876
-104.9597049
-111.1416528
-116.8451615
-121.091297
-125.5029112
-130.2345128
-136.4591887
-145.2427249
-155.0584289
-166.0511432
-177.7218772
-189.2632867
-202.072584
-220.745666
-242.9636842
-261.1944156
-277.574002
-299.2232175
-329.2799111
-361.5152317
-390.7158204
-424.892204
-474.2754092
-521.8469986
-565.5976278
-640.4077991
-728.2325415
-827.5143348
-940.1142988
-1095.010273
-1272.401423
-1420.324136
-1155.956909
-806.3681642
-577.3103692
-393.8843156
-183.2389233
)


100
(
-173.3189398
-143.7254338
-119.1839123
-100.7688299
-86.46756425
-75.41428829
-66.70527816
-59.95916595
-54.73942284
-50.55520918
-47.34707625
-45.03944961
-43.07636679
-41.70228918
-40.84975941
-40.05937084
-39.31205591
-38.78844443
-38.59450047
-38.13358108
-37.64549276
-37.28264829
-37.09128694
-36.87232033
-36.54472491
-36.35378073
-36.28752585
-36.39162399
-36.57996238
-36.68165545
-37.01801849
-37.61889329
-38.57780434
-39.99308048
-41.22729109
-42.61069705
-44.17834635
-45.80996579
-47.66956438
-49.25078353
-50.44899435
-51.69595176
-53.11390798
-54.64009225
-56.47468403
-58.24465508
-60.38688157
-63.16629361
-66.52991817
-70.34846455
-74.83651751
-78.88563
-82.76389658
-86.65348433
-90.66456662
-94.68977208
-99.22810148
-103.3430911
-108.9481428
-115.7689038
-123.176362
-131.5004087
-139.5050003
-146.2891092
-152.6966224
-158.8829211
-165.6383506
-173.9623761
-184.3122164
-196.150622
-209.1705526
-222.5890879
-236.2046853
-251.7203224
-270.7064367
-293.9777682
-318.6535192
-346.0603984
-374.4325387
-403.0514921
-442.1036159
-485.0534865
-522.8101802
-569.8044375
-632.7525491
-695.3669523
-748.6836904
-831.8264265
-950.057373
-1068.326378
-1214.030262
-1392.115129
-1619.263283
-1845.43554
-1981.746253
-1562.593468
-1135.893489
-837.2672041
-581.7598618
-299.91586
)


100
(
-175.4284294
-146.7823621
-122.5137294
-104.1796636
-90.0079343
-79.00819854
-70.44383985
-63.81444938
-58.78311942
-54.96250827
-51.92556798
-49.76588717
-48.30081302
-47.04031114
-46.23135149
-45.843912
-45.34109542
-44.78361011
-44.39316125
-44.24519313
-43.88596398
-43.38224586
-43.03160343
-42.87062869
-42.92489901
-42.74426934
-42.80133819
-43.12157511
-43.72941013
-44.72460042
-45.67426975
-46.78836217
-48.2373066
-49.99735014
-52.14752831
-54.49550852
-56.36901658
-58.33402994
-60.28905113
-62.36900848
-64.47818525
-66.22326313
-67.8274663
-70.00353186
-72.63242383
-75.91957706
-80.11170134
-84.57962767
-89.35301469
-94.61983377
-99.83024888
-105.2413879
-110.5431666
-114.5526145
-118.9145784
-124.5730106
-131.1571451
-139.1935005
-148.8109043
-157.74372
-167.1414805
-176.1040143
-185.207271
-193.8837425
-201.2074576
-210.9589639
-223.2403827
-238.5359742
-255.3520762
-271.0403002
-286.5709047
-304.6128431
-326.8420385
-352.7662162
-381.3463653
-411.8515491
-443.0710673
-478.573336
-521.4924628
-572.1586303
-622.213631
-676.5653521
-735.7353532
-812.4543238
-892.3588688
-965.5997959
-1052.921379
-1171.286155
-1315.204489
-1484.734856
-1678.617835
-1956.233713
-2241.663751
-2536.337847
-2657.736882
-2092.595771
-1575.994752
-1191.114118
-853.8223631
-436.1907572
)


100
(
-177.3123862
-149.6508944
-125.7187575
-107.4876193
-93.58907081
-82.65503826
-74.2922936
-67.90940392
-63.08143578
-59.58189138
-56.95472847
-54.97472911
-53.72257949
-52.94609027
-52.20466978
-51.7702992
-51.66072387
-51.3488116
-50.87611454
-50.54484802
-50.40460906
-50.22665344
-49.79500506
-49.59921919
-49.65896587
-50.06397825
-50.5913863
-51.27874297
-52.38432076
-53.88485523
-55.8158503
-58.22156373
-60.18690074
-62.39853945
-64.8256141
-67.50789158
-70.49590042
-72.94194929
-75.08718899
-77.38164254
-79.95279677
-82.80332899
-86.31249955
-89.8379262
-94.07131673
-99.07352079
-104.6738754
-110.7800352
-118.0951302
-123.9262548
-129.610866
-135.2873037
-141.202286
-147.5041083
-155.0854397
-163.2167086
-173.2008164
-184.3984103
-195.7296933
-208.2058287
-218.3628315
-227.1614401
-237.1629275
-248.2097512
-261.8494034
-279.0912098
-297.7581047
-317.6364063
-338.9374174
-360.8091472
-382.8443429
-408.4330583
-443.1059235
-481.727901
-518.0777058
-555.0896715
-599.3597495
-652.1644644
-712.1015506
-777.142091
-842.7309729
-917.4536175
-1014.6511
-1108.182326
-1203.967715
-1314.210644
-1449.890933
-1610.633212
-1806.207388
-2002.314436
-2266.188153
-2589.108396
-2974.430889
-3334.492981
-3422.216634
-2749.275215
-2131.384285
-1652.857629
-1216.606436
-567.5602
)


100
(
-179.0317085
-152.3147359
-128.7516457
-110.8809733
-97.0952326
-86.36938837
-78.21450678
-72.15827813
-67.67063693
-64.44482907
-62.3071388
-60.69042133
-59.58305478
-59.0386213
-58.73187383
-58.31664718
-58.08943047
-58.12633827
-57.97723039
-57.5602379
-57.30887393
-57.27389092
-57.5048146
-57.3792103
-57.62078684
-58.29141908
-59.46873782
-61.30159079
-63.00818099
-65.16499867
-67.77911826
-70.71053213
-74.14671148
-77.23059545
-79.89601628
-82.66532898
-85.67925963
-88.93295927
-92.50740962
-95.58406802
-98.9707388
-103.237024
-108.277074
-114.2188383
-121.3075305
-128.2875077
-135.2662867
-142.4826659
-149.7255071
-157.2762033
-164.9783831
-171.3324521
-178.9379481
-188.3364145
-199.3300387
-211.412963
-225.7227055
-238.6284249
-251.4859622
-263.9887785
-276.0570601
-288.8410898
-301.2121717
-317.913236
-338.6381883
-362.9191138
-388.5235054
-413.5506885
-439.7066007
-469.3999741
-504.5778363
-546.0480471
-589.2600136
-635.1012303
-682.3206021
-733.2250036
-795.8528274
-870.7892302
-946.0189189
-1027.545428
-1121.584171
-1227.756842
-1345.124079
-1455.18749
-1585.670542
-1766.016065
-1950.657633
-2147.631062
-2402.087956
-2669.493813
-3006.811219
-3458.626367
-3928.354924
-4366.075506
-4319.747704
-3522.724462
-2806.608
-2226.077091
-1676.145171
-718.4252666
)


100
(
-180.4211474
-154.7139515
-131.6970102
-114.1904951
-100.5364113
-90.12717356
-82.22207329
-76.49397702
-72.53426882
-69.65138141
-67.800366
-66.8483274
-65.95737374
-65.47103126
-65.4156412
-65.39526692
-65.16332037
-65.08037698
-65.19933651
-65.28967948
-65.02099172
-65.03817232
-65.37545154
-66.15048312
-67.05220279
-68.22769102
-70.00459685
-72.37376393
-75.36462364
-78.82772328
-82.06472412
-85.60259815
-89.24685937
-93.25728665
-97.44589921
-100.4788948
-103.5830566
-107.3646603
-111.6841065
-116.7881818
-123.127045
-129.3444126
-136.3200135
-144.1255306
-152.4154653
-161.7945693
-171.9936825
-179.5523493
-187.0537352
-195.4315521
-204.5424546
-215.0795577
-227.6921218
-240.615825
-254.8369435
-269.9135413
-285.905521
-302.5402201
-315.9164623
-328.7198897
-344.4161405
-362.2444511
-383.7372005
-408.7923885
-436.1039041
-464.729068
-495.8407484
-529.3859879
-564.7559235
-605.770833
-656.0496838
-710.6957701
-764.7248611
-820.8463717
-885.4710673
-963.8953531
-1046.82787
-1134.442031
-1226.689944
-1334.193434
-1468.228726
-1609.682882
-1740.893903
-1878.915116
-2065.325479
-2291.77279
-2533.5208
-2804.786077
-3131.358068
-3476.543837
-3907.800287
-4425.523625
-5051.587275
-5550.417243
-5417.943844
-4420.11737
-3586.949797
-2908.94636
-2241.343901
-914.0468357
)


100
(
-181.7102162
-157.1466782
-134.6929698
-117.3699588
-103.9238863
-93.80257524
-86.31266014
-80.95781463
-77.41666758
-75.19517872
-73.65803755
-72.90275319
-72.78262262
-72.41206168
-72.3170302
-72.55391231
-72.74885454
-72.65487403
-72.73557144
-73.03983821
-73.5907801
-73.76455313
-74.40123518
-75.59812235
-77.46083558
-80.08759821
-82.61553859
-85.7201638
-89.40807089
-93.57600572
-98.74770327
-102.8296987
-106.8710829
-110.9834191
-115.4797937
-120.183845
-125.167751
-129.5307259
-135.2810111
-142.3470245
-150.6319732
-159.8464812
-170.8006859
-180.0983304
-189.6673048
-199.2788568
-209.8003604
-220.4936097
-231.4944318
-241.1707676
-253.7203359
-268.5970946
-284.3508724
-302.7525767
-322.0097921
-338.7406087
-354.7863566
-372.281997
-389.8635752
-409.3971604
-430.1840752
-455.717901
-485.4435005
-518.3292401
-552.7375511
-587.8357685
-626.3946764
-670.7250884
-723.2076867
-782.0403744
-842.7674799
-906.8902398
-975.100661
-1049.249776
-1137.305408
-1240.46226
-1346.413413
-1454.325207
-1580.341778
-1725.495615
-1886.415611
-2049.843736
-2211.286144
-2415.923334
-2659.30884
-2937.221185
-3258.892438
-3624.979819
-4060.768028
-4455.836376
-5036.93892
-5644.797675
-6340.7396
-6990.193789
-6664.538529
-5453.429478
-4492.102618
-3700.790662
-2905.145063
-1014.745614
)


100
(
-183.0052994
-159.4337256
-137.4904937
-120.4076993
-107.3614602
-97.4341266
-90.36668493
-85.54603636
-82.42034625
-80.69225982
-79.81333829
-79.34250725
-79.35992825
-79.74190828
-79.73276083
-79.8763176
-80.31129183
-80.77412869
-80.91672934
-81.35574622
-82.05414714
-83.31361653
-84.70100861
-86.54106203
-89.17011171
-92.57958519
-96.77294253
-101.3569256
-105.7985036
-110.6098837
-115.6687564
-121.4071656
-126.9681934
-131.4881043
-136.2881303
-141.9789009
-148.3611342
-155.9361476
-164.3272123
-173.5463859
-183.9066748
-195.2462323
-206.9774835
-220.2612583
-232.2230579
-242.2850676
-252.8667301
-265.547745
-279.6473626
-296.1053455
-314.722406
-332.7007871
-351.8714178
-371.4797319
-394.0334672
-416.8575539
-434.8259133
-454.1676755
-477.5430154
-504.5756355
-536.1808547
-571.2688504
-608.5788547
-648.3564202
-690.3106257
-736.9059999
-787.4734518
-846.993758
-915.0054263
-987.4743997
-1061.479485
-1140.554103
-1230.195758
-1336.556925
-1453.150785
-1574.020462
-1701.654192
-1840.081267
-2001.614357
-2186.946555
-2379.269941
-2575.283198
-2795.932304
-3068.879469
-3379.005986
-3750.231924
-4162.927036
-4603.580406
-5118.089649
-5628.565178
-6355.646505
-7050.772446
-7939.353109
-8564.049606
-8056.664332
-6654.249133
-5563.063937
-4629.386178
-3687.295088
-858.6260339
)


100
(
-183.738697
-161.5079561
-140.1034977
-123.3556917
-110.6363456
-101.0399969
-94.35503319
-90.08973291
-87.5457293
-86.2612746
-85.97606373
-86.05050771
-86.28784675
-86.81685532
-87.49880667
-87.72152576
-88.09770558
-88.75140477
-89.69565903
-90.28794992
-91.4024515
-93.16169448
-95.72480022
-99.08740969
-102.6311721
-106.9362702
-111.9717561
-117.7448655
-124.5113745
-129.8603991
-135.3288207
-141.086739
-147.454062
-154.2970115
-160.8816533
-167.5504344
-175.8905301
-185.6418071
-196.7809699
-209.5512019
-222.894557
-235.6929449
-248.8224444
-261.9734492
-275.9303572
-290.2188535
-303.5062235
-318.3104603
-337.0954313
-358.2192119
-380.4582313
-406.6927311
-429.5650216
-450.5329127
-472.5131562
-497.3141612
-523.8430648
-552.9359041
-584.2454633
-619.7257036
-659.5139263
-702.882979
-748.3902816
-795.8675825
-848.5132757
-909.0520173
-981.3459973
-1060.78673
-1144.456403
-1229.127388
-1320.83013
-1421.968243
-1537.349451
-1669.602857
-1810.302341
-1960.366187
-2127.734833
-2317.67106
-2509.468626
-2710.812257
-2930.180931
-3185.813577
-3490.875659
-3831.324088
-4207.784952
-4680.666503
-5176.69364
-5737.328092
-6324.615872
-6965.461487
-7777.110686
-8638.405514
-9590.001559
-10350.92367
-9615.873082
-8046.909143
-6823.454391
-5739.8301
-4586.668416
-195.5052722
)


100
(
-183.9998322
-163.3228535
-142.5153323
-126.2992517
-113.7922545
-104.6381626
-98.31001262
-94.53307946
-92.70093406
-91.95355833
-92.06089671
-92.80771227
-93.44928081
-94.11384695
-94.95799713
-95.9080428
-96.38088088
-97.11049196
-98.23754142
-99.8896024
-101.6729972
-104.1047408
-107.5167782
-111.9549119
-117.469118
-123.2212309
-129.2167398
-135.73191
-142.7080784
-150.4618029
-157.469898
-163.664505
-170.4664017
-178.3389965
-187.287477
-197.9202231
-208.7308442
-220.8179414
-234.1429736
-248.3294063
-263.937711
-281.2027867
-295.0773416
-308.6688052
-323.6266191
-340.3853846
-359.2984139
-381.7635914
-404.8543382
-429.5167519
-455.8786881
-482.3438771
-511.8110199
-539.2203468
-561.4641933
-589.5481775
-623.2935368
-662.1492055
-705.9502377
-752.4787302
-801.3634602
-853.7909035
-908.4827711
-969.246547
-1035.822177
-1114.239564
-1202.204868
-1296.31514
-1393.733992
-1497.821877
-1615.818273
-1752.086158
-1906.351269
-2060.238001
-2224.145709
-2408.887827
-2615.998511
-2841.993317
-3077.273611
-3322.129535
-3584.616774
-3918.457326
-4295.212282
-4710.696626
-5212.013226
-5770.391744
-6336.531112
-6970.418851
-7669.05392
-8427.10528
-9402.449801
-10440.13224
-11503.82445
-12211.79179
-11351.35553
-9602.604126
-8271.519503
-7040.279901
-5700.542925
-11.90647653
)


100
(
-184.4927757
-164.9291473
-144.9292273
-129.0413977
-116.8158491
-108.0624144
-102.253604
-98.93695089
-97.64100013
-97.72884845
-98.25066423
-99.26501622
-100.6494445
-101.6310388
-102.5750327
-103.6955222
-105.0204498
-105.9661818
-107.3665296