/*--------------------------------*- C++ -*----------------------------------*\
| =========                 |                                                 |
| \\      /  F ield         | OpenFOAM: The Open Source CFD Toolbox           |
|  \\    /   O peration     | Version:  2.3.1                                 |
|   \\  /    A nd           | Web:      www.OpenFOAM.org                      |
|    \\/     M anipulation  |                                                 |
\*---------------------------------------------------------------------------*/
FoamFile
{
    version     2.0;
    format      ascii;
    class       dictionary;
    location    "constant";
    object      la_r14;
}
// * * * * * * * * * * * * * * * * * * * * * * * * * * * * * * * * * * * * * //

la_r14_table
100
(

100
(
225.4200138
329.209512
308.6751589
298.4272849
290.5135088
274.1187604
260.3821644
246.6623437
233.7619961
218.8244593
210.691981
194.9028497
184.721263
176.0072728
163.8457544
154.4126939
146.8580799
136.1007056
127.5853023
120.7581099
112.5503851
105.0804382
98.72034076
92.88185219
86.23852292
80.56845976
75.60654561
70.72357309
65.68945621
61.26422475
57.37291659
53.40955289
49.47931947
45.99404589
42.84142
39.82129841
36.75551998
33.98679996
31.45908669
29.10336176
26.76670074
24.62922808
22.68386886
20.87588684
19.07126378
17.40406687
15.88727128
14.49785509
13.18491387
11.98198256
10.88482737
9.889445686
8.971118179
8.122334548
7.353864561
6.646343973
5.967637694
5.345282506
4.794578221
4.294475367
3.818712484
3.392895064
3.021121113
2.682669652
2.365108623
2.080269357
1.833182127
1.609478678
1.404568275
1.224790757
1.068263395
0.9277697034
0.8023113319
0.694200981
0.5996596116
0.5152149843
0.4419350129
0.3804398179
0.3241268148
0.2766396088
0.2364129169
0.1971953622
0.1676793937
0.1364556658
0.1130191722
0.08800106708
0.06930624834
0.04925516049
0.0339709272
0.02139597785
0.010821977
0.002175156128
-0.004933931868
-0.0092270272
-0.01230062685
-0.01311783424
-0.01331962367
-0.009875795751
-0.003675117341
-4.082952665e-11
)


100
(
222.5112518
310.2868997
293.1224662
281.8296838
273.8942936
258.4017596
242.7964965
230.2975819
216.5040499
202.9300765
193.6903719
178.8239291
169.1418335
159.4878862
147.9193032
139.3359058
131.3507139
120.9704676
113.554934
106.8973939
98.93738511
92.24217082
86.61488463
80.9443348
74.66627371
69.94566192
65.50979338
60.87227135
56.06065579
52.45148771
49.01982805
45.36257632
41.83020086
39.00596152
36.32155092
33.63091923
30.83810824
28.49297262
26.46460423
24.42267826
22.35204629
20.5443932
19.01236774
17.48363834
15.94750121
14.56825199
13.39213255
12.27037328
11.11273265
10.07721092
9.212560013
8.452666475
7.680211915
6.9617562
6.334525588
5.749535944
5.174791754
4.681744242
4.391335096
4.505476974
4.935068013
4.287011313
3.247343042
3.077122848
3.3244269
2.799575198
2.081171168
2.170355271
2.140139818
1.61613768
1.261929972
1.344812036
1.073020565
0.6578546503
0.9430316935
0.9922395979
0.2436251489
0.344099503
0.3571470367
-0.2207453628
-0.06507911401
-0.3282985104
-0.5398307353
-0.4580070704
-0.834657145
-0.8674911804
-0.9957512224
-1.226789352
-1.324483434
-1.545222417
-1.741208752
-2.018552577
-2.329386212
-2.672759106
-3.07025891
-3.456299692
-3.815969759
-3.292423289
-1.230187064
-0.2980433331
)


100
(
221.1498265
297.9492395
282.4104585
270.7016612
263.0450177
246.8365614
232.8909914
217.7065662
205.3812774
190.7820948
180.9245262
167.997836
157.1841032
147.9672596
137.4116006
128.2789954
120.68634
112.3483404
104.0297226
97.77846512
91.38857129
84.87605302
79.17608549
74.2513796
69.21223294
64.24580449
60.03491229
56.13424417
52.21416413
48.39460105
45.07390146
42.09785402
39.1477856
36.32606248
33.7805069
31.4950921
29.21890063
27.01180368
24.97317401
23.18520711
21.52773814
19.93540355
18.4623698
17.12942065
15.86757396
14.59656247
13.39635277
12.32310086
11.29724128
10.29493318
9.41133268
8.724432647
8.226219023
7.707220977
7.233532338
6.802665513
6.434860557
5.984228207
5.627150245
5.475353709
5.840080111
6.416712223
6.030451684
5.044315913
4.397243141
4.268150381
3.790420559
3.163760579
2.811651462
2.418355048
1.88032691
1.36371026
1.060466046
0.6200419227
0.3167248241
0.6133808435
1.073059408
0.4824565217
-0.03779187509
-0.3897661595
-0.8260003048
-0.7388648208
-1.637069267
-1.300633963
-1.869030514
-2.669504969
-2.943937868
-3.724279679
-4.463210235
-5.068842445
-5.734075687
-6.685718725
-7.833605808
-8.067265933
-9.8530431
-11.45781655
-11.22667463
-8.387239226
-4.798623148
-2.231050756
)


100
(
225.9155265
287.7052303
272.1841255
263.5217917
252.2815793
235.5402687
222.7905434
206.7125431
195.1086641
181.9199456
170.4875659
159.7442519
148.0423551
139.1314812
130.1582485
120.884899
113.2489906
106.2343889
99.10889827
92.15104051
86.65831194
81.17935885
75.79757678
70.80156714
66.53006217
62.29417344
58.21725231
54.49212442
51.17215173
47.86630907
44.67333578
41.72933852
39.18330596
36.77065755
34.48822708
32.38933663
30.44968577
28.54910348
26.71615661
25.04228672
23.59969923
22.34406784
21.19203718
20.22498494
19.37527529
18.67747964
17.81331322
17.03345017
16.29383061
15.72653957
14.92443301
14.25865378
13.63864174
13.07826761
12.31986532
11.6181537
10.98187714
10.41165553
9.683174062
8.972263198
8.4209946
8.134228631
8.057256095
7.488815132
6.563714862
5.672169037
5.036736775
4.357223655
3.792011767
3.6050335
3.565887619
3.597619376
3.775342171
4.045776795
3.325843629
3.386795812
4.957214856
3.531150024
2.070602167
3.540498671
2.621293116
1.396196003
1.418205566
0.324986549
-0.8973880613
-1.360417162
-1.593765685
-1.675509177
-2.350209979
-2.296710734
-2.043087629
-2.629901279
-2.122929163
-4.153582099
-4.177322915
-3.071095372
-1.517473275
-6.59676372
-8.216695189
-5.137094197
)


100
(
234.354371
280.7778731
265.9409182
254.9679966
241.763363
228.0406851
213.4082162
199.8641614
186.2596322
175.0190456
162.7140907
153.0054729
143.0089263
132.9956339
124.9879748
117.0342433
109.1602494
102.5688224
96.5241175
90.59259289
84.78948109
79.98548263
75.4054906
70.97220033
66.75612027
63.11861015
59.65110211
56.40971502
53.43921883
50.72221075
48.04131363
45.45866088
43.11169046
41.16172819
39.29262434
37.63331048
36.19578104
35.0922721
33.79792347
32.65907145
31.66724694
30.7310988
29.81684731
28.68663969
27.73202428
26.92641827
26.31617343
25.17975012
24.20688132
23.39415402
22.62700268
21.5479898
20.58459871
19.74429415
18.83230817
17.74799371
16.7636996
16.04530402
15.29006287
14.3879431
13.38029047
12.5120343
11.97431667
11.84916746
11.79454852
11.7438032
11.64523699
11.4206271
11.20021985
11.05209702
10.76881387
10.49074047
10.92105976
13.10395584
15.36176537
13.74084689
12.38167587
13.59157617
13.04655341
11.90208369
11.17144098
11.01146049
12.85584389
14.55094043
15.19063766
15.52798067
15.21396405
17.48924568
20.93924302
29.07404719
28.30728884
29.14547413
35.12420808
38.15296222
46.32249915
60.48460381
57.02144439
12.70611251
-2.921383292
-3.869214048
)


100
(
230.2720333
271.7836291
257.7345662
246.3354539
232.4383376
220.2729446
205.1538408
193.2243499
180.0110077
169.1829044
158.7877981
148.0946727
139.3894654
130.4903161
122.0140381
115.0085643
108.2622328
101.7158848
96.1706674
91.16224368
86.33224045
81.71332201
77.76087608
74.14138611
70.71834266
67.57011923
64.8249869
62.3138748
60.04562914
58.0134952
56.24682311
54.35664185
52.60224387
50.98571736
49.77854225
48.12744697
46.70296318
45.42947065
44.84848886
43.51909258
42.36443161
41.37950529
40.62521573
39.46133179
38.05243999
36.87418075
36.16255891
35.27159448
33.77503621
32.5311095
31.56403159
30.51835357
29.28900525
28.19813015
27.22246916
26.21687286
25.22344725
24.83162646
24.99942067
25.43766879
25.8571713
26.02650385
25.91335487
25.78956078
25.57323505
25.32400515
25.11942515
24.81272533
24.18805
23.63656473
23.72363332
24.77509177
26.32873418
28.08459821
30.10527449
32.84864495
32.29348509
32.15193946
33.31534958
37.21560529
41.37601511
44.5624883
47.27673888
50.74593302
55.65625049
62.60307366
67.81195031
75.31760946
92.25168662
100.3100943
105.8380298
124.0008454
136.3461435
157.8647691
185.6516334
225.0108095
174.8979751
65.23910092
22.68185634
8.496995717
)


100
(
223.0379147
262.9390138
249.3210597
237.5457494
226.3298635
212.9660792
200.0210618
187.4047435
176.325452
164.7058242
155.6799681
146.1813065
137.295021
129.6471056
121.9658056
114.9460546
109.110508
103.7037738
98.63702683
94.29563297
90.44784116
86.85880222
83.61712565
80.87369327
78.33389154
76.10074281
74.22620944
72.46413165
70.72427151
69.18563812
67.87974754
66.75532462
65.14199509
63.7019267
62.53736525
61.50343581
59.72209219
58.21437728
57.23888518
56.45456301
54.84224207
53.40533764
52.33985965
51.30458449
49.80770227
48.14141409
47.1830127
46.36967704
45.5141438
44.13986034
43.23444324
42.53346836
42.19300659
42.24022166
42.45919486
42.90989913
43.36321169
43.78867323
44.12760142
44.45278072
44.89898552
45.2145363
45.40520171
45.86115465
46.02346634
46.03405681
46.46716934
48.15248513
50.93154186
53.34073823
55.56312309
57.57942746
59.64568445
61.97745146
64.12593767
67.04978231
72.75855241
79.66773942
86.53858734
92.42141928
98.71322499
106.6693306
118.5734793
131.8897181
144.5662405
157.5078847
174.5162862
194.0889642
218.7828179
239.2916896
258.0472155
283.7349689
314.8821359
355.5329622
407.3610968
465.3535967
340.8426132
172.1643069
88.35652786
33.37315409
)


100
(
223.4372333
253.6640469
240.5334749
230.5857135
219.5519402
206.2634913
195.2357463
182.5866754
172.9274616
162.8577584
153.5284013
145.6039356
137.3071277
130.1370435
123.7383697
117.4837933
111.9850559
107.5478981
103.825169
100.4403789
97.60467327
95.06426538
92.87619035
91.07501838
89.68414881
87.96929825
86.49969873
85.32682239
84.01928947
82.73430736
81.57908647
81.02158019
79.77296565
78.03684517
76.53718209
75.66843191
74.34003512
72.32951883
70.75614061
69.92481765
68.89852774
67.13156976
65.55137352
64.48435883
63.40820477
62.13133591
61.16812614
60.94966714
61.2379299
61.99601486
62.94278979
63.77861453
64.75787768
65.745625
66.94153874
68.18310981
68.66833032
69.1799294
69.64675449
70.13187671
71.0922255
71.94827362
73.17078109
75.34821162
79.08529003
83.78957089
88.22228892
92.14772449
96.1412446
100.5233637
105.665533
110.6508254
115.9018848
123.2021652
132.4751199
142.352533
151.3615769
160.7181446
172.0175305
185.045035
201.7650508
219.2757759
237.4672237
256.3384278
277.0544217
301.5245672
326.7451414
350.901315
376.6090378
404.5525727
435.0580597
471.7399038
514.2757922
568.6646856
642.8699329
698.0136767
501.7975261
325.5535238
210.5985892
65.0436408
)


100
(
228.9314051
246.5537407
233.4104829
224.1157579
212.8884104
201.620602
190.5539422
180.1899871
169.9969572
161.6802935
152.8461063
145.6811398
139.0795563
132.3808435
126.9349365
122.0774732
117.5254958
113.623167
111.2377973
109.1768339
107.5578186
106.3336145
104.9588349
103.9105888
103.0922468
102.4361701
101.2400841
99.95462866
98.86697961
97.58362537
96.50804468
95.75111744
95.35186854
93.84564624
91.94795167
90.62250967
89.59431456
88.02062077
85.92156974
84.84600245
84.1393933
83.43944475
82.19110875
81.55418725
81.38430661
81.79214024
82.84174524
84.1916369
86.07438644
88.28557964
90.52988875
92.87462706
94.69377394
96.03794016
97.51098932
99.24030388
101.0370804
103.3915538
105.3219839
107.3203387
110.3014274
114.889037
121.0874511
127.6583759
134.1698052
141.0669293
148.2229898
155.912968
163.9962194
172.3632162
182.9958924
195.8347239
210.4076179
223.5340588
235.0051096
248.1919892
263.8845668
280.6298393
299.4535532
318.5999835
338.0870195
357.6847871
378.1983657
402.9936523
428.7748237
454.9768737
480.9180623
510.9268236
540.4150194
574.2952384
614.2015852
659.9205963
719.5433965
796.0102319
891.6641336
919.8304995
645.4727591
472.796565
358.4190557
84.3640428
)


100
(
233.7585927
241.0556815
226.984696
217.3469521
206.362302
197.0053066
186.1289745
177.5111626
168.1176571
160.6835966
153.794359
146.7452178
141.4994966
136.5919606
131.9565302
128.3729656
125.4193109
123.0229223
121.4393479
120.2969242
119.6711626
119.3709645
119.3446673
118.6544736
118.1721232
117.8022391
117.3722398
116.4790825
114.9913833
113.6195815
112.1404298
111.2962101
111.1259874
110.6190592
108.9788035
107.1004846
106.2189776
105.3869355
104.2604745
103.168142
103.2826198
104.0551806
105.5149187
107.0909945
108.7610557
110.8754563
113.2945297
116.2963139
119.5935159
122.1716688
125.1148914
128.1982708
131.244466
134.4565755
137.9153
141.0064857
145.2512864
150.8409105
158.1028283
166.9399543
175.6605487
183.4548263
191.7761469
201.4724017
212.3911244
223.4686958
234.3559259
247.002236
261.7175528
278.542048
296.0808987
311.9931699
327.932029
344.6185338
362.4268251
380.3698631
399.9157791
419.4944647
438.9243069
458.5558543
479.3670673
503.7444161
529.6513035
556.552513
584.0151472
614.1074158
649.1231935
685.3422098
725.2712151
770.3170796
820.6445827
885.1995042
959.9887131
1062.990536
1181.790057
1135.283101
781.914286
618.7278727
493.003635
84.15455327
)


100
(
228.5623633
234.4775193
220.1460165
210.3796851
201.4221948
192.1111403
183.1196471
174.7475701
167.5687736
160.1570003
154.7624147
149.6590447
144.9311778
141.6082917
138.8357948
136.560087
134.9347815
133.9802206
133.5627571
133.6488886
133.5498018
133.8310467
134.2410226
134.6441994
134.5167767
134.2458459
134.0345617
133.6776004
132.8839153
131.0308296
129.4045492
128.4351829
127.8567278
128.1279434
127.9020768
126.8023668
126.1979401
126.4818525
127.3329574
128.6190705
130.5350608
133.2717469
136.6850303
140.5323765
145.180342
148.9080912
152.2957227
155.9776971
160.1626329
164.7082147
169.8507064
174.1396494
179.2422274
185.3536031
192.6085809
201.7105572
213.2698508
223.9422749
235.5438128
247.9203162
261.3455764
275.5848078
288.5289989
300.9200133
315.5392943
331.8905497
349.294268
367.5020906
384.1738746
400.7996972
419.6852485
439.5790032
457.2467849
476.3532437
497.4958804
518.9617538
540.2382773
561.8734842
584.7699273
610.5565388
638.7793317
668.2707399
697.4168261
727.5076296
765.1592573
804.9589456
848.6611501
893.0377329
945.404596
1002.044192
1070.367554
1151.885547
1255.030254
1383.531522
1518.257598
1332.519125
918.9420464
777.1185324
632.402155
88.32134434
)


100
(
217.8498493
227.7392815
213.087474
203.845143
196.1290662
187.2458474
180.1468494
172.2147782
166.5866392
161.0229836
156.149418
152.7998501
149.8950891
147.6947066
146.5658895
146.106948
146.1099725
146.2022971
146.8070087
147.715989
148.8315245
149.2787589
149.937292
150.6844397
151.3195628
151.6139525
151.4518367
151.4024772
151.23315
150.6369039
149.6377483
147.7396428
146.13197
148.101939
149.5167656
151.2339146
152.7054865
155.0026514
157.9550487
161.6455481
166.4130634
171.157846
175.9007125
181.276293
187.0158079
193.3186751
199.9594884
205.5680457
211.031213
218.0115086
225.9394853
235.2354937
246.6312353
258.5141044
271.3168792
285.4144549
300.3742249
318.0571674
336.0797587
351.0077895
366.680009
384.0130832
402.1033035
420.8689101
439.3210076
456.4057438
473.1305831
491.4029776
510.3885095
526.4233662
545.4386236
567.2618613
590.8492494
615.194143
639.9841698
665.9412876
693.3010618
721.7812093
752.9871653
785.2572574
818.0185344
853.3754992
892.4837569
935.8095817
981.1505214
1029.347498
1082.512116
1140.169534
1205.199287
1282.686319
1370.975649
1476.904181
1607.063748
1763.336953
1883.790613
1503.228676
1070.97818
966.2252702
781.2972866
53.5796439
)


100
(
213.6756905
220.6528395
206.322487
198.6571927
190.6867667
183.2555237
176.8045973
171.0151514
165.5882867
162.0165995
158.5269024
156.3229828
155.3305297
154.8971564
155.1444879
156.1340707
157.6359735
159.3083693
160.645307
162.2034637
163.8400545
165.2902325
166.2177708
167.0714679
168.0406072
168.9253825
169.6532324
169.8341639
170.131987
170.5954683
170.9998955
171.3875236
171.7212068
173.1269218
176.6339682
181.0400755
185.9415627
191.7621599
196.5853296
202.1078341
208.2512572
215.3470607
223.3073631
230.2460626
237.3166628
245.4201921
254.5771721
264.7030334
276.4675885
288.3055401
301.3061607
315.7968871
331.7225353
349.7848087
370.9888097
388.3122888
405.4416926
424.1956056
444.2566952
464.8545211
485.4700404
503.8640368
522.2253968
540.5731273
560.1183819
580.0597758
596.312319
614.0190697
634.2031175
656.1961249
681.7913686
708.8335884
736.6375126
765.4452248
794.9862129
826.231643
862.7056383
901.804931
939.906043
978.7411386
1022.135547
1070.464452
1118.975235
1169.841315
1224.626687
1290.137391
1352.466475
1422.09704
1510.194921
1611.67923
1727.377438
1852.923917
2013.589241
2205.12913
2242.852452
1656.916077
1276.187036
1183.270663
956.6321484
72.34406928
)


100
(
213.775074
214.8508386
200.8213982
192.7526366
185.323476
179.5809579
173.4281293
169.3208959
165.1629547
162.7590553
161.4916921
160.5309963
160.9074824
162.3091669
164.2429342
166.4643722
169.0590722
171.8829733
174.5812114
176.7281171
178.7735277
180.7952847
182.5429884
183.9270108
185.0348512
186.3732013
187.7492469
189.13648
190.6510609
192.1192283
194.2202406
196.8699835
200.2670579
205.2272529
210.4470794
216.6911812
223.9815077
231.9922656
241.2558493
250.0041387
257.6749629
266.0007972
275.6871671
286.4033982
298.4363101
309.8129207
322.4919312
337.474002
354.3483718
372.9165981
394.2358821
413.8004498
432.5228874
451.9123125
473.5160237
496.2068321
518.7233707
537.0921967
557.5301236
578.3655053
598.5189737
619.5701387
639.8560075
657.9784758
676.943193
698.3169548
720.937617
744.9622438
771.72362
800.3201837
830.4439817
861.6345507
893.3659571
926.9102646
963.8357085
1006.175402
1052.018605
1098.999449
1146.144906
1195.005194
1250.96442
1307.95094
1365.157547
1432.457629
1505.851424
1575.505453
1648.742503
1744.428975
1858.628028
1977.928812
2117.927755
2267.080776
2473.645415
2686.450549
2581.390074
1859.212848
1521.267302
1429.362822
1148.422104
-276.1504902
)


100
(
214.0632749
209.7233616
194.9520824
187.0291125
180.6541342
175.3635737
170.7591472
167.2536653
165.2841808
163.5994405
163.9318584
165.1938262
166.8408298
169.5266312
173.0259228
176.7666308
180.3493754
183.9733327
187.638256
190.9325442
193.6487301
196.0405839
198.446341
200.6627277
202.789004
204.48309
206.6136606
209.2829045
212.4860881
216.5656569
220.9309118
226.0318225
232.3345304
239.7776852
248.7704635
258.9667413
268.1819581
278.198264
288.9892381
301.1868623
314.2445751
326.1998795
337.8353072
351.9430748
367.8005557
385.6991627
406.147915
426.6606032
447.5308991
469.5750109
492.1320285
516.9197699
541.5504236
560.7183408
580.1918458
602.4090209
624.8461121
647.3479178
669.9341562
689.7957577
709.5902918
730.0028446
753.3884203
777.4382364
798.9863926
824.6882274
854.1554733
886.1211771
919.4708783
953.0356714
987.7011533
1024.733139
1064.882434
1108.031889
1154.05575
1203.079655
1255.371117
1310.038374
1367.991382
1431.807616
1499.284042
1567.273858
1640.466552
1721.759946
1800.841729
1884.575951
1986.779098
2102.245948
2228.631737
2370.182891
2531.529491
2673.856106
2947.714126
3178.029328
2916.646026
2104.125887
1802.863648
1711.325129
1397.314755
-64.64027316
)


100
(
205.6040878
204.0627729
189.2536308
181.3560678
176.1219592
171.0047216
168.0468868
165.1264963
164.5661658
164.9699424
166.1760774
169.1010965
172.7874631
176.7360036
181.2692964
186.3013507
191.2400122
195.7315753
200.0151906
204.2473109
208.037514
211.3414003
214.2249632
217.306165
220.4165212
223.6685656
227.2493175
231.3620177
236.6565199
243.094788
250.9041445
260.4439612
269.3558951
279.389334
290.6297588
303.4454036
317.9806977
331.4227671
344.3769579
358.6715073
374.8601893
392.4937791
412.0830831
430.9039693
451.4793378
473.8588379
497.5594448
522.9026717
551.6880017
575.1062052
597.4755509
620.1211295
643.5597814
666.3782816
688.6671811
709.413933
731.5432126
754.1678898
776.8443361
801.7821391
824.1871733
845.5472018
870.7413854
898.9313735
929.7553914
964.5032821
1000.704082
1037.591578
1075.618635
1114.910324
1155.387872
1199.459098
1249.991055
1302.697617
1356.295364
1413.093137
1476.451446
1543.344992
1613.138436
1686.208453
1764.900719
1846.115947
1937.585126
2028.126915
2121.07529
2232.111453
2357.355709
2491.719258
2640.091243
2793.036906
2982.252866
3180.268561
3441.178774
3679.405445
3269.368638
2378.144208
2107.912788
2028.461657
1674.665344
-183.2067173
)


100
(
194.9499881
198.0796156
183.4979021
176.4289448
171.1368464
166.9873082
164.6652843
163.5896133
163.4861139
165.6594503
168.6105123
172.5932545
177.8956662
183.5707948
189.195223
195.0429763
201.1135671
206.8702975
212.04294
216.8450644
221.6421269
226.1298765
230.3673549
234.2168387
238.5458423
243.554517
249.3973829
256.6898666
264.2911744
273.3949468
284.2127699
296.5211152
310.8074812
324.9149639
338.4671
353.1877121
369.7916439
388.2416743
408.2746772
426.5237933
445.858839
468.0615895
492.1918845
518.2060875
546.4775075
573.0810568
598.8110504
624.808069
651.3307019
678.6152868
704.1195265
724.579788
746.1315607
769.2296842
792.5351665
815.9244466
841.1740696
864.4788802
888.3076403
913.9725501
941.5280605
970.5248145
999.2169284
1033.312898
1071.766852
1112.579373
1154.383437
1196.295747
1239.396071
1285.238567
1336.077038
1393.269034
1451.349378
1510.739612
1573.21692
1641.301927
1716.530776
1793.639636
1872.874474
1960.121154
2054.515561
2152.389873
2248.858938
2351.111847
2469.344472
2615.766942
2760.225073
2908.101632
3076.066546
3257.360324
3474.494186
3792.065016
3995.179408
4187.362113
3526.776901
2672.895897
2428.257584
2358.936809
1953.285754
-675.8760665
)


100
(
190.3956185
192.0884606
178.0882696
171.3324953
166.1184911
163.2637034
161.0358277
161.3399562
162.534528
165.6624744
170.5262632
175.9925012
182.2369227
189.3564494
196.4832515
203.2586569
210.0249825
216.8985393
223.3286111
229.1534823
234.6068374
240.2919126
245.9809623
251.7215096
257.9560148
264.9251458
273.3675681
283.3111222
295.0073514
308.4753534
322.0953369
337.2718599
353.7700954
372.4972347
392.8177513
410.4966212
429.1024076
450.6941358
474.4962862
500.4393348
528.8912676
555.4209227
583.0498056
611.7067749
640.847876
672.2449371
704.0483297
728.6226293
752.4215391
777.3566996
802.1051699
826.5547301
851.0359262
874.5615205
898.7913686
924.0048213
951.4070692
980.5435173
1006.735128
1033.569753
1065.783645
1101.214228
1139.643109
1181.82332
1226.100079
1270.719996
1316.644378
1364.56162
1414.699648
1469.863849
1531.689449
1596.806034
1662.553855
1730.800889
1805.753543
1890.558807
1976.43399
2060.429367
2152.598455
2256.286642
2363.254374
2473.878875
2580.142871
2704.235813
2854.467465
3015.499712
3177.958912
3353.94723
3544.291021
3748.829661
3988.674604
4274.566738
4547.691324
4664.538688
3835.32873
2944.961389
2764.338185
2700.170913
2262.525978
-832.2422977
)


100
(
189.6099562
186.9962442
173.116262
166.1956671
161.3556138
158.8668822
157.7540061
158.4998423
161.4880953
165.4219437
171.4253428
178.7331537
186.1735763
194.0646959
202.4715298
210.6239531
218.2684189
225.8006948
233.4116881
240.7313118
247.4304202
254.0459125
261.2146617
269.1716893
278.0779069
288.5939615
299.7494214
312.7265329
327.6994327
344.6420319
364.700731
383.0848233
402.2913957
423.1408316
446.6497411
471.8048502
497.9479201
521.9473714
549.6033714
580.1116856
612.3935987
645.5152845
680.5925186
710.1694506
739.0579116
767.7241109
797.5030064
826.0239462
852.1596768
875.14925
900.563472
927.1089154
953.2789307
981.002333
1009.576009
1036.49583
1064.456121
1096.134729
1129.433567
1164.674869
1201.89784
1243.981862
1289.468633
1337.166915
1386.171167
1435.681244
1487.176822
1542.48625
1604.012714
1671.571875
1740.572782
1811.265292
1885.59356
1966.245374
2055.889549
2151.262191
2245.904599
2343.807449
2455.038463
2573.095165
2687.134648
2807.354203
2935.414186
3091.391587
3261.985158
3435.516648
3622.498639
3826.24015
4045.868106
4263.761638
4529.435176
4805.696883
5089.070524
5096.062153
4009.41501
3232.329708
3117.079393
3039.830361
2568.526386
-1379.189481
)


100
(
189.312372
182.0724706
167.9522672
161.161174
157.1508833
154.34673
154.3816035
155.4991557
159.4381725
165.0826606
171.7322699
180.0828703
189.2331874
198.069678
207.1315764
216.4901291
225.475085
233.9419814
242.380727
250.9596548
259.1338831
267.6195319
276.7150798
286.7936675
298.5957036
312.2150879
327.8701151
345.30844
363.4749024
383.651549
405.7935526
430.7189783
456.4275433
480.3300626
506.1022712
535.331314
566.5978196
599.8739585
633.3660967
666.800046
700.9535589
735.3580547
769.5085423
804.8084706
835.6621708
861.9195471
888.2391713
916.1427168
944.1323294
972.3691523
1001.064813
1028.674679
1056.498167
1085.544845
1118.264256
1152.257817
1183.556273
1217.988677
1257.68377
1300.595624
1346.326325
1395.077988
1445.984401
1498.485652
1551.966833
1607.872273
1667.167667
1732.8057
1804.065581
1878.626101
1954.901047
2034.522441
2120.685577
2217.090381
2319.103927
2420.769695
2526.248143
2644.337105
2770.12616
2893.158157
3019.814059
3156.405737
3316.717354
3497.134137
3680.391076
3873.640824
4083.586375
4304.029101
4536.292647
4780.298166
5061.297592
5329.452966
5613.937061
5374.044532
4187.965829
3511.724608
3468.934259
3376.163066
2889.985074
-2412.063919
)


100
(
177.8246394
176.7171312
162.8891704
156.3744751
152.45368
150.0507171
150.4072032
152.7848797
156.9078869
163.6697357
171.6969712
180.5687575
190.6515479
201.0599471
210.9081188
220.844861
231.0418076
240.8876357
250.3041344
259.6237774
269.6101112
280.3765795
292.033295
305.3090272
319.8507124
336.6630136
355.8204266
377.5608301
402.4079643
425.7332385
450.7516706
478.2586205
508.7769155
541.2927818
573.1229417
604.8993645
640.2338856
677.4340123
715.5799548
754.5209843
791.5335501
825.3808981
858.1482918
890.0800113
921.7513127
951.3147154
977.9305805
1005.318148
1035.3008
1066.152581
1097.407018
1130.489523
1161.780191
1192.509133
1226.271692
1264.111136
1304.258058
1347.049313
1392.818355
1441.925865
1493.48914
1547.219849
1602.761537
1659.933628
1719.499649
1783.301318
1853.920205
1930.22015
2009.619457
2090.027225
2174.481955
2265.589537
2365.245532
2471.158036
2580.032917
2693.540257
2817.309399
2953.264713
3083.459748
3208.598516
3353.924486
3517.530312
3705.119823
3898.015007
4092.741068
4306.067249
4527.139256
4763.942118
5001.397882
5261.268732
5535.369667
5799.593298
6034.810541
5592.788519
4279.350557
3774.927843
3799.385837
3703.555339
3142.39944
-4681.044023
)


100
(
168.9229674
171.4086118
157.9615324
151.9295577
147.8674533
146.2707637
146.2939398
149.4038287
154.366474
161.452843
170.6467367
180.5030955
190.9559229
202.2478247
213.5577518
224.2243337
235.0001833
246.0933221
257.1229377
267.8961579
279.4048669
292.0522474
306.50438
322.9373107
341.7939677
362.4467276
384.8842912
409.9587055
437.7639033
468.5784248
499.5048166
530.0212005
563.402028
600.1010959
639.0121752
679.9789585
718.8513221
758.0572541
797.2094185
835.5994852
874.3216168
912.1253623
943.2058476
972.4774811
1002.410046
1032.671224
1063.344725
1095.045004
1126.574886
1158.759871
1192.108632
1226.648919
1263.82587
1300.865195
1336.761044
1378.358612
1425.560958
1476.019993
1528.813459
1583.703862
1640.348893
1698.75843
1758.453177
1821.342083
1888.660762
1962.646596
2041.659469
2124.282579
2210.215248
2299.236338
2394.350248
2497.93295
2608.7394
2719.742345
2836.472895
2966.771452
3107.75602
3247.603239
3380.170248
3519.526738
3685.620848
3877.972261
4078.16025
4273.965918
4483.108075
4708.23517
4937.316248
5177.207361
5421.352771
5682.491627
5945.23095
6190.34412
6333.766435
5593.159949
4364.603752
3997.724402
4085.9467
4022.631337
3516.741545
-4375.040599
)


100
(
168.7818512
166.2987934
153.406925
147.2921643
143.4111343
141.9677162
142.4878296
145.6070921
151.4766613
158.9275544
168.4626827
179.422567
190.5416627
202.0915906
214.2643526
226.3819275
237.8838362
249.6870461
261.9832699
274.8458523
288.3494267
303.3975292
320.2095304
339.7309479
361.9551851
387.1467815
415.3161102
443.6348564
474.4360336
508.3275929
545.4391318
585.1098178
622.616772
662.1088449
705.1099825
749.4028668
794.0587952
838.9762884
877.735685
914.8900846
950.9920051
986.27696
1019.966548
1051.448718
1080.540719
1111.584059
1145.121876
1179.102902
1213.804259
1250.920685
1286.320354
1322.268884
1361.715396
1404.209666
1448.920626
1496.501897
1548.561067
1604.306374
1661.975468
1721.147353
1781.952322
1844.909646
1910.391153
1980.547205
2057.514139
2139.944722
2225.099936
2311.912272
2404.02952
2503.43283
2610.510883
2721.977378
2836.942
2955.359938
3084.720555
3227.935846
3375.90902
3513.801204
3656.781231
3819.124024
4003.914184
4205.527409
4405.117834
4608.155792
4828.486821
5049.894924
5281.924583
5517.562728
5747.900933
6001.44581
6218.321996
6417.271843
6484.162293
5536.104567
4343.201433
4151.494174
4311.861326
4296.195392
3767.225555
-8392.828798
)


100
(
168.7923682
161.7982812
148.7249037
142.7698874
139.3695326
137.6929813
138.7915231
141.7890746
147.8451261
156.1805127
165.6855952
176.9278543
189.1325234
201.1228517
213.5179611
226.459591
239.48926
252.1281193
265.4678479
279.799178
295.6849207
313.4099284
333.7081582
356.2023446
381.417027
409.9629354
441.9142444
477.5794048
513.1238784
549.9682337
590.0179662
634.0517162
680.0592596
727.9484952
772.8198661
818.9216271
864.3022698
908.0048242
950.7184575
989.7455568
1023.299385
1055.734352
1088.677738
1121.575146
1154.654875
1188.914724
1223.596519
1258.886844
1295.877564
1335.655685
1376.694685
1417.271755
1458.787941
1506.144825
1558.116131
1612.715195
1670.567121
1730.442975
1791.60816
1853.321925
1917.178276
1984.891474
2057.406838
2136.228069
2219.571376
2305.871301
2395.99959
2489.660912
2590.202733
2698.937166
2813.978846
2927.210425
3044.134293
3174.157939
3317.186892
3465.110804
3609.993324
3750.22264
3901.727172
4082.854559
4279.895786
4476.945532
4667.044246
4875.71601
5097.191606
5318.10255
5542.915857
5769.787253
5979.629585
6208.38056
6374.711085
6508.008308
6417.321477
5231.649397
4258.318871
4213.203994
4458.948858
4487.883087
3910.882968
-13236.1135
)


100
(
155.6277127
156.5258135
144.1314842
138.3424088
135.0999559
133.5438989
134.7093946
138.2368318
143.9633819
152.4647373
162.6170924
173.6675904
186.086827
199.1608237
211.8925706
225.0827551
238.8917873
253.1606338
267.7234302
283.5801372
301.2209529