/*--------------------------------*- C++ -*----------------------------------*\
| =========                 |                                                 |
| \\      /  F ield         | OpenFOAM: The Open Source CFD Toolbox           |
|  \\    /   O peration     | Version:  2.3.1                                 |
|   \\  /    A nd           | Web:      www.OpenFOAM.org                      |
|    \\/     M anipulation  |                                                 |
\*---------------------------------------------------------------------------*/
FoamFile
{
    version     2.0;
    format      ascii;
    class       dictionary;
    location    "constant";
    object      mmolm;
}
// * * * * * * * * * * * * * * * * * * * * * * * * * * * * * * * * * * * * * //

mmolm_table
100
(

100
(
0.02730441938
0.02727485796
0.02726310065
0.02725968929
0.02726016992
0.02726473264
0.02727092249
0.02727916421
0.02728853055
0.02729994124
0.02731102444
0.0273250883
0.02733850361
0.02735214145
0.02736788228
0.02738295644
0.02739770143
0.02741487518
0.02743148182
0.02744755814
0.02746552516
0.02748382098
0.02750168278
0.02751984943
0.02753957382
0.02755886774
0.027577716
0.02759738102
0.02761829966
0.02763879323
0.02765887646
0.02768004897
0.02770170138
0.02772294528
0.02774375676
0.02776510484
0.02778800963
0.02781044507
0.02783243391
0.02785479141
0.0278784108
0.02790158873
0.02792430796
0.02794728067
0.02797119328
0.02799466262
0.02801768244
0.02804041106
0.02806539347
0.02808993477
0.02811408811
0.02813831726
0.02816405276
0.02818943099
0.02821442113
0.02823976094
0.02826571073
0.02829122925
0.0283162925
0.02834181706
0.02836840624
0.02839452419
0.02842013113
0.02844644553
0.0284735143
0.02850005417
0.0285260233
0.02855350059
0.02858089139
0.02860768717
0.02863479805
0.02866292672
0.02869042613
0.02871766856
0.0287464015
0.02877445171
0.02880232283
0.02883150215
0.02885992024
0.02888885793
0.02891823326
0.02894688715
0.02897706092
0.02900624061
0.02903670498
0.02906640011
0.0290973805
0.02912779732
0.02915913028
0.02919071526
0.02922246564
0.02925476372
0.02928798557
0.0293223343
0.02935819186
0.02939561664
0.02943735343
0.02948547236
0.02954655861
0.02979380475
)


100
(
0.02730907736
0.02727813059
0.02726493951
0.02726017765
0.02725956137
0.02726269219
0.02726770168
0.02727483672
0.02728301336
0.02729313995
0.02730365311
0.0273157033
0.02732855634
0.02734129222
0.02735509259
0.02736960874
0.02738376716
0.02739840315
0.02741438659
0.02743008869
0.02744590015
0.02746280984
0.02748018606
0.02749739949
0.02751472124
0.02753336
0.02755179355
0.02757003876
0.02758821704
0.02760808006
0.02762773089
0.02764726481
0.02766678767
0.0276873948
0.02770777962
0.0277278902
0.02774776911
0.02776849295
0.02779002281
0.02781120304
0.02783211945
0.0278532686
0.02787544363
0.02789729116
0.02791890333
0.02794038062
0.02796282685
0.02798496061
0.02800683121
0.0280284053
0.02805085043
0.02807415874
0.02809720322
0.02811999061
0.02814324849
0.02816729705
0.02819107552
0.0282145694
0.02823828337
0.02826234377
0.02828676628
0.02830906267
0.02833228197
0.02835785509
0.02838256901
0.02840448601
0.02842785093
0.0284549561
0.02847777363
0.02850036141
0.02852529267
0.02855114687
0.02857260371
0.02859649212
0.02862408506
0.02864730361
0.0286684908
0.02869593089
0.02871955494
0.02874035478
0.02876780263
0.02878902177
0.02881230807
0.02883890466
0.02885686724
0.02888314443
0.0289054219
0.02892592327
0.02895156639
0.02897079928
0.02899536998
0.02901640795
0.02904222925
0.02906547318
0.02909420386
0.02912107125
0.02915966265
0.02923873061
0.0294109375
0.02951075316
)


100
(
0.0273137388
0.02728162711
0.02726712954
0.02726105396
0.02725933974
0.02726115429
0.02726515188
0.02727098873
0.0272782533
0.02728686321
0.02729669108
0.02730730227
0.02731903086
0.02733114514
0.02734347468
0.02735669513
0.02737034435
0.02738397575
0.02739782876
0.02741298012
0.02742813972
0.02744333642
0.02745918794
0.02747583934
0.02749243631
0.02750901505
0.02752636306
0.0275440691
0.02756162932
0.02757905125
0.02759711921
0.02761605581
0.02763484991
0.02765351956
0.02767241297
0.02769196347
0.02771131538
0.02773041248
0.02774922081
0.02776888688
0.0277892375
0.02780928908
0.02782904993
0.02784864983
0.02786961532
0.0278903204
0.02791077754
0.02793097215
0.02795172467
0.02797275244
0.02799354117
0.0280140525
0.02803429545
0.02805640956
0.02807849793
0.02810034606
0.02812053288
0.02814347387
0.02816610328
0.02818842787
0.02820909162
0.02823245451
0.02825307804
0.02827402691
0.02829697305
0.02832015651
0.02834017152
0.02836039727
0.02838456345
0.02840546125
0.02842545841
0.02844573044
0.02846853437
0.0284889538
0.02850876332
0.02853090011
0.02855515062
0.02857423729
0.02859276856
0.02861493105
0.02863441836
0.02865607471
0.0286732153
0.02869729188
0.0287161294
0.02873371282
0.02875550044
0.02877368081
0.02879224164
0.02881268468
0.02883268895
0.0288528671
0.0288737543
0.02889783633
0.02892051359
0.02894843
0.0289904544
0.02912171525
0.02924712937
0.02934184758
)


100
(
0.02731840373
0.02728532705
0.02726965876
0.02726229445
0.02725950629
0.02726008566
0.02726305824
0.0272676493
0.02727397343
0.02728143948
0.02729014844
0.02729983417
0.02731008684
0.02732142935
0.02733300164
0.02734472153
0.02735731474
0.02737031856
0.02738330856
0.02739636062
0.02741087992
0.02742544551
0.02743999138
0.02745479082
0.02747076475
0.02748669737
0.02750256159
0.02751863798
0.02753560894
0.02755247708
0.02756919467
0.0275857793
0.02760365109
0.02762170582
0.02763960401
0.02765733976
0.02767545023
0.02769400466
0.02771235121
0.02773039532
0.02774813057
0.02776660338
0.02778601308
0.02780515512
0.0278240269
0.02784202214
0.02786203565
0.02788181538
0.02790133552
0.02791890079
0.02793919805
0.02795931477
0.02797913689
0.02799712434
0.02801757441
0.02803884489
0.02805913628
0.02807638306
0.02809665328
0.02811837975
0.02813794817
0.028156309
0.028177367
0.02819702232
0.02821638612
0.02823620607
0.02825688201
0.02827596959
0.02829462073
0.02831349128
0.02833376136
0.0283535659
0.02837291433
0.02839134693
0.02840950705
0.02842915867
0.02845052973
0.02846665421
0.02848290429
0.02850559713
0.02852263989
0.02853885797
0.02855841638
0.028575332
0.02859205382
0.02860918238
0.02862730439
0.02864507689
0.02866284095
0.02868085889
0.02869885974
0.02871725905
0.028737021
0.02875606565
0.02877941099
0.02880617296
0.02885090982
0.02901026225
0.02910773445
0.02920044
)


100
(
0.02732307219
0.02728920764
0.02727240894
0.02726391513
0.02726006886
0.02725953655
0.02726143395
0.02726505297
0.02727017603
0.02727671202
0.02728412073
0.02729291262
0.02730228806
0.02731219119
0.02732304519
0.0273340374
0.02734513612
0.02735712041
0.02736950613
0.02738188999
0.02739436021
0.02740808077
0.02742203291
0.02743594982
0.02744986328
0.02746498067
0.02748026158
0.02749545366
0.02751057331
0.02752647485
0.02754266009
0.02755871756
0.02757461822
0.02759060914
0.02760804043
0.02762534325
0.02764245351
0.02765866819
0.02767646265
0.02769416829
0.02771156642
0.02772840276
0.0277452013
0.02776380653
0.02778217478
0.02779942005
0.02781472469
0.02783393725
0.02785293435
0.02787043928
0.02788623266
0.02790513427
0.02792442896
0.02794220337
0.02795896255
0.02797801795
0.02799788686
0.02801469933
0.02803118622
0.0280490803
0.02806811956
0.02808599326
0.02810346241
0.02812176222
0.02814087763
0.02815966273
0.0281780986
0.02819550123
0.02821397842
0.0282322746
0.02825011454
0.02826746989
0.02828474528
0.02830375016
0.02832280896
0.02833793638
0.02835285474
0.02837161602
0.02838843336
0.02840375449
0.0284187981
0.02843482956
0.02845250144
0.02846898856
0.02848469326
0.02850121011
0.02851593708
0.02853190137
0.02854839687
0.02856665457
0.02858211114
0.0285975952
0.02861653782
0.02863390457
0.02865533359
0.02868196225
0.02874163923
0.02889472193
0.02898684827
0.02907745294
)


100
(
0.02732774358
0.02729325591
0.02727547394
0.02726591225
0.02726102348
0.02725943432
0.02726026692
0.02726294697
0.02726697572
0.02727251781
0.02727905275
0.02728649652
0.02729505824
0.02730404601
0.02731358827
0.02732389545
0.02733430787
0.0273448275
0.02735617002
0.02736797525
0.02737982487
0.02739175256
0.02740457681
0.02741791407
0.02743123521
0.02744456374
0.02745853738
0.02747319997
0.02748788152
0.02750247076
0.02751705544
0.02753267443
0.02754820942
0.02756353334
0.02757812752
0.02759483285
0.02761142591
0.02762775935
0.02764161883
0.02765851478
0.02767544214
0.02769203438
0.0277069269
0.02772293258
0.02774076251
0.02775821117
0.02777255282
0.02778664292
0.02780503602
0.0278225826
0.02783788228
0.0278529356
0.02787029018
0.0278876588
0.02790393773
0.02791992201
0.02793695055
0.02795336733
0.02797030542
0.02798693692
0.02800299742
0.02801947945
0.02803723096
0.02805466255
0.02807116114
0.02808703912
0.02810392002
0.02812136397
0.02813788712
0.02815406605
0.02816983166
0.0281869477
0.0282040124
0.02822068803
0.0282357751
0.02825329577
0.0282679523
0.02828248137
0.02829649839
0.02831194061
0.02832853052
0.02834360701
0.02835614491
0.02837151719
0.02838584304
0.02840051597
0.02841559561
0.02843051561
0.02844549465
0.02845973875
0.02847524141
0.02849056823
0.02850661338
0.0285233821
0.02854261319
0.02857207666
0.02865394406
0.02878830048
0.02887726921
0.02896571698
)


100
(
0.02733281042
0.02729751124
0.02727884095
0.0272682873
0.02726232983
0.02725977262
0.02725961367
0.02726132561
0.02726445548
0.02726883396
0.02727452092
0.02728097196
0.02728836016
0.02729657187
0.02730514192
0.02731425923
0.02732402077
0.02733388176
0.02734385114
0.0273545182
0.02736578593
0.02737711459
0.027388481
0.02740033352
0.02741305837
0.02742581609
0.02743860822
0.02745213892
0.02746635732
0.02748042922
0.02749400742
0.02750733779
0.02752231379
0.02753718385
0.02755129602
0.02756484052
0.02758083118
0.02759670011
0.02761094014
0.02762381544
0.02763973832
0.02765585953
0.02767080445
0.02768460293
0.02769980063
0.02771687379
0.02773128645
0.02774491772
0.02775831092
0.02777514071
0.02778999695
0.02780457157
0.02781888991
0.02783416538
0.02785046357
0.02786654464
0.02788239354
0.0278976746
0.02791311912
0.02792926302
0.02794518278
0.02796033463
0.02797491538
0.02798918947
0.02800535314
0.02802091023
0.02803599535
0.02805129785
0.02806582346
0.02808175521
0.0280977947
0.02811299324
0.02812699294
0.02814195461
0.02815712698
0.02817127719
0.02818618445
0.02820025826
0.02821523111
0.02822907369
0.02824171581
0.02825551709
0.02826887086
0.02828205287
0.02829537192
0.02830851578
0.02832149194
0.02833571599
0.02835014453
0.02836321766
0.02837628165
0.0283908951
0.02840557458
0.02842138526
0.02843989676
0.02846784669
0.0285670479
0.0286869311
0.02877210293
0.02885863367
)


100
(
0.02733813842
0.02730199449
0.02728250617
0.02727097245
0.027264044
0.02726054656
0.02725943319
0.02726017734
0.02726244704
0.02726588225
0.02727051509
0.02727614272
0.02728241944
0.02728964064
0.02729746535
0.0273055928
0.0273142279
0.02732345986
0.02733279415
0.0273422347
0.02735219325
0.0273629206
0.02737370461
0.0273844819
0.02739534465
0.02740744296
0.02741963736
0.02743193594
0.02744516038
0.02745883539
0.02747226672
0.02748406794
0.02749690305
0.02751122578
0.02752538832
0.02753781771
0.02755076441
0.02756604731
0.02758077226
0.02759312522
0.02760528748
0.02762015419
0.02763508755
0.02764845694
0.02766150861
0.02767585322
0.02769035538
0.02770361183
0.02771657312
0.02772970488
0.02774387524
0.02775873906
0.02777343378
0.02778792226
0.02780154766
0.02781492246
0.02783027866
0.02784542755
0.02785991886
0.02787400598
0.02788789011
0.0279029003
0.02791712373
0.02793098681
0.02794504268
0.02795866735
0.02797258463
0.0279876756
0.02800247602
0.02801527962
0.0280277107
0.02804168118
0.0280553525
0.02806936413
0.02808319845
0.02809645392
0.02811109232
0.02812375862
0.02813539894
0.02814805741
0.02816120413
0.0281739706
0.02818646136
0.02819863346
0.02821052725
0.02822225628
0.02823459042
0.02824707508
0.02826047593
0.02827220033
0.02828396548
0.02829750989
0.028310975
0.02832590041
0.02834412274
0.02837418001
0.02848103282
0.02858965384
0.02867171991
0.02875528786
)


100
(
0.02734346968
0.02730668437
0.02728640436
0.02727395762
0.02726616321
0.02726171723
0.02725972155
0.02725956124
0.02726092701
0.02726352478
0.02726711972
0.02727186771
0.02727734172
0.02728336575
0.02729033314
0.02729774541
0.02730540929
0.02731350697
0.02732221832
0.027331048
0.0273399669
0.02734917548
0.02735936157
0.02736961464
0.02737983495
0.0273899903
0.02740116098
0.02741279858
0.02742462127
0.02743751359
0.02745062394
0.02746289826
0.02747343688
0.02748573777
0.02749938362
0.02751207573
0.02752357351
0.02753589134
0.02755045255
0.02756290374
0.02757454964
0.0275860143
0.02759975616
0.02761276205
0.02762537211
0.02763773704
0.02765050451
0.02766393464
0.02767723188
0.02769033211
0.02770318965
0.02771559951
0.0277286875
0.02774273082
0.02775662136
0.0277694347
0.02778196258
0.02779429215
0.02780799186
0.02782168758
0.02783505209
0.02784873292
0.02786180851
0.0278748447
0.02788848512
0.0279018564
0.02791430781
0.0279262288
0.02793890927
0.02795198013
0.02796416051
0.02797691153
0.02798851243
0.02800160622
0.02801534067
0.02802661919
0.02803741972
0.02804945968
0.0280618185
0.02807383042
0.02808561761
0.02809723349
0.02810851428
0.0281198118
0.02813133803
0.02814294319
0.0281540589
0.02816548082
0.02817650411
0.02818804518
0.02819990688
0.02821166634
0.0282239848
0.02823763695
0.02825699856
0.02829008958
0.02839866955
0.02849871251
0.028577714
0.0286588728
)


100
(
0.02734880429
0.02731150832
0.02729049916
0.02727729415
0.02726868196
0.02726330124
0.02726046994
0.02725943655
0.02725991285
0.02726169138
0.02726446915
0.02726812966
0.02727284063
0.02727808473
0.02728379609
0.02729043543
0.02729741453
0.02730459104
0.02731210538
0.02732032683
0.02732868869
0.02733711762
0.02734557433
0.02735520148
0.02736493722
0.02737464076
0.02738423389
0.02739431582
0.02740538783
0.02741671144
0.02742921116
0.02744170121
0.02745221897
0.02746213251
0.02747385617
0.02748669631
0.02749777829
0.02750860143
0.02752025608
0.02753298444
0.02754426143
0.02755525489
0.02756605076
0.02757811752
0.02759077631
0.02760326216
0.02761554778
0.02762725137
0.02763877297
0.02765139074
0.02766390221
0.02767614308
0.02768795574
0.02769958479
0.02771156241
0.02772459654
0.02773675108
0.0277486683
0.02776067162
0.02777236592
0.02778453001
0.02779773305
0.02781071799
0.02782240672
0.02783352842
0.02784533556
0.02785765957
0.02786919052
0.02788099751
0.02789244526
0.02790360199
0.02791590753
0.02792738765
0.02793758687
0.02794782984
0.02795931881
0.0279707148
0.02798183652
0.0279928778
0.02800378306
0.02801436134
0.02802488319
0.02803606241
0.0280471513
0.02805765939
0.02806810277
0.02807822602
0.02808763038
0.02809832548
0.02810881221
0.0281193814
0.02813023373
0.02814157611
0.0281556477
0.02817657083
0.02821491071
0.02832410585
0.02841572355
0.02849189866
0.02857044966
)


100
(
0.02735414215
0.02731651231
0.02729487362
0.02728097314
0.02727149202
0.02726532298
0.02726163673
0.02725980158
0.02725943429
0.02726035104
0.02726236282
0.02726520823
0.02726887752
0.02727339524
0.0272783497
0.02728369545
0.0272899523
0.02729648725
0.02730319383
0.02731011198
0.02731788576
0.02732581147
0.02733377514
0.02734173495
0.02735052459
0.02735974904
0.02736895427
0.02737801156
0.02738711758
0.02739746579
0.02740819518
0.02742021562
0.02743132451
0.02744081009
0.02745013205
0.02746122545
0.02747235598
0.02748276009
0.02749296643
0.02750357613
0.02751472971
0.02752595769
0.02753698624
0.02754781076
0.0275581294
0.02756947677
0.02758134256
0.02759306029
0.02760402124
0.0276146406
0.02762517069
0.02763698904
0.02764856177
0.02765981475
0.02767084307
0.02768184581
0.02769253819
0.02770436304
0.02771605089
0.02772749784
0.02773814853
0.02774837253
0.02775973713
0.02777161325
0.02778232589
0.02779277602
0.02780391927
0.02781471558
0.02782651516
0.02783797852
0.0278471883
0.0278560886
0.02786687078
0.02787698894
0.02788724297
0.02789722399
0.02790747681
0.02791757875
0.02792741267
0.02793735989
0.02794784426
0.02795803072
0.02796801283
0.02797773478
0.02798743313
0.02799669606
0.02800674332
0.02801603879
0.02802534496
0.02803465814
0.02804416869
0.02805377423
0.02806432511
0.02807952274
0.02809735141
0.02815134808
0.02825862409
0.02834108811
0.02841490592
0.02849062055
)


100
(
0.02735970877
0.02732169569
0.02729951405
0.02728496798
0.02727465373
0.02726777184
0.02726323345
0.0272606468
0.02725947138
0.02725956095
0.02726076005
0.02726286238
0.02726567711
0.02726924708
0.0272735132
0.02727814045
0.027283082
0.02728893029
0.02729504014
0.02730130613
0.02730765921
0.02731498421
0.02732247845
0.02732998981
0.02733747823
0.0273453932
0.02735410139
0.02736281042
0.02737137626
0.02737995934
0.02738908083
0.02739924899
0.02741068022
0.0274199225
0.02742880818
0.02743755848
0.02744746072
0.0274575063
0.02746775815
0.02747785274
0.02748760499
0.02749779483
0.02750841262
0.02751891288
0.02752913704
0.0275388176
0.02754835682
0.0275589886
0.02757008706
0.02758035422
0.0275904006
0.02760029241
0.02761005515
0.02762080725
0.02763178246
0.02764260478
0.02765315702
0.02766247406
0.02767188162
0.02768285385
0.0276934633
0.02770333561
0.02771294458
0.02772263724
0.0277330288
0.02774405228
0.02775485303
0.02776413748
0.02777284063
0.02778391184
0.02779302063
0.02780185519
0.02781107626
0.02782026707
0.02782939393
0.02783826679
0.02784726534
0.02785686858
0.02786663945
0.02787610976
0.02788521778
0.0278940208
0.02790267142
0.02791148165
0.02792088336
0.02792967289
0.02793878289
0.02794658764
0.02795539627
0.02796368226
0.0279718512
0.0279807704
0.02799066483
0.02800458092
0.02802353641
0.02809517903
0.02819885292
0.02827176391
0.02834334171
0.02841732149
)


100
(
0.02736553768
0.02732708017
0.02730441514
0.02728912502
0.02727819132
0.02727057178
0.02726529584
0.02726190862
0.02726001026
0.02725930767
0.02725968875
0.02726103931
0.02726312986
0.0272658254
0.02726921826
0.02727320052
0.02727749508
0.02728204901
0.02728745866
0.02729317271
0.02729902189
0.027304983
0.02731168734
0.02731874876
0.02732582135
0.02733285527
0.02733998789
0.02734804886
0.02735625965
0.0273643666
0.02737244268
0.02738062035
0.02738976163
0.02739939431
0.02740802212
0.02741658078
0.02742528393
0.02743397449
0.02744373565
0.02745344119
0.0274630052
0.02747207554
0.02748085554
0.02749048564
0.02750038233
0.02750997907
0.0275191161
0.02752806904
0.02753691012
0.02754653169
0.027556248
0.02756625497
0.02757608602
0.02758539357
0.02759371357
0.02760377778
0.02761398806
0.02762348779
0.02763222427
0.02764077815
0.02764935203
0.02765933471
0.02766954575
0.02767952496
0.02768821435
0.02769615433
0.02770648218
0.02771581653
0.02772411203
0.02773229677
0.02774092624
0.02774977043
0.02775864317
0.02776730466
0.02777589441
0.02778440315
0.02779257349
0.0278005043
0.02780874249
0.0278167913
0.0278247276
0.02783335703
0.02784177079
0.02784976666
0.02785739182
0.02786498172
0.02787351899
0.02788125651
0.02788849826
0.02789565564
0.02790291313
0.02791087124
0.02792011044
0.02793310322
0.02795958599
0.02804116337
0.02813691238
0.02820507937
0.02827396523
0.02834499597
)


100
(
0.02737137002
0.02733262839
0.02730944122
0.02729360048
0.02728209415
0.02727369354
0.02726780309
0.02726364118
0.02726103467
0.02725959085
0.02725919759
0.02725973208
0.02726112946
0.02726312829
0.02726563971
0.02726881238
0.02727250718
0.02727648269
0.02728066848
0.02728561805
0.02729096334
0.02729642661
0.02730199243
0.02730804028
0.02731466331
0.02732131125
0.02732792006
0.02733458634
0.02734165794
0.02734935908
0.02735701088
0.02736462446
0.02737225418
0.02737993
0.02738845198
0.02739692834
0.02740529157
0.02741350623
0.02742133414
0.02742968468
0.02743879231
0.02744780965
0.02745625089
0.02746443183
0.02747253692
0.02748145842
0.02749037838
0.02749899601
0.02750747086
0.02751606639
0.02752422183
0.02753322199
0.02754265484
0.02755196568
0.02756021679
0.02756795023
0.02757560203
0.02758507789
0.02759360698
0.02760216693
0.02761120349
0.02761929331
0.02762756964
0.02763714932
0.02764608391
0.02765342418
0.0276605322
0.0276682992
0.02767671105
0.02768497457
0.02769301777
0.02770094737
0.02770902208
0.0277168944
0.02772455132
0.02773193326
0.02773897853
0.02774654445
0.02775394815
0.02776163856
0.0277692215
0.02777643992
0.02778311039
0.02778960231
0.02779757947
0.02780519844
0.0278116455
0.02781814986
0.02782471857
0.02783166943
0.02783842226
0.02784580145
0.02785489286
0.0278696265
0.02789897357
0.02798411507
0.02807284688
0.02813748234
0.02820414908
0.02827400842
)


100
(
0.02737720568
0.027338304
0.0273146864
0.02729837413
0.0272862622
0.02727722208
0.02727066743
0.02726585438
0.02726248839
0.02726038519
0.02725926789
0.02725905754
0.02725966108
0.02726100629
0.02726286185
0.0272651559
0.02726807822
0.02727148948
0.02727514433
0.02727899522
0.02728346959
0.02728845674
0.02729354411
0.0272987161
0.02730408495
0.02731025514
0.02731647967
0.02732268649
0.02732890467
0.02733518533
0.02734212597
0.02734930078
0.02735656537
0.02736378018
0.02737083473
0.02737794371
0.02738584769
0.02739372077
0.02740143066
0.027408688
0.02741585327
0.02742379165
0.02743221202
0.0274400642
0.02744771352
0.02745522831
0.027462644
0.02747075775
0.02747912413
0.02748739353
0.02749546603
0.02750282115
0.02750998514
0.02751874114
0.02752736872
0.02753485922
0.02754214447
0.02754931372
0.02755689426
0.02756572921
0.02757448468
0.02758286244
0.02758944767
0.02759583366
0.02760443182
0.02761163214
0.02761867422
0.02762584253
0.02763291
0.02764015397
0.02764719968
0.02765403046
0.02766093445
0.02766847134
0.02767583049
0.02768292034
0.02768968627
0.02769622736
0.02770263716
0.02770888195
0.0277148269
0.02772183801
0.0277282726
0.02773498398
0.02774092552
0.02774623836
0.02775274764
0.02775903745
0.02776526727
0.02777107051
0.02777704298
0.02778436314
0.02779335459
0.0278063294
0.02783891584
0.02792506301
0.02800851555
0.02807059151
0.02813458307
0.02820155721
)


100
(
0.02738304452
0.02734412978
0.02732016052
0.02730343697
0.02729066934
0.02728114098
0.02727387354
0.0272685238
0.02726445363
0.02726163608
0.02725985897
0.02725895689
0.02725884295
0.02725943674
0.02726067851
0.02726236298
0.02726442525
0.02726706432
0.02727019542
0.0272735423
0.02727707506
0.02728105364
0.02728568026
0.02729040146
0.02729519509
0.02730013477
0.02730556663
0.02731135178
0.02731715378
0.02732294629
0.02732878288
0.02733472371
0.02734147204
0.02734826975
0.02735501675
0.02736146905
0.02736762003
0.02737447827
0.02738180057
0.02738896576
0.02739572519
0.0274023439
0.02740889992
0.02741623449
0.0274234971
0.02743084276
0.02743816646
0.0274452851
0.02745163581
0.02745924144
0.02746699314
0.02747448426
0.02748127254
0.02748793669
0.02749476215
0.02750240997
0.02750984779
0.02751743176
0.0275248058
0.02753106397
0.02753840134
0.02754651695
0.02755330894
0.02755930085
0.02756511321
0.02757141532
0.02757817
0.02758501744
0.02759169833
0.02759822515
0.02760492261
0.02761140185
0.02761763728
0.02762368238
0.02762975014
0.02763559526
0.02764124849
0.02764761516
0.02765388492
0.02765988567
0.02766542174
0.02767076863
0.02767616583
0.02768142815
0.02768727818
0.02769229149
0.02769739891
0.02770269783
0.02770817309
0.02771384803
0.02771864715
0.0277245581
0.02773300323
0.0277455234
0.02778467324
0.02786688329
0.0279467299
0.02800611054
0.02806764049
0.02813167302
)


100
(
0.02738909832
0.02735010538
0.02732585132
0.02730865982
0.02729541007
0.02728538132
0.02727750967
0.02727151345
0.02726690181
0.02726338537
0.02726094799
0.02725939588
0.02725862201
0.02725852832
0.02725905865
0.02726016657
0.02726166428
0.02726348478
0.02726581391
0.02726867034
0.02727172582
0.02727494543
0.02727841505
0.02728265786
0.02728701269
0.02729144486
0.02729597474
0.02730063125
0.02730593368
0.02731136837
0.02731682593
0.02732224707
0.02732752697
0.02733331901
0.02733961956
0.0273459048
0.02735181895
0.02735744781
0.02736305298
0.0273695332
0.02737612315
0.027382417
0.02738856226
0.02739464418
0.02740072435
0.02740734464
0.02741429331
0.02742116219
0.02742758603
0.02743340754
0.02743924607
0.02744643629
0.02745325692
0.02745967177
0.02746600053
0.02747273229
0.02747894004
0.02748612949
0.02749323001
0.02749957699
0.02750516215
0.02751073477
0.02751766921
0.0275235407
0.02752955543
0.02753542634
0.02754123627
0.02754721523
0.0275530324
0.02755869279
0.02756412263
0.02756946285
0.02757530902
0.02758099606
0.02758652242
0.02759203026
0.02759750007
0.02760297347
0.0276076066
0.02761198105
0.02761711362
0.02762269195
0.02762823022
0.02763221644
0.02763591227
0.02763995091
0.02764478643
0.02764957574
0.02765418686
0.02765914085
0.02766412855
0.02766928522
0.02767804501
0.02769200311
0.02773465901
0.02781269899
0.02788782632
0.02794559141
0.02800495669
0.028066823
)


100
(
0.02739529913
0.02735624376
0.02733172204
0.02731409106
0.02730046638
0.02728983176
0.02728155281
0.02727491303
0.02726978183
0.02726565051
0.02726252943
0.02726036619
0.02725896209
0.02725824564
0.02725811293
0.02725853904
0.02725949288
0.0272607877
0.02726236999
0.02726437302
0.02726695834
0.02726972989
0.02727264836
0.02727578171
0.02727942556
0.02728340375
0.02728747711
0.02729161334
0.02729589823
0.02730040025
0.02730539195
0.02731043987
0.02731544398
0.02732021175
0.02732495882
0.02733064539
0.0273364458
0.02734186137
0.02734702398
0.02735209994
0.02735716441
0.02736301038
0.02736901104
0.02737504795
0.0273809404
0.02738626039
0.02739117363
0.02739757233
0.02740396331
0.02740976498
0.02741516034
0.02742048674
0.02742597203
0.02743238976
0.02743893506
0.027445367
0.0274510741
0.02745599389
0.02746220373
0.02746863167
0.0274739392
0.0274789895
0.02748408288
0.02748937784
0.02749471365
0.02750027896
0.02750572082
0.02751098455
0.02751645765
0.0275217323
0.02752673461
0.02753151054
0.02753626025
0.02754085206
0.02754526594
0.02754953381
0.02755473047
0.02755984228
0.02756449884
0.02756859201
0.02757269794
0.0275764319
0.02758074698
0.02758487507
0.02758841509
0.02759187015
0.02759543605
0.02759929268
0.02760310218
0.02760709508
0.02761163401
0.02761669167
0.02762511227
0.02763772055
0.02768506426
0.02776298404
0.02783410672
0.02788898725
0.02794666776
0.02800625198
)


100
(
0.02740150334
0.02736247748
0.02733770928
0.02731977001
0.02730579779
0.02729464425
0.0272859029
0.0272787556
0.02727299219
0.027268403
0.02726466653
0.027261836
0.02725985652
0.02725854311
0.02725782775
0.02725761326
0.02725790046
0.02725868495
0.02725977618
0.02726112467
0.02726279757
0.02726509171
0.02726757703
0.0272702057
0.02727299638
0.0272760148
0.02727959357
0.02728335627
0.02728718372
0.02729103589
0.02729472506
0.02729915893
0.02730378051
0.02730838012
0.02731267799
0.02731693349
0.02732142317
0.0273266946
0.02733160716
0.02733636375
0.02734101096
0.02734580842
0.02735042571
0.02735602141
0.02736163321
0.0273671157
0.02737176167
0.02737617551
0.02738085411
0.0273867137
0.02739191489
0.02739698865
0.02740251076
0.0274075466
0.02741262492
0.02741865778
0.02742457442
0.02742919506
0.0274335297
0.02743802762
0.02744329218
0.02744831497
0.02745319221
0.02745794292
0.02746269076
0.0274676019
0.02747237591
0.02747695996
0.02748129935
0.02748556374
0.02749005471
0.02749453013
0.02749883438
0.02750310433
0.02750718076
0.02751106791
0.02751488536
0.02751858373
0.02752216825
0.02752622842
0.02753000103
0.02753349004
0.02753664247
0.02753944856
0.02754258888
0.02754593352
0.02754882012
0.02755152922
0.02755454079
0.02755808251
0.027561586
0.02756653
0.02757447135
0.02758966932
0.02764049263
0.02771695964
0.02778424405
0.02783675239
0.02789243491
0.02794973742
)


100
(
0.02740771084
0.02736883298
0.02734389042
0.02732568378
0.02731125626
0.02729979463
0.02729050424
0.02728301603
0.02727666973
0.02727149639
0.02726731071
0.02726389647
0.02726127665
0.02725941061
0.02725813531
0.02725737797
0.02725705121
0.02725717288
0.02725777807
0.02725866885
0.027259799
0.02726121862
0.02726310492
0.02726529402
0.02726763341
0.02727009677
0.02727275087
0.02727572307
0.02727909227
0.02728254849
0.02728596833
0.02728921429
0.02729273152
0.02729687853
0.02730103632
0.02730492747
0.02730874657
0.02731258049
0.02731677787
0.02732120819
0.02732579715
0.02733032078
0.02733471781
0.02733861752
0.0273429994
0.02734811765
0.02735306563
0.02735723116
0.02736125104
0.0273652504
0.02736961747
0.02737495001
0.02738027803
0.02738545628
0.02738939623
0.02739298273
0.02739816747
0.02740304529
0.02740709669
0.02741104967
0.02741517487
0.02741934927
0.02742347467
0.02742756431
0.02743188753
0.02743610557
0.02744052368
0.0274446842
0.02744864343
0.02745247499
0.02745626988
0.02745989866
0.02746336415
0.02746666003
0.0274699405
0.02747350545
0.02747689086
0.02748025639
0.02748376958
0.02748687562
0.02748886486
0.02749148474
0.02749418986
0.02749666296
0.02749909061
0.02750137776
0.0275039102
0.02750644237
0.02750889711
0.02751189197
0.02751520025
0.02751984632
0.02752851028
0.0275434266
0.02759837714
0.02767246296
0.02773649781
0.02778763319
0.02784115148
0.02789651815
)


100
(
0.02741392155
0.02737530017
0.0273502478
0.0273317895
0.02731699389
0.02730525472
0.02729548639
0.02728751412
0.02728078965
0.02727504933
0.02727035855
0.02726648133
0.02726330632
0.02726083522
0.02725902573
0.02725774166
0.0272569114
0.02725645471
0.02725639366
0.02725680387
0.02725750165
0.02725841949
0.02725957065
0.02726102816
0.02726289837
0.02726497921
0.02726716864
0.02726941821
0.02727170482
0.02727464976
0.02727772178
0.02728074479
0.0272835799
0.02728645853
0.02728980018
0.02729348063
0.0272969944
0.02730046031
0.02730394663
0.02730747253
0.02731122801
0.02731540179
0.02731956436
0.02732349421
0.02732694959
0.02733037304
0.02733457937
0.02733888177
0.02734272442
0.02734663257
0.0273507168
0.02735426146
0.02735872183
0.0273635697
0.02736790794
0.02737111578
0.02737417079
0.02737758479
0.02738153577
0.0273854617
0.02738928633
0.02739301676
0.02739672795
0.02740045462
0.02740406932
0.02740755705
0.02741082135
0.02741392484
0.02741690102
0.0274203959
0.02742378275
0.02742708663
0.02743027416
0.0274333539
0.0274361385
0.02743855646
0.027440806
0.02744317292
0.02744649072
0.0274496103
0.02745146437
0.02745308849
0.02745473046
0.02745697528
0.0274593352
0.02746085104
0.02746238388
0.02746409365