/*--------------------------------*- C++ -*----------------------------------*\
| =========                 |                                                 |
| \\      /  F ield         | OpenFOAM: The Open Source CFD Toolbox           |
|  \\    /   O peration     | Version:  2.3.1                                 |
|   \\  /    A nd           | Web:      www.OpenFOAM.org                      |
|    \\/     M anipulation  |                                                 |
\*---------------------------------------------------------------------------*/
FoamFile
{
    version     2.0;
    format      ascii;
    class       dictionary;
    location    "constant";
    object      O2;
}
// * * * * * * * * * * * * * * * * * * * * * * * * * * * * * * * * * * * * * //

O2_table
100
(

100
(
0.0654393017
0.07023132026
0.07377489808
0.07667028329
0.07926483681
0.0816807117
0.08392099817
0.08606324055
0.08811776769
0.09014959404
0.09207931694
0.09400610874
0.09583399872
0.09760087189
0.09938010402
0.1010779728
0.1027135315
0.1043993704
0.1060247627
0.1075968585
0.1092116596
0.1108130209
0.1123733696
0.1139156286
0.1154782747
0.1170029726
0.1184903789
0.1199930827
0.1215294354
0.1230316692
0.1245012757
0.1259754737
0.1274401773
0.1288741096
0.1302769653
0.1316928616
0.1331675964
0.134609677
0.1360203475
0.1374305101
0.1388741739
0.1402872533
0.1416696273
0.1430411856
0.1444213415
0.1457729266
0.1470964703
0.1483998082
0.1497964674
0.1511661116
0.1525114796
0.1538497436
0.1552331976
0.1565940247
0.1579311862
0.1592617941
0.1605918676
0.1618969461
0.1631765968
0.1644675027
0.1657930382
0.1670924419
0.1683643438
0.169655956
0.1709688956
0.1722536731
0.1735088103
0.1748132182
0.1761062681
0.1773689218
0.1786347986
0.1799296488
0.1811929802
0.1824381433
0.1837272319
0.1849830449
0.1862230813
0.1874982757
0.18873763
0.1899834076
0.1912327309
0.1924470558
0.193696422
0.1949020115
0.1961319352
0.1973245033
0.1985359768
0.1997137858
0.2008958255
0.2020607804
0.2032048981
0.2043339909
0.2054502801
0.206550898
0.2076353329
0.2086944827
0.2097473064
0.2107946772
0.2118404528
0.2131419598
)


100
(
0.06493192615
0.06958173804
0.07303284202
0.07583767019
0.07836989394
0.08072967797
0.08286852115
0.08498337577
0.08695657446
0.08894258435
0.09084557222
0.09268764516
0.09449702314
0.09621258623
0.09790191177
0.0995813238
0.1011862926
0.1027419651
0.1043502967
0.1059061801
0.1074155013
0.108958046
0.1105035554
0.1120077814
0.1134689761
0.1149808709
0.1164545409
0.1178907783
0.1192913548
0.1207767132
0.1222331812
0.1236555746
0.1250437033
0.1264676125
0.1278579439
0.1292158362
0.1305424358
0.131903695
0.1333012475
0.1346664686
0.1359975931
0.1373247007
0.1386952259
0.1400341971
0.1413407573
0.1426218639
0.1439359795
0.1452212939
0.1464785027
0.1477096832
0.1489806765
0.1502912671
0.1515766357
0.1528363008
0.1541098784
0.1554120262
0.1566865393
0.1579336708
0.1591774147
0.1604255092
0.1616868059
0.1628329607
0.163998496
0.1652834334
0.1665308801
0.1676216637
0.1687613337
0.1700942482
0.1712166519
0.1723048371
0.1734963164
0.1747409091
0.1757650794
0.1768779997
0.1781850935
0.1792794701
0.1802333113
0.181505504
0.1825945657
0.1835088761
0.1847664027
0.185706093
0.1867304801
0.1879235417
0.1886850308
0.1898394797
0.1907940441
0.1916667141
0.192751869
0.1935512309
0.1945599697
0.1954120739
0.1964150759
0.1972860923
0.1982951275
0.1991656507
0.2001913619
0.2014825521
0.2038674742
0.2061804292
)


100
(
0.06442462798
0.06893346191
0.07229259219
0.07500841736
0.07750728059
0.07977913558
0.08189451939
0.08390369979
0.08585648583
0.08773432673
0.08961833935
0.09139866632
0.09315778614
0.09485732444
0.09647091674
0.09808232484
0.09967194823
0.1011951098
0.1026737457
0.1042146115
0.1057110627
0.1071657969
0.1086316064
0.110122585
0.1115738872
0.1129856877
0.1144162007
0.1158406191
0.1172294705
0.1185851823
0.1199613473
0.1213723016
0.122752086
0.1240992489
0.1254333911
0.1267819449
0.1280976874
0.129382228
0.1306372464
0.1319312118
0.1332526598
0.1345432016
0.1358028374
0.1370404892
0.1383395559
0.1396092459
0.1408501917
0.1420636916
0.1432908572
0.1445151326
0.1457143368
0.1468917209
0.1480520071
0.1493032154
0.1505445286
0.1517628163
0.152888605
0.1541383146
0.1553627488
0.1565626957
0.1576775708
0.1589130398
0.1600094314
0.1610997118
0.1622692722
0.1634544211
0.1644767534
0.1654972879
0.1667006377
0.1677445909
0.1687386102
0.169736914
0.1708538997
0.1718509981
0.1728162677
0.1739035572
0.1750967415
0.1760001939
0.1768798367
0.1779432723
0.1788504422
0.1798842255
0.1806803031
0.1818132786
0.1826787081
0.1834914488
0.1844883434
0.1853136715
0.1861559753
0.1870664379
0.1879438005
0.1888071451
0.1896718356
0.1906265592
0.1914534222
0.1923632554
0.1933931556
0.1953067575
0.1977124449
0.2001462312
)


100
(
0.06391740499
0.06829492749
0.0715568355
0.074233026
0.07664738227
0.07883124486
0.08092176802
0.08283271121
0.08475714647
0.08658262751
0.08839100182
0.09015527142
0.09182401019
0.09350173848
0.09510064867
0.09662258349
0.09815727543
0.09966637451
0.1011181074
0.1025224047
0.1040048457
0.1054470663
0.1068497187
0.1082351287
0.1096738112
0.1110749885
0.112439328
0.1137863927
0.1151646243
0.1165089241
0.1178216757
0.1191052784
0.1204528977
0.1217905861
0.123097514
0.1243729733
0.1256474727
0.1269230355
0.128167173
0.1293817849
0.1305686673
0.1317888041
0.1330508335
0.1342864627
0.1354956097
0.1366436468
0.1378858208
0.1391038575
0.1402973413
0.1413750602
0.1425748264
0.1437518055
0.1449087854
0.1459744642
0.1471565288
0.1483685936
0.1495196548
0.1505079226
0.1516380855
0.1528337437
0.1539189203
0.1549405271
0.1560837902
0.1571516156
0.1581930297
0.1592392191
0.1603174612
0.1613101455
0.1622769681
0.1632572788
0.1642998698
0.1653157087
0.1663067604
0.1672541993
0.1681720982
0.1691606041
0.170252358
0.1710562301
0.1718632194
0.1730083003
0.173843666
0.174646613
0.1756241042
0.1764421867
0.177266857
0.1781135144
0.1789935857
0.1798522724
0.1806949842
0.1815483647
0.1823863451
0.1832192924
0.1840842277
0.1848707372
0.1857425975
0.1866281462
0.1876402726
0.1899866659
0.1923017036
0.1947644545
)


100
(
0.06341025498
0.06768692655
0.07086240964
0.07346028496
0.07578930014
0.07794167605
0.07995049021
0.081839794
0.08365888259
0.08546461719
0.08717289625
0.0889107288
0.09056476038
0.09214512811
0.09372928661
0.09523722309
0.096676931
0.09813634421
0.09957462927
0.1009646223
0.1023138088
0.103725779
0.1051161657
0.1064690475
0.1077855139
0.109159565
0.1105128654
0.1118318154
0.1131174155
0.1144286395
0.1157309584
0.1170034077
0.1182479209
0.1194802791
0.1207853989
0.1220630022
0.123311793
0.1244850843
0.125724829
0.1269362864
0.1281202983
0.1292690221
0.1304091292
0.1316357531
0.1328367565
0.1339654589
0.1349753673
0.1361838647
0.1373703238
0.1384693395
0.1394673949
0.1406095501
0.1417599261
0.1428319563
0.1438523349
0.1449782332
0.1461291654
0.1471132042
0.1480751291
0.1491025392
0.1501829062
0.1512017364
0.1521960538
0.1532273764
0.1542902553
0.1553287643
0.1563433073
0.1573007721
0.1582925615
0.1592677656
0.1602221912
0.161155222
0.1620793562
0.1630847075
0.1640939884
0.1648798365
0.1656621892
0.1666548836
0.1675227049
0.1683229379
0.1691180286
0.1699516972
0.170866612
0.1717273768
0.1725495611
0.1733979598
0.1741677798
0.1749904403
0.1758225626
0.1767435611
0.1774939034
0.1782373619
0.1791087078
0.1798652267
0.1807025408
0.1815656003
0.1827074513
0.1851712989
0.1874752623
0.1899202741
)


100
(
0.06290315243
0.06708053339
0.07017077773
0.07269015523
0.07493983478
0.07705808559
0.0789813835
0.08084799846
0.08258954475
0.08434707831
0.0860375328
0.08766611335
0.08930343481
0.0908562638
0.0923564084
0.09385032803
0.09527663068
0.09664316467
0.09802955028
0.0994066464
0.1007436065
0.102043801
0.1033804139
0.1047214784
0.1060269942
0.1072979694
0.1085834682
0.109891177
0.1111778823
0.1124355509
0.1136637823
0.1149339906
0.1161767841
0.1173936906
0.1185470585
0.1198139937
0.121054138
0.1222656839
0.1233046816
0.1244991025
0.1256741646
0.1268237576
0.1278777655
0.1289853805
0.130178154
0.1313361818
0.1323117934
0.1332645441
0.1344410338
0.1355612946
0.1365545947
0.1375270774
0.1386068597
0.1396794416
0.1406944294
0.1416893925
0.1427230445
0.1437104194
0.144720074
0.14571063
0.1466680562
0.1476426473
0.1486756084
0.1496863811
0.1506440988
0.1515649441
0.1525269987
0.1535090951
0.1544401534
0.1553493816
0.1562354916
0.1571868539
0.1581319658
0.1590554054
0.1599069466
0.1608713013
0.1616593201
0.1624581541
0.1632346319
0.1640872964
0.164987823
0.1658177488
0.1665328536
0.1673677531
0.1681637457
0.1689793926
0.1698060507
0.1706159851
0.1714273937
0.1721753828
0.1729833084
0.1737695455
0.1745486412
0.1753206829
0.1761072972
0.1769868414
0.1784879999
0.1808024561
0.1830536556
0.1854464224
)


100
(
0.06241065014
0.06647742722
0.06948251938
0.07192322387
0.07414073394
0.07617677286
0.07806225647
0.07985763613
0.08157858435
0.08323081904
0.08490202043
0.08648524214
0.08804136981
0.08957874844
0.09103929461
0.09246172127
0.09387471626
0.0952284935
0.09653088668
0.09784723525
0.0991720006
0.1004605285
0.1017143287
0.1029732809
0.1042684022
0.1055298412
0.1067587206
0.1080097452
0.1092856077
0.1105332859
0.1117289232
0.1128775859
0.1141102798
0.1153169275
0.1164663664
0.1175632989
0.1187931337
0.1199959847
0.121086954
0.1220764521
0.1232238663
0.1243647327
0.125436269
0.126442965
0.1275158623
0.1286747523
0.1296698021
0.1306155802
0.1315412884
0.1326451516
0.1336328724
0.134600463
0.1355496706
0.1365444271
0.137586341
0.1386095839
0.1396136963
0.1405812794
0.1415451931
0.1425300764
0.1434943912
0.1444156893
0.1453050968
0.1461750259
0.1471348445
0.1480583123
0.1489545325
0.1498649718
0.1507386831
0.1516732914
0.1526064115
0.1534967829
0.1543292233
0.1551979804
0.1560693054
0.1568918987
0.1577554554
0.1585758361
0.1594256212
0.1602306722
0.1609895246
0.1617861323
0.1625705486
0.1633471368
0.1641283471
0.1648982716
0.1656637009
0.1664820589
0.1673056575
0.1680469825
0.1687799198
0.1695628573
0.1703308877
0.1710932489
0.1718615493
0.1726872999
0.1744504042
0.1766413416
0.1788524742
0.1811643802
)


100
(
0.06192775645
0.06587770572
0.06879790985
0.07118214694
0.07334465445
0.0752982573
0.07715816068
0.07886949196
0.08056885961
0.08217775503
0.0837671442
0.08533260551
0.08681661949
0.08830022863
0.08974643958
0.09112357387
0.0924712121
0.09381236468
0.09510278596
0.09634998565
0.09759929092
0.09887600414
0.1001183399
0.1013278542
0.1025118297
0.1037626701
0.1049815219
0.1061690642
0.1073929987
0.108629129
0.1098386131
0.1109164893
0.1120405216
0.1132371552
0.1144086036
0.1154599519
0.1165287309
0.1177223505
0.1188634661
0.1198466495
0.1208028706
0.1219007973
0.1229901334
0.1239887998
0.12496588
0.1260003558
0.1270221794
0.1279617823
0.1288807876
0.1298056894
0.1307839292
0.131793023
0.13278476
0.1337590329
0.1346800449
0.1355801086
0.1365771936
0.1375559098
0.1384953784
0.1394086289
0.1403022633
0.1412378226
0.1421243012
0.1429894588
0.1438685496
0.1447287664
0.1456044476
0.1465302115
0.1474365137
0.1482419638
0.1490263426
0.149879418
0.1507158465
0.1515725943
0.1524247204
0.1532452795
0.1541215639
0.1549063238
0.1556438271
0.1564200197
0.1572311407
0.1580214286
0.1587939795
0.1595468831
0.1602888261
0.1610341463
0.1617959285
0.1625550852
0.1633615805
0.164082089
0.1647898399
0.1655644044
0.1663113302
0.1670627786
0.1678100059
0.168649568
0.1705997253
0.172660235
0.1747933782
0.1770468885
)


100
(
0.06144490624
0.06528875819
0.06813181242
0.07046228898
0.07255173591
0.0744598369
0.07625639527
0.07793918255
0.07956075927
0.08114973117
0.08265550988
0.08418037372
0.08564803096
0.08704108718
0.08845256433
0.08981634033
0.09111878941
0.09239530278
0.09367344805
0.09490808373
0.09610724985
0.09729020065
0.09852128274
0.09971973484
0.1008872223
0.1020195921
0.10320195
0.1043797301
0.1055276352
0.1067241559
0.1079222739
0.1090590119
0.1100582637
0.1111545064
0.112316108
0.1134038581
0.114407999
0.1154460676
0.1166035286
0.1176100334
0.1185598509
0.1194854839
0.1205328128
0.1215287238
0.1224987305
0.1234471225
0.1244044627
0.1253821088
0.1263391546
0.1272778774
0.1282006079
0.1290977331
0.1300244569
0.1309924441
0.1319427146
0.1328286274
0.1336942539
0.1345432097
0.1354592638
0.1363705768
0.1372613134
0.1381705425
0.139044999
0.1399052244
0.1407840097
0.1416454319
0.1424675771
0.1432648801
0.1440925364
0.1449299117
0.1457208982
0.146546163
0.1473219001
0.1481658934
0.1490334687
0.1497868025
0.15051683
0.15129796
0.1521022041
0.1528864991
0.1536556559
0.1544117304
0.1551486682
0.1559041565
0.1566594455
0.1574111621
0.1581370078
0.1588911562
0.1596198863
0.1603594786
0.1611102802
0.1618359013
0.1625641248
0.1632701899
0.1640295935
0.1648881515
0.1669444099
0.1688773567
0.170941777
0.1731396862
)


100
(
0.06096210419
0.06471828951
0.06748649446
0.06974664389
0.07176281445
0.07364113931
0.0753575992
0.07701694516
0.078568433
0.08012318957
0.08161068786
0.0830296202
0.08447968211
0.08585768583
0.08716804138
0.08850828794
0.08979845825
0.09103545134
0.09224155019
0.09346494102
0.09465268835
0.09580845991
0.09692468556
0.09811001502
0.09926629784
0.1003932439
0.101485906
0.1025868877
0.1037256044
0.1048361963
0.1060057028
0.1071679316
0.1081874995
0.1091543573
0.1102211599
0.1113428567
0.1123383084
0.1133108152
0.1143164621
0.115366673
0.1163098236
0.1172289392
0.1181264879
0.1190944308
0.1200892555
0.121064043
0.1220188269
0.1229289268
0.1238145666
0.1247472324
0.1256621227
0.1265589593
0.1274341011
0.128294525
0.1291647352
0.1300822631
0.1309427258
0.1317868222
0.1326381444
0.1334747179
0.1343356458
0.1352433361
0.1361337486
0.1369545495
0.1377421348
0.1385532063
0.1393831103
0.1401760647
0.1409864776
0.1417814023
0.1425565453
0.1433786177
0.1441631621
0.1448953194
0.1456261399
0.1464118949
0.1472001731
0.1479715669
0.1487342311
0.1494856432
0.1502184117
0.1509616068
0.1517332526
0.1524938294
0.1532186093
0.1539450165
0.1546652464
0.1553502735
0.1560835786
0.1568097901
0.1575258955
0.1582520373
0.1589591452
0.1596732814
0.1604828582
0.161380859
0.1635159602
0.1653455646
0.1673364848
0.1694647324
)


100
(
0.06047934781
0.06415076159
0.0668454839
0.06903484487
0.07100842433
0.0728261458
0.07449655991
0.07609717565
0.07762774453
0.07909868347
0.08056701899
0.08196020711
0.0833126316
0.08467436873
0.08597103341
0.08720580447
0.08847771433
0.08970258697
0.09088157821
0.09202055234
0.09319696943
0.09434120057
0.09545487499
0.09652970656
0.09764325593
0.0987591112
0.09984713979
0.100902044
0.1019308905
0.1030212531
0.1040969317
0.1052400259
0.1063115866
0.1072703768
0.1082060931
0.1092424987
0.1102632895
0.1112278839
0.1121693663
0.1131176374
0.1140801969
0.1150341654
0.1159672351
0.1168809916
0.1177560383
0.1186842423
0.1196315066
0.1205599129
0.121437043
0.1222863704
0.1231185277
0.1240112455
0.124884103
0.1257379563
0.1265780037
0.127415051
0.1282324386
0.129101019
0.1299536806
0.130791363
0.1315926707
0.132371353
0.1332013853
0.134049832
0.1348336549
0.1356019386
0.136411945
0.1372031189
0.1380336565
0.1388440415
0.1395470491
0.1402330077
0.1410026906
0.1417484768
0.1425087065
0.1432513791
0.144005197
0.1447480878
0.1454749421
0.1462117693
0.1469761654
0.1477230214
0.1484582209
0.1491777344
0.1499094316
0.1506191971
0.1513470998
0.1520534966
0.1527603475
0.1534550016
0.1541619924
0.1548447672
0.155535143
0.1562721698
0.1569795113
0.158168107
0.1603396595
0.1620302152
0.1639925661
0.1660500248
)


100
(
0.06000540722
0.06358664705
0.06620857778
0.06833165332
0.07026764033
0.07201501802
0.0736589203
0.07518089559
0.07668905068
0.07812027018
0.07952516655
0.08090058581
0.08220671565
0.08349302582
0.08477556166
0.08599950366
0.08716149516
0.08836892987
0.08953603106
0.09066397174
0.09174066366
0.09287250731
0.09397517421
0.09504692061
0.09608343924
0.09712270986
0.09820005858
0.09925018838
0.1002699472
0.101265527
0.1022682344
0.1033107465
0.1044278929
0.1053811711
0.1063091393
0.1072152312
0.1081839233
0.1091463756
0.1101134361
0.1110587419
0.1119657781
0.1128827213
0.113808957
0.1147146118
0.1155984481
0.1164454431
0.1172751757
0.118160814
0.1190639947
0.119908518
0.1207361472
0.121549136
0.1223488258
0.1232038973
0.1240645837
0.1249112644
0.1257426494
0.1265054097
0.127266135
0.1280988084
0.1289077424
0.1296811972
0.1304402124
0.1312019862
0.1320006513
0.1328242465
0.1336332118
0.1343725083
0.1350811198
0.1358926941
0.1366026767
0.1373056397
0.1380364446
0.1387632887
0.1394842845
0.1401895432
0.1408965764
0.1416356626
0.1423973159
0.1431413894
0.1438633197
0.1445659852
0.1452661059
0.1459847252
0.1467187413
0.1474213934
0.1481418059
0.1488103808
0.1495065905
0.1501917998
0.1508541112
0.1515388159
0.1522092694
0.1529045406
0.1535841057
0.1551152757
0.1572742461
0.1588635003
0.1608052774
0.1628346205
)


100
(
0.05954157332
0.06302620146
0.06557634866
0.06766083586
0.06953137092
0.07122694106
0.07282512276
0.07431400729
0.07575324767
0.07716400012
0.07850370748
0.07984269461
0.08113301594
0.082360765
0.08358117473
0.08479076494
0.08594831481
0.08704561966
0.08818931728
0.08930610164
0.09038683044
0.09142386047
0.09249325023
0.09355610196
0.09458792996
0.0955878494
0.09656191436
0.09759100298
0.09860543033
0.0995916821
0.1005556384
0.1014975109
0.1024849094
0.1034900269
0.1044098505
0.1053228919
0.106238609
0.1071380511
0.1080973421
0.1090350507
0.109951554
0.1108249802
0.1116654199
0.1125436829
0.113423287
0.1142759755
0.1150982383
0.1159046914
0.1166957531
0.1175265263
0.1183557282
0.1192013388
0.1200348482
0.1208360944
0.1215752591
0.1224034847
0.1232303173
0.1240149103
0.1247584009
0.1254879482
0.1262116011
0.1270095816
0.1278200076
0.1286169058
0.1293490402
0.1300405509
0.1308458505
0.131598912
0.1323047305
0.1330048717
0.1337340133
0.1344672514
0.1351944215
0.1359073767
0.1366146597
0.1373169506
0.1380139686
0.1386993549
0.1394079324
0.1401057868
0.1407924139
0.1415190919
0.1422357995
0.1429322296
0.1436030778
0.1442874589
0.1450065199
0.1456836015
0.1463454434
0.1470012936
0.1476512478
0.1482990105
0.1489450686
0.1496119834
0.1504395177
0.1521674652
0.1541332058
0.1557945368
0.157682007
0.1596476597
)


100
(
0.05907777619
0.06247490228
0.06496494399
0.06699454225
0.06879958149
0.07046525726
0.07199553522
0.07346009715
0.07483347547
0.07621041462
0.07753148262
0.07878810703
0.08006162364
0.08127373547
0.08242671723
0.08358276817
0.08472651485
0.08582467612
0.08686509658
0.08794642613
0.08901975892
0.09005724453
0.09105628756
0.09206112365
0.09308584942
0.09407986462
0.09504492928
0.09598584668
0.09693390966
0.09791481827
0.09886970015
0.0998041023
0.1007184013
0.1016133983
0.102559855
0.1034874986
0.1043951999
0.1052840675
0.1061339663
0.107006026
0.1079145939
0.1088029343
0.1096441816
0.1104598168
0.1112569539
0.1120925639
0.1129174001
0.1137174396
0.1145067137
0.1153050443
0.1160750422
0.1168888936
0.1177170603
0.1185318309
0.1192847313
0.1200056461
0.1207134188
0.1215151291
0.1222564231
0.1229991099
0.1237745239
0.1244983168
0.125228917
0.1260214589
0.1267776782
0.1274557254
0.1281206224
0.1288148569
0.1295521057
0.1302806411
0.1309949384
0.1316992443
0.132406633
0.1331006119
0.1337878386
0.1344748683
0.1351415087
0.135824085
0.1364959494
0.1371929511
0.1378993571
0.1385816804
0.1392384493
0.139879003
0.1406034799
0.1413071151
0.1419494586
0.1426123166
0.143274372
0.1439262478
0.1445731848
0.1452053713
0.145857679
0.146573393
0.1473945836
0.1492093983
0.1510532057
0.152676043
0.1545366892
0.1564953647
)


100
(
0.0586140118
0.06193290776
0.06436145653
0.06633279414
0.06808812601
0.06970824024
0.07119097636
0.07261026355
0.07396163435
0.075260529
0.07656192131
0.07780208572
0.07899263138
0.08018828074
0.08132828015
0.08241169104
0.08350528631
0.08459013404
0.08563281824
0.08662706261
0.0876474168
0.08868058269
0.08967720911
0.09063988423
0.09157806132
0.09256650512
0.09352503403
0.09445667933
0.0953661306
0.09625441178
0.09718178922
0.0981078588
0.0990253985
0.09992430211
0.1007936935
0.1016487723
0.1025484955
0.1034287671
0.1042885665
0.105109307
0.1059112567
0.1067528659
0.107614206
0.1084253457
0.1092171591
0.109992491
0.1107524623
0.1115530317
0.1123594204
0.1131519079
0.1139322312
0.1146729834
0.1153969048
0.116201691
0.116988309
0.1177034431
0.1184062551
0.1190978129
0.1198163962
0.1205998252
0.1213707194
0.1221222069
0.1227822698
0.1234299496
0.1241900116
0.124872573
0.1255536399
0.1262468171
0.1269314575
0.1276232479
0.1283017561
0.1289658942
0.129629858
0.1303364164
0.1310383393
0.131726038
0.1323940947
0.1330443636
0.1336913932
0.1343504382
0.1349964471
0.1356843148
0.1363419965
0.1370296012
0.1376768909
0.1382953545
0.1389764989
0.1396475126
0.1402988838
0.1409351958
0.141552712
0.1422041623
0.1428607788
0.1434985436
0.1443535072
0.1462431077
0.1480105536
0.149586833
0.151384052
0.1532954895
)


100
(
0.05815027628
0.06139398772
0.06376242673
0.0656759261
0.06739825534
0.06895603071
0.07041190979
0.07176518679
0.0730935042
0.07435761338
0.07559714528
0.07681881796
0.07798153545
0.07910507179
0.08022939089
0.08130380251
0.08232472737
0.08335617476
0.08438899049
0.08538287861
0.08633802707
0.08729599586
0.08829065658
0.08924858794
0.0901764314
0.09107982907
0.09200030371
0.09292540996
0.09382592667
0.09470631779
0.09557259165
0.09642825811
0.09733774724
0.09822866403
0.09910063316
0.09993745584
0.1007344903
0.1015698406
0.1024227547
0.1032519383
0.1040465177
0.1048236685
0.1055833985
0.1063866808
0.1071728719
0.107959023
0.1087412542
0.1095070438
0.1102178792
0.1109954085
0.1117692109
0.1125244307
0.1132425928
0.1139496806
0.1146550404
0.115396734
0.1161203619
0.1168518159
0.1175733976
0.1182404723
0.1189610207
0.119714684
0.1203957839
0.1210394339
0.1216715182
0.1223383048
0.1230276334
0.123716685
0.1243928793
0.1250582175
0.1257319701
0.1263925957
0.1270542125
0.1277054476
0.1283611547
0.1290035713
0.1296318853
0.1302975144
0.1309712078
0.1316302859
0.1322683796
0.1328891391
0.133529888
0.1341670622
0.1348268171
0.1354574883
0.1360937417
0.1367437738
0.137399149
0.1380279332
0.1386173047
0.1392084843
0.1398241123
0.1404671423
0.1415074646
0.1433200157
0.145042968
0.1465633307
0.1483058803
0.1501510281
)


100
(
0.05769531921
0.06085824051
0.06316750004
0.06503781858
0.06671357965
0.06821819178
0.06963775715
0.07095737873
0.07222980635
0.07347323454
0.07466054305
0.07583872211
0.07698406255
0.07807277976
0.0791327196
0.08019213118
0.08120735348
0.08217267133
0.08314287008
0.08413043025
0.08508225893
0.0860012831
0.08689546293
0.08785209374
0.08877357601
0.08966816363
0.09054043967
0.09139099803
0.0922844592
0.09316462555
0.09402767968
0.09487339539
0.09568879094
0.09653072114
0.09739447755
0.09823946921
0.09904439025
0.09981669296
0.100570872
0.1013774715
0.1021780487
0.1029479108
0.1037017587
0.1044452608
0.1051845245
0.1059513337
0.1067276785
0.1074903689
0.10822436
0.1089177836
0.1096015101
0.1103573698
0.111083694
0.1117844376
0.1124778385
0.1131961904
0.1138768606
0.1146041481
0.1153197477
0.1160023646
0.1166523138
0.1172961309
0.1180050377
0.1186552403
0.1193229469
0.1199799139
0.1206299763
0.121287209
0.1219328998
0.1225688498
0.1231947554
0.1238307963
0.1244897387
0.125137179
0.1257753224
0.1264144191
0.1270558619
0.1277047839
0.1283164592
0.1289139377
0.1295396523
0.1302068052
0.1308685337
0.1314592629
0.1320337283
0.1326635752
0.1333081436
0.1339316846
0.1345544767
0.1351898576
0.1358066807
0.1364154383
0.1370162209
0.1376969396
0.1387724536
0.1405032332
0.1421294419
0.1436391172
0.1453394022
0.1471331763
)


100
(
0.05724632566
0.06032606554
0.06257956865
0.06441098452
0.06603388122
0.0675092156
0.06886887442
0.07016378964
0.07138123152
0.07259419854
0.07376162698
0.07487014186
0.07598971339
0.07706455857
0.07808357411
0.0790827476
0.08008358194
0.08104369223
0.08196227796
0.08287271444
0.08382097274
0.08473423672
0.08561879131
0.08648028163
0.08736709271
0.08825442414
0.08911780255
0.0899610737
0.09079677869
0.09162711067
0.09248193051
0.09331879522
0.09413913205
0.0949265226
0.09569273205
0.09652241806
0.09734118304
0.0981152372
0.09886288
0.09959307519
0.100306739
0.1010697636
0.1018351999
0.1025965866
0.1033443066
0.1040471259
0.1047114428
0.1054677222
0.1062111555
0.1069128364
0.107588687
0.1082530983
0.108917045
0.1096371522
0.1103603233
0.1110732461
0.1117462857
0.1123728748
0.1130634911
0.1137606985
0.114404887
0.1150392746
0.1156766564
0.1163262381
0.1169750799
0.1176274462
0.1182681051
0.1188960184
0.1195370789
0.1201725341
0.1208011082
0.1214171606
0.1220352138
0.1226442888
0.1232421877
0.123843534
0.1244983181
0.12514395
0.1257682829
0.1263621308
0.1269586404
0.1275597089
0.1281860508
0.1287953026
0.1294007098
0.1299905546
0.1305812161
0.1311966887
0.1317911453
0.1323974254
0.132997944
0.1335893105
0.1342037681
0.1347886797
0.135972438
0.137785607
0.1393526928
0.1408131296
0.1424851857
0.144235139
)


100
(
0.05679735567
0.05980296164
0.0620035777
0.06378897363
0.06536255408
0.06680558218
0.06811919131
0.06937549936
0.07057044922
0.07172046173
0.07286703192
0.07396050455
0.07499985125
0.07605686051
0.07706702763
0.07802299049
0.07896217779
0.0799106334
0.08082221674
0.08170014188
0.0825533892
0.08346400038
0.08434102368
0.08519262819
0.08602283016
0.08683858003
0.08769591743
0.08854199679
0.08936940958
0.09017913121
0.0909433976
0.09176283502
0.09257419531
0.09336900669
0.09412864912
0.09487107642
0.09561286478
0.09640633856
0.09715110306
0.09787434106
0.09858227644
0.0992985519
0.09999070959
0.1007461766
0.101487497
0.102214621
0.1028810386
0.1035265883
0.1041776047
0.1049020253
0.1055728731
0.1062319728
0.1069263334
0.1075846097
0.1082388894
0.1089463671
0.1096435124
0.1102699312
0.1108824155
0.1114971369
0.1121529077
0.1128033385
0.1134438198
0.114073159
0.1146991164
0.1153326056
0.115955384
0.1165659194
0.117171214
0.1177838432
0.1184024352
0.1190144626
0.1196160284
0.1202210814
0.1208234923
0.1214184756
0.1220189413
0.1226191349
0.1232076621
0.1238179366
0.1244163402
0.1250081657
0.1255987561
0.1261766755
0.1267671272
0.1273565447
0.1279374322
0.1285149277
0.1291087788
0.1296808891
0.1302439818
0.1308270056
0.1313833383
0.1320709628
0.1333159355
0.1351474829
0.1366693064
0.1380987697
0.1397334137
0.1414314816
)


100
(
0.05634840051
0.05928404092
0.06143168114
0.0631714408
0.06471434686
0.06610739651
0.06739458512
0.0685931555
0.06976584514
0.07088827237
0.07197755036
0.07305153621
0.07407584292
0.07505351919
0.07604684965
0.07699791742
0.07789750156
0.07877788521
0.07968003129
0.0805494037
0.08139201419
0.08221299436
0.08306170676
0.08390463799
0.0847250358
0.08552695218
0.08632167434
0.08712266608
0.08794087414
0.08874162753
0.08952210489
0.09026279531
0.09100732405
0.09179335944
0.0925615225
0.09329571708
0.09401468812
0.09471816637
0.09543634425
0.09615766165
0.09688291371
0.09759409184
0.09829226102
0.0989472942
0.09962696814
0.1003479717
0.1010470993
0.1016863308
0.1023142339
0.1029309311
0.1035653155
0.1042675754
0.1049606666
0.1056443925
0.1062487893
0.1068290393
0.1075060774
0.1081603801
0.1087678756
0.109372284
0.1099911611
0.1106099444
0.1112227557
0.1118283855
0.1124416122
0.1130448413
0.1136623737
0.11427557
0.1148800071
0.1154762161
0.1160740471
0.1166616214
0.1172383772
0.1178170029
0.118401753
0.1189931812
0.1195722376
0.1201684651
0.1207713637
0.1213542938
0.1218905141
0.1224472495
0.1230353099
0.1236104357
0.1241705753
0.1247286356
0.125317857
0.1258856762
0.1264503655
0.1270273166
0.1275964172
0.1281445184
0.1287554018
0.1293567262
0.1307061395
0.132530838
0.1340248878
0.1354480057
0.1370462561
0.1387192958
)


100
(
0.05589945195
0.05876782096
0.06086368998
0.06256151529
0.0640710905
0.06541598972
0.06667569642
0.06784255386
0.06896719152
0.07006772284
0.07111807737
0.07214755891
0.07315382007
0.07411177789
0.07503107756
0.07596630164
0.07686147201
0.07771338424
0.07853648678
0.07939795672
0.08023118948
0.08104129406
0.08183125225
0.08261659565
0.08342769908
0.084230521
0.08501609047
0.08578047273
0.08651210247
0.08730318422
0.08807810308
0.08883045312
0.08954792577
0.09024970721
0.09097657348
0.09171825147
0.09242910396
0.09312567407
0.09381466463
0.09449710787
0.09518323555
0.09588783937
0.09657841386
0.09724958367
0.09788493011
0.09850777625
0.09917747481
0.09984185884
0.10046329
0.1010889853
0.1017294355
0.1023294266
0.1029900374
0.1036682777
0.1043124749
0.1048882352
0.1054548162
0.1060383198
0.1066598676
0.1072836687
0.1078974222
0.1085008579
0.109099586
0.1096968897
0.1102843319
0.1108623129
0.1114398337
0.1120143572
0.1125810436
0.1131716092
0.1137524361
0.1143331782
0.1149193107
0.1155017865
0.1160712884
0.116625075
0.1171661886
0.1177215946
0.1183319895
0.118928976
0.1194695265
0.1200017457
0.1205461784
0.1211141032
0.1216772715
0.1222197242
0.1227544639
0.1233119236
0.1238450749
0.1243986367
0.1249325102
0.1254681636
0.1260326936
0.1266737489
0.1281391024
0.1299305583
0.131394383
0.1328090688
0.1344027808
0.1360435782
)


100
(
0.055457198
0.05825448871
0.06029961625
0.06196382734
0.06343276714
0.06475030536
0.06596264219
0.0671053554
0.06818579764
0.06925299997
0.07028361404
0.07126376504
0.07223651974
0.07318012991
0.07407744888
0.07493909408
0.07582165061
0.0766670519
0.07747680795
0.07826147372
0.0790707993
0.07987075196
0.08064992149
0.08141056471
0.08216124318
0.08293487759
0.08371050553
0.08446901757
0.08520424162
0.0859045508
0.08662949384
0.08737923879
0.08810520945
0.08879965751
0.0894792485
0.09014380611
0.09084166559
0.09153896143
0.09223676172
0.09292064937
0.09357394758
0.0941871734
0.09486204884
0.09553284231
0.09617679539
0.09679336749
0.09739834369
0.09799166139
0.09862850104
0.09927207119
0.09990579237
0.100527927
0.1010998793
0.1016866108
0.102350089
0.1029414353
0.1035028023
0.1040739485
0.1046539462
0.1052413746
0.1058226859
0.1063943753
0.1069819141
0.1075606675
0.108143132
0.1087263512
0.1093003098
0.1098634565
0.1104240943
0.1109789323
0.1115228962
0.1120729936
0.1126051044
0.11317382
0.1137427719
0.1142946985
0.1148472365
0.1154122346
0.1159549222
0.1164829644
0.1170368695
0.1175894223
0.1181302735
0.1186595944
0.1191846097
0.1197316028
0.1202647213
0.1207916169
0.1213349671
0.121854334
0.1224005114
0.1229601084
0.123506558
0.1241260825
0.1256096049
0.127378017
0.1287844841
0.1301934039
0.131762484