/*--------------------------------*- C++ -*----------------------------------*\
| =========                 |                                                 |
| \\      /  F ield         | OpenFOAM: The Open Source CFD Toolbox           |
|  \\    /   O peration     | Version:  2.3.1                                 |
|   \\  /    A nd           | Web:      www.OpenFOAM.org                      |
|    \\/     M anipulation  |                                                 |
\*---------------------------------------------------------------------------*/
FoamFile
{
    version     2.0;
    format      ascii;
    class       dictionary;
    location    "constant";
    object      O;
}
// * * * * * * * * * * * * * * * * * * * * * * * * * * * * * * * * * * * * * //

O_table
100
(

100
(
4.711890122e-06
2.964715278e-06
2.068929557e-06
1.554260319e-06
1.199494778e-06
9.718842217e-07
7.942393379e-07
6.637942376e-07
5.567101868e-07
4.772594255e-07
4.039647193e-07
3.565109815e-07
3.120102534e-07
2.726494151e-07
2.440834563e-07
2.170250845e-07
1.917459759e-07
1.73254855e-07
1.555362097e-07
1.383780277e-07
1.24972725e-07
1.130212647e-07
1.014084253e-07
9.092423868e-08
8.294434579e-08
7.520169175e-08
6.764872762e-08
6.101571732e-08
5.554709589e-08
5.021463618e-08
4.500683791e-08
4.086447297e-08
3.738278755e-08
3.398893408e-08
3.066476451e-08
2.763066624e-08
2.512421368e-08
2.267454512e-08
2.028540123e-08
1.814597099e-08
1.646088475e-08
1.482613179e-08
1.323244495e-08
1.182672664e-08
1.07500088e-08
9.700977051e-09
8.673348948e-09
7.674826226e-09
6.915697514e-09
6.170640021e-09
5.441531605e-09
4.76569474e-09
4.262577167e-09
3.772126439e-09
3.293253287e-09
2.887139215e-09
2.572481387e-09
2.271294497e-09
1.990944471e-09
1.746910155e-09
1.541419111e-09
1.354510423e-09
1.181332831e-09
1.025962549e-09
8.921156875e-10
7.71139786e-10
6.596670357e-10
5.657033322e-10
4.829412045e-10
4.097314082e-10
3.446132289e-10
2.884552095e-10
2.406931192e-10
1.994160526e-10
1.617622728e-10
1.316550741e-10
1.071119548e-10
8.262131688e-11
6.573199611e-11
5.045491847e-11
3.766858185e-11
2.995252261e-11
2.083898841e-11
1.637395657e-11
1.119378199e-11
8.764620354e-12
5.959703909e-12
4.641281677e-12
3.220344323e-12
2.073564762e-12
1.256966445e-12
7.223082525e-13
4.095170832e-13
1.994585509e-13
9.670011586e-14
4.263052286e-14
2.709926159e-14
1.501434292e-14
1.450345011e-15
6.009308825e-29
)


100
(
4.947722113e-06
3.162672794e-06
2.208743262e-06
1.657029138e-06
1.283919221e-06
1.032466268e-06
8.453921757e-07
7.047254186e-07
5.921758315e-07
5.045373945e-07
4.301693475e-07
3.736588356e-07
3.27693961e-07
2.875889982e-07
2.550758136e-07
2.273621776e-07
2.022045372e-07
1.812048358e-07
1.630446881e-07
1.461963414e-07
1.315231949e-07
1.188529375e-07
1.072477747e-07
9.658245551e-08
8.751277597e-08
7.953143255e-08
7.208412081e-08
6.52572185e-08
5.934060373e-08
5.39256761e-08
4.880444937e-08
4.420471627e-08
4.028255807e-08
3.676187464e-08
3.347883432e-08
3.042764151e-08
2.772816933e-08
2.527776308e-08
2.292747363e-08
2.073123742e-08
1.880705763e-08
1.711792937e-08
1.550598629e-08
1.398491286e-08
1.262910147e-08
1.146138958e-08
1.037739079e-08
9.357402912e-09
8.446002864e-09
7.680092475e-09
6.990614194e-09
6.326377213e-09
5.714711213e-09
5.170233179e-09
4.663037617e-09
4.159400062e-09
3.722696171e-09
3.427121466e-09
3.335442187e-09
3.516596795e-09
3.766135959e-09
3.417380785e-09
2.800127016e-09
2.587846289e-09
2.659902319e-09
2.391061336e-09
2.025949027e-09
1.982426505e-09
1.945842106e-09
1.660549183e-09
1.457350066e-09
1.451078947e-09
1.314789298e-09
1.23160561e-09
1.592983791e-09
1.8363105e-09
1.232509385e-09
1.23748693e-09
1.34626392e-09
8.471103334e-10
1.010310513e-09
8.46514499e-10
6.78562242e-10
8.819082551e-10
6.069345924e-10
6.281583945e-10
8.550061311e-10
4.925570579e-10
7.778140339e-10
5.15437535e-10
6.042621451e-10
5.147368374e-10
7.374576409e-10
7.398228628e-10
9.410295214e-10
8.60655991e-10
9.578901617e-10
9.102265765e-10
2.1345872e-10
2.617653803e-11
)


100
(
5.183615074e-06
3.367225609e-06
2.359315351e-06
1.772485069e-06
1.377576703e-06
1.104447289e-06
9.057579017e-07
7.548404742e-07
6.356605526e-07
5.410876121e-07
4.62719471e-07
4.006185669e-07
3.505804155e-07
3.086006848e-07
2.738309293e-07
2.444124706e-07
2.184926383e-07
1.960782214e-07
1.769776727e-07
1.595661443e-07
1.439967342e-07
1.304382038e-07
1.183682841e-07
1.072538114e-07
9.735210556e-08
8.875403489e-08
8.098487932e-08
7.381515449e-08
6.730455493e-08
6.153226595e-08
5.627889441e-08
5.133941433e-08
4.689498295e-08
4.300271469e-08
3.955475396e-08
3.628774482e-08
3.326307233e-08
3.053889335e-08
2.817409299e-08
2.594537062e-08
2.38076323e-08
2.191767641e-08
2.031184635e-08
1.891384098e-08
1.738935218e-08
1.592998502e-08
1.464607672e-08
1.352639193e-08
1.240105108e-08
1.13433876e-08
1.052481199e-08
9.942527529e-09
9.540355948e-09
9.016509459e-09
8.570331078e-09
8.165537716e-09
7.875021162e-09
7.434705373e-09
7.167510343e-09
7.108657377e-09
7.41850675e-09
7.646418752e-09
7.296387273e-09
6.517276484e-09
5.959668556e-09
5.674267877e-09
5.286644908e-09
4.854464252e-09
4.541593282e-09
4.261281106e-09
3.897119176e-09
3.598926672e-09
3.34342869e-09
3.042612561e-09
3.084676082e-09
3.972191923e-09
4.847945511e-09
4.568763326e-09
4.494574926e-09
4.076884827e-09
3.951448254e-09
4.857594685e-09
3.900493912e-09
5.121714502e-09
4.90065063e-09
4.231283789e-09
4.6818236e-09
4.385873631e-09
4.408771398e-09
5.241216541e-09
5.943123724e-09
6.453715485e-09
7.321231185e-09
1.049910869e-08
1.001881815e-08
1.089134365e-08
1.287100317e-08
8.138041269e-09
2.602686813e-09
6.528242232e-10
)


100
(
5.419542048e-06
3.580222915e-06
2.523345509e-06
1.901553724e-06
1.48146213e-06
1.189244846e-06
9.755164795e-07
8.156285147e-07
6.879612456e-07
5.866973516e-07
5.034981158e-07
4.356914796e-07
3.816431614e-07
3.363879433e-07
2.988124684e-07
2.677089743e-07
2.405259218e-07
2.166264558e-07
1.959629509e-07
1.781691236e-07
1.615537474e-07
1.467974933e-07
1.338713036e-07
1.225411813e-07
1.11970998e-07
1.025600787e-07
9.427108696e-08
8.6944273e-08
7.991603075e-08
7.347290341e-08
6.770473926e-08
6.279009859e-08
5.802608912e-08
5.367428622e-08
4.989129613e-08
4.668400778e-08
4.370537983e-08
4.078575334e-08
3.81866268e-08
3.593184295e-08
3.405691208e-08
3.227442191e-08
3.053728775e-08
2.917322648e-08
2.801217591e-08
2.722949572e-08
2.605709319e-08
2.503292895e-08
2.398694563e-08
2.335481709e-08
2.23122906e-08
2.152548248e-08
2.07018867e-08
1.998695309e-08
1.892813261e-08
1.793645859e-08
1.702557832e-08
1.634305529e-08
1.537728825e-08
1.437362639e-08
1.359992282e-08
1.310744916e-08
1.26421078e-08
1.198899445e-08
1.112148519e-08
1.03003652e-08
9.528571024e-09
8.92310441e-09
8.686850435e-09
8.953132394e-09
9.464466037e-09
1.035673681e-08
1.17828123e-08
1.323598464e-08
1.263019865e-08
1.342866012e-08
1.712687034e-08
1.564141245e-08
1.355266036e-08
1.677171754e-08
1.655117458e-08
1.546830144e-08
1.638605907e-08
1.579896885e-08
1.541127815e-08
1.655684147e-08
1.829393874e-08
2.06868524e-08
2.232732397e-08
2.675919761e-08
3.108520072e-08
3.324153954e-08
3.925775797e-08
4.069050623e-08
4.82009415e-08
5.687482671e-08
6.210919735e-08
3.328647212e-08
1.323147586e-08
4.715485703e-09
)


100
(
5.655477074e-06
3.801060256e-06
2.702582017e-06
2.042542545e-06
1.598157929e-06
1.285290508e-06
1.056759597e-06
8.849005607e-07
7.501128712e-07
6.406622163e-07
5.529570014e-07
4.79246243e-07
4.196413073e-07
3.713667523e-07
3.30369423e-07
2.963253887e-07
2.679733664e-07
2.428105919e-07
2.205363613e-07
2.011117214e-07
1.844210241e-07
1.687877761e-07
1.547826256e-07
1.426246624e-07
1.325783788e-07
1.231633068e-07
1.146258341e-07
1.069895963e-07
1.003881432e-07
9.392602109e-08
8.781872808e-08
8.238762469e-08
7.776297892e-08
7.398532132e-08
6.978325651e-08
6.622786228e-08
6.326305287e-08
6.143426347e-08
5.903921742e-08
5.716664906e-08
5.54635708e-08
5.374227733e-08
5.210292765e-08
4.987923585e-08
4.792769718e-08
4.627764154e-08
4.53489299e-08
4.327299457e-08
4.141489132e-08
3.978078977e-08
3.849529626e-08
3.669933498e-08
3.505436829e-08
3.354018635e-08
3.200376393e-08
3.023758356e-08
2.865216104e-08
2.767780011e-08
2.675298721e-08
2.555103577e-08
2.402290411e-08
2.281438693e-08
2.231793416e-08
2.249142197e-08
2.293543001e-08
2.363110438e-08
2.416610602e-08
2.425834132e-08
2.431353089e-08
2.470323539e-08
2.501778641e-08
2.544295408e-08
2.757269501e-08
3.316963316e-08
3.885771394e-08
3.759708226e-08
3.546518168e-08
3.759134846e-08
3.815604257e-08
3.76504246e-08
3.759668995e-08
3.897931286e-08
4.528132651e-08
5.130213384e-08
5.393383104e-08
5.662071379e-08
5.845324036e-08
6.506375822e-08
7.631448396e-08
9.855099253e-08
9.885788531e-08
1.02210439e-07
1.201234716e-07
1.309489425e-07
1.543697843e-07
1.835940715e-07
1.84666983e-07
9.424268573e-08
4.346230242e-08
1.887342361e-08
)


100
(
5.891394765e-06
4.026211617e-06
2.892595509e-06
2.197589483e-06
1.728802063e-06
1.393202277e-06
1.150821404e-06
9.648241898e-07
8.220245556e-07
7.044818806e-07
6.091258433e-07
5.315201793e-07
4.660323031e-07
4.129328865e-07
3.692986101e-07
3.319797428e-07
3.009412936e-07
2.752387026e-07
2.522226717e-07
2.314965326e-07
2.134334425e-07
1.982070539e-07
1.841778111e-07
1.713607372e-07
1.607494433e-07
1.528590224e-07
1.463318312e-07
1.39629452e-07
1.32973431e-07
1.267675673e-07
1.216323818e-07
1.159807836e-07
1.110267395e-07
1.065055801e-07
1.035447456e-07
9.884783555e-08
9.47507797e-08
9.100056397e-08
8.990265796e-08
8.677447796e-08
8.412559533e-08
8.150732391e-08
7.945605806e-08
7.657717367e-08
7.307124992e-08
6.988095032e-08
6.790343851e-08
6.599394116e-08
6.267443982e-08
5.978795233e-08
5.757101215e-08
5.559638445e-08
5.338101865e-08
5.140449427e-08
4.967702262e-08
4.807537734e-08
4.661231462e-08
4.64237658e-08
4.729390781e-08
4.883004564e-08
5.027009506e-08
5.098354177e-08
5.114013651e-08
5.138731726e-08
5.13537592e-08
5.113651014e-08
5.113899506e-08
5.114397867e-08
5.076950651e-08
5.051961011e-08
5.164592211e-08
5.471385743e-08
5.929452296e-08
6.422983974e-08
6.852574852e-08
7.344865169e-08
7.423266535e-08
7.470293781e-08
7.807666838e-08
8.733190977e-08
9.809952466e-08
1.062121745e-07
1.105111784e-07
1.170735853e-07
1.282326056e-07
1.437637961e-07
1.517984451e-07
1.647192897e-07
2.08159243e-07
2.22761954e-07
2.280064768e-07
2.679698513e-07
2.908100575e-07
3.371349626e-07
3.907661155e-07
4.571947649e-07
3.95549047e-07
2.159828582e-07
1.111252016e-07
5.634877702e-08
)


100
(
6.126890151e-06
4.256308609e-06
3.093395672e-06
2.367633677e-06
1.870087626e-06
1.514797686e-06
1.254969928e-06
1.056801064e-06
9.019288189e-07
7.788385345e-07
6.751048545e-07
5.914647252e-07
5.219587923e-07
4.634696006e-07
4.160231075e-07
3.766908113e-07
3.428995485e-07
3.151577564e-07
2.926453236e-07
2.723608052e-07
2.535272845e-07
2.373194376e-07
2.240716612e-07
2.125384355e-07
2.013000177e-07
1.930211348e-07
1.882527188e-07
1.842558664e-07
1.788920245e-07
1.726476131e-07
1.667153613e-07
1.621815625e-07
1.557598698e-07
1.499760943e-07
1.451592189e-07
1.414583339e-07
1.351034909e-07
1.293918929e-07
1.253312097e-07
1.227741564e-07
1.179992909e-07
1.135841192e-07
1.097961362e-07
1.063459369e-07
1.021589848e-07
9.74071426e-08
9.441523174e-08
9.194812047e-08
9.013697949e-08
8.685408532e-08
8.480900044e-08
8.335154403e-08
8.300596886e-08
8.344847347e-08
8.409673447e-08
8.535758991e-08
8.666929738e-08
8.764850017e-08
8.827224862e-08
8.90645705e-08
9.027092324e-08
9.102569565e-08
9.138199684e-08
9.246647299e-08
9.30491923e-08
9.356292252e-08
9.534589001e-08
9.979393784e-08
1.061822234e-07
1.117636695e-07
1.171134099e-07
1.213572915e-07
1.24479945e-07
1.280581726e-07
1.316090331e-07
1.377289234e-07
1.509463079e-07
1.642816005e-07
1.783512656e-07
1.890504094e-07
1.962073045e-07
2.075173648e-07
2.303366598e-07
2.582622733e-07
2.797876502e-07
2.994950968e-07
3.322022024e-07
3.717120977e-07
4.449687756e-07
4.955957354e-07
5.086772747e-07
5.560797925e-07
6.289086383e-07
7.27495857e-07
8.558645189e-07
9.666616376e-07
7.69007897e-07
4.488759884e-07
2.494088802e-07
1.405876425e-07
)


100
(
6.36214928e-06
4.490401957e-06
3.304807323e-06
2.550365959e-06
2.024753379e-06
1.651256506e-06
1.370969025e-06
1.161920805e-06
9.936110597e-07
8.614278876e-07
7.524328505e-07
6.613114038e-07
5.880385255e-07
5.257052821e-07
4.736747076e-07
4.317990296e-07
3.970565264e-07
3.672529172e-07
3.437263944e-07
3.247289588e-07
3.079876668e-07
2.912798452e-07
2.77165312e-07
2.658279101e-07
2.569717023e-07
2.465315272e-07
2.397347741e-07
2.371392294e-07
2.34302174e-07
2.29260587e-07
2.22069874e-07
2.17194305e-07
2.102926187e-07
2.015766002e-07
1.935325689e-07
1.882555003e-07
1.822335874e-07
1.73725116e-07
1.663552705e-07
1.617576694e-07
1.576834987e-07
1.51549594e-07
1.457354791e-07
1.413784683e-07
1.375845266e-07
1.337008128e-07
1.307481008e-07
1.29962598e-07
1.306568685e-07
1.32576656e-07
1.345156255e-07
1.359382475e-07
1.378858505e-07
1.398293783e-07
1.419778035e-07
1.440077321e-07
1.442785093e-07
1.446600428e-07
1.447020051e-07
1.446763208e-07
1.460758485e-07
1.476335949e-07
1.505460563e-07
1.560303346e-07
1.650329635e-07
1.754369868e-07
1.841292633e-07
1.916714454e-07
1.989074497e-07
2.054307271e-07
2.123350956e-07
2.196005434e-07
2.285486618e-07
2.443937337e-07
2.64513792e-07
2.812983823e-07
2.980074149e-07
3.115646109e-07
3.241753256e-07
3.419614875e-07
3.751818945e-07
4.132019911e-07
4.486688922e-07
4.849546472e-07
5.315437316e-07
5.886956302e-07
6.512713265e-07
7.180154808e-07
8.11179196e-07
8.859838099e-07
9.604814735e-07
1.089654567e-06
1.243126906e-06
1.435561997e-06
1.682990509e-06
1.856258011e-06
1.374960071e-06
8.574032271e-07
5.143144837e-07
3.114591987e-07
)


100
(
6.597414705e-06
4.729978344e-06
3.526246949e-06
2.743746363e-06
2.194589234e-06
1.798613015e-06
1.501352156e-06
1.27604606e-06
1.098639188e-06
9.551083515e-07
8.420152211e-07
7.449037992e-07
6.651137471e-07
6.018690595e-07
5.46624504e-07
5.011819357e-07
4.650919952e-07
4.350946184e-07
4.109122503e-07
3.911474599e-07
3.755954348e-07
3.625778953e-07
3.471888094e-07
3.341837061e-07
3.232791003e-07
3.14706635e-07
3.046456727e-07
2.97621133e-07
2.952501016e-07
2.916826142e-07
2.854336846e-07
2.772485671e-07
2.712578529e-07
2.613314504e-07
2.498059364e-07
2.404677105e-07
2.332267696e-07
2.252995826e-07
2.150613569e-07
2.08565506e-07
2.037427303e-07
2.003751608e-07
1.949957354e-07
1.91545701e-07
1.895520996e-07
1.8955038e-07
1.913456784e-07
1.937939267e-07
1.979088233e-07
2.029935603e-07
2.075612354e-07
2.116106659e-07
2.139128132e-07
2.151101577e-07
2.165130251e-07
2.182618669e-07
2.201391393e-07
2.237720896e-07
2.265639731e-07
2.297146547e-07
2.356037677e-07
2.453885426e-07
2.582565565e-07
2.711591669e-07
2.841177603e-07
2.971199382e-07
3.077858837e-07
3.174739579e-07
3.285407608e-07
3.416718367e-07
3.622856763e-07
3.916642761e-07
4.214062705e-07
4.461360765e-07
4.693814565e-07
4.887987688e-07
5.097711187e-07
5.384642081e-07
5.831680386e-07
6.339996904e-07
6.839687038e-07
7.316565447e-07
7.862538045e-07
8.718673055e-07
9.607615195e-07
1.061422543e-06
1.158240097e-06
1.307940578e-06
1.407316567e-06
1.525573538e-06
1.69444656e-06
1.915619162e-06
2.200008635e-06
2.552324804e-06
2.916191763e-06
3.15709363e-06
2.276145669e-06
1.507489115e-06
9.627839392e-07
6.267578416e-07
)


100
(
6.832649222e-06
4.973827021e-06
3.755072842e-06
2.949814693e-06
2.379996488e-06
1.958388778e-06
1.647494215e-06
1.404160194e-06
1.218170593e-06
1.064095412e-06
9.417382844e-07
8.453049787e-07
7.597048658e-07
6.909800418e-07
6.38132239e-07
5.901946943e-07
5.516835645e-07
5.220746138e-07
4.991324581e-07
4.772229602e-07
4.597375068e-07
4.456346154e-07
4.350070642e-07
4.191490897e-07
4.053521773e-07
3.93110387e-07
3.825666501e-07
3.724011435e-07
3.633247721e-07
3.591086024e-07
3.529614385e-07
3.443561668e-07
3.366251452e-07
3.282840913e-07
3.159424049e-07
3.022429438e-07
2.933165773e-07
2.858412801e-07
2.786158286e-07
2.711068848e-07
2.683298078e-07
2.681698176e-07
2.708440124e-07
2.729547609e-07
2.746039799e-07
2.776786301e-07
2.815602634e-07
2.867816067e-07
2.926300973e-07
2.965165069e-07
3.014319752e-07
3.057731122e-07
3.088907762e-07
3.121519848e-07
3.165834974e-07
3.205430596e-07
3.282082448e-07
3.399938061e-07
3.558520663e-07
3.743187804e-07
3.909073152e-07
4.050579926e-07
4.194044917e-07
4.336313687e-07
4.482324218e-07
4.646193237e-07
4.827138108e-07
5.062501038e-07
5.388499087e-07
5.784659544e-07
6.179800813e-07
6.564840805e-07
6.924013301e-07
7.23416921e-07
7.58744815e-07
8.026262184e-07
8.638930829e-07
9.328117156e-07
9.994943335e-07
1.06480634e-06
1.140656555e-06
1.244004935e-06
1.356795739e-06
1.481241419e-06
1.612119882e-06
1.770125396e-06
1.956998461e-06
2.12278409e-06
2.310358155e-06
2.547567552e-06
2.835191591e-06
3.224122023e-06
3.635719979e-06
4.22175418e-06
4.778145207e-06
4.943313548e-06
3.510657689e-06
2.443598495e-06
1.636570132e-06
1.124502687e-06
)


100
(
7.06781854e-06
5.220496768e-06
3.99215519e-06
3.169501196e-06
2.575546713e-06
2.133887997e-06
1.805574221e-06
1.549355941e-06
1.349003084e-06
1.191235854e-06
1.059696892e-06
9.573998482e-07
8.751119879e-07
8.021860332e-07
7.445617869e-07
7.023446691e-07
6.614385774e-07
6.288315495e-07
6.03827014e-07
5.85358347e-07
5.641286811e-07
5.466541509e-07
5.315337106e-07
5.192131865e-07
5.033370404e-07
4.872164975e-07
4.723396625e-07
4.588474232e-07
4.477040248e-07
4.357406168e-07
4.285115592e-07
4.200021433e-07
4.103218169e-07
4.029013801e-07
3.947152605e-07
3.827441073e-07
3.728498691e-07
3.671518568e-07
3.648946692e-07
3.650130773e-07
3.668230283e-07
3.711716527e-07
3.777357807e-07
3.851619865e-07
3.944195959e-07
3.997458428e-07
4.036966484e-07
4.078347037e-07
4.123030001e-07
4.170144674e-07
4.238597678e-07
4.289072605e-07
4.364291219e-07
4.467335772e-07
4.603073234e-07
4.785522056e-07
5.028755944e-07
5.251624239e-07
5.505003707e-07
5.755804119e-07
5.981400946e-07
6.191801332e-07
6.381428448e-07
6.577618482e-07
6.847181908e-07
7.213305746e-07
7.676485782e-07
8.182434406e-07
8.678253617e-07
9.170822642e-07
9.652674484e-07
1.016783661e-06
1.070219993e-06
1.136526802e-06
1.22176641e-06
1.31677136e-06
1.40604585e-06
1.496005928e-06
1.598875496e-06
1.726537437e-06
1.878118812e-06
2.042775977e-06
2.20202309e-06
2.362665933e-06
2.609888719e-06
2.82902028e-06
3.109077994e-06
3.360658553e-06
3.682859421e-06
4.052836051e-06
4.514240269e-06
5.076690722e-06
5.790877351e-06
6.67592015e-06
7.474343511e-06
7.206662654e-06
5.09075164e-06
3.695162761e-06
2.584281556e-06
1.864997287e-06
)


100
(
7.291167778e-06
5.469626732e-06
4.23726058e-06
3.401496156e-06
2.783236714e-06
2.326610189e-06
1.977206949e-06
1.713756849e-06
1.498912544e-06
1.333304725e-06
1.199154415e-06
1.090091614e-06
1.007156431e-06
9.384810714e-07
8.773715548e-07
8.297992504e-07
7.967233082e-07
7.604810562e-07
7.307552479e-07
7.067413773e-07
6.898702562e-07
6.666448492e-07
6.466365318e-07
6.288188485e-07
6.132460751e-07
5.971002844e-07
5.7795907e-07
5.604651335e-07
5.445547633e-07
5.315320603e-07
5.216714362e-07
5.114577555e-07
4.968339092e-07
4.958222562e-07
4.921939467e-07
4.907425525e-07
4.873900951e-07
4.868912932e-07
4.88486931e-07
4.93086181e-07
5.019824151e-07
5.10367161e-07
5.185026084e-07
5.283275388e-07
5.374171747e-07
5.463380264e-07
5.553142545e-07
5.608626055e-07
5.656182568e-07
5.745191189e-07
5.860789626e-07
6.025945253e-07
6.262502385e-07
6.516038579e-07
6.803139611e-07
7.124191476e-07
7.431022332e-07
7.763959423e-07
8.090026433e-07
8.358010766e-07
8.660375125e-07
9.015268282e-07
9.436903545e-07
9.963195535e-07
1.055847913e-06
1.117572091e-06
1.18044528e-06
1.241980755e-06
1.303870244e-06
1.359375627e-06
1.432998568e-06
1.525238799e-06
1.642207386e-06
1.763252413e-06
1.881604928e-06
2.010707907e-06
2.159593152e-06
2.324857338e-06
2.517385094e-06
2.721335991e-06
2.923849414e-06
3.146771951e-06
3.419357062e-06
3.702507441e-06
4.031223979e-06
4.359686837e-06
4.807806632e-06
5.198061612e-06
5.671180664e-06
6.28970052e-06
6.975095571e-06
7.818408685e-06
8.885139435e-06
1.010856396e-05
1.122517246e-05
1.001426161e-05
7.108793564e-06
5.34646736e-06
3.85248373e-06
2.995031777e-06
)


100
(
7.501022939e-06
5.718969223e-06
4.490329804e-06
3.639166734e-06
3.005597518e-06
2.532807102e-06
2.167025411e-06
1.889876433e-06
1.670597807e-06
1.494265998e-06
1.360910178e-06
1.248090548e-06
1.159843027e-06
1.094573022e-06
1.037681182e-06
9.856614511e-07
9.446887229e-07
9.166468001e-07
8.822396864e-07
8.515361458e-07
8.251661879e-07
8.046285056e-07
7.801583937e-07
7.564479737e-07
7.352745043e-07
7.16494403e-07
7.00599022e-07
6.805225616e-07
6.62166794e-07
6.469167424e-07
6.356601113e-07
6.306111719e-07
6.262655276e-07
6.219757775e-07
6.262330103e-07
6.323845765e-07
6.395123027e-07
6.499613787e-07
6.544039188e-07
6.614033819e-07
6.699377382e-07
6.808042936e-07
6.936785263e-07
7.021373206e-07
7.106211499e-07
7.21060875e-07
7.333009088e-07
7.484658307e-07
7.701112102e-07
7.92878266e-07
8.200104514e-07
8.523622938e-07
8.885620425e-07
9.285501572e-07
9.759723148e-07
1.01163372e-06
1.047545063e-06
1.086867895e-06
1.129782433e-06
1.18076245e-06
1.244664765e-06
1.310170691e-06
1.385810796e-06
1.466268833e-06
1.551375664e-06
1.63836505e-06
1.707105412e-06
1.783875701e-06
1.87162652e-06
1.978288111e-06
2.11148088e-06
2.256839572e-06
2.416766603e-06
2.588904259e-06
2.766354252e-06
2.960474413e-06
3.211766937e-06
3.49841158e-06
3.762540862e-06
4.022879582e-06
4.329266369e-06
4.70389549e-06
5.107706452e-06
5.505566091e-06
5.949725656e-06
6.514221325e-06
7.079989861e-06
7.643520515e-06
8.448389595e-06
9.373769875e-06
1.040922029e-05
1.154701485e-05
1.301963144e-05
1.469958975e-05
1.60308802e-05
1.343084506e-05
9.859523097e-06
7.533701367e-06
5.566824083e-06
4.318887577e-06
)


100
(
7.710837721e-06
5.968819277e-06
4.747563342e-06
3.886539164e-06
3.243530547e-06
2.750264127e-06
2.376572799e-06
2.083862355e-06
1.86419708e-06
1.680458604e-06
1.538673272e-06
1.434884888e-06
1.340579938e-06
1.269656634e-06
1.218420808e-06
1.16911399e-06
1.12185677e-06
1.082897782e-06
1.055214098e-06
1.019997399e-06
9.850164085e-07
9.543506053e-07
9.291940737e-07
9.040610284e-07
8.770761954e-07
8.539519572e-07
8.342770493e-07
8.191367588e-07
8.06295776e-07
7.920016921e-07
7.828888346e-07
7.792981301e-07
7.829141528e-07
7.949407749e-07
8.02859916e-07
8.131952968e-07
8.263287435e-07
8.401609914e-07
8.57680834e-07
8.704331369e-07
8.770267254e-07
8.8464583e-07
8.95320465e-07
9.081998086e-07
9.261576806e-07
9.429030838e-07
9.650417653e-07
9.961501851e-07
1.034888518e-06
1.079206508e-06
1.132548573e-06
1.179519897e-06
1.224245461e-06
1.26966349e-06
1.319134681e-06
1.37212497e-06
1.433838832e-06
1.487870733e-06
1.562067301e-06
1.650511364e-06
1.744910195e-06
1.854331687e-06
1.963475038e-06
2.058486643e-06
2.155350735e-06
2.261679897e-06
2.380143583e-06
2.513240072e-06
2.666649178e-06
2.839045212e-06
3.028988904e-06
3.230185497e-06
3.439254187e-06
3.6716116e-06
3.941620298e-06
4.2600646e-06
4.601544889e-06
4.966941374e-06
5.348142542e-06
5.740129847e-06
6.22514173e-06
6.753401001e-06
7.266177088e-06
7.850580105e-06
8.550414816e-06
9.272731102e-06
9.971596979e-06
1.089063662e-05
1.207743509e-05
1.328925512e-05
1.473794809e-05
1.636868493e-05
1.8493606e-05
2.064844395e-05
2.186237611e-05
1.779834877e-05
1.349673284e-05
1.054369484e-05
7.967309841e-06
6.89720802e-06
)


100
(
7.920585896e-06
6.218408933e-06
5.008382046e-06
4.1446613e-06
3.491567082e-06
2.984023415e-06
2.601303927e-06
2.300170272e-06
2.070322854e-06
1.894479057e-06
1.745054637e-06
1.634094291e-06
1.551750988e-06
1.474713405e-06
1.41575088e-06
1.373092542e-06
1.326671852e-06
1.279486271e-06
1.238966353e-06
1.207329913e-06
1.170175312e-06
1.130092709e-06
1.0953282e-06
1.0666763e-06
1.04430409e-06
1.01680659e-06
9.956175036e-07
9.807835848e-07
9.726653884e-07
9.730051159e-07
9.720173308e-07
9.742672461e-07
9.82601527e-07
9.96435674e-07
1.017055984e-06
1.040455822e-06
1.054763675e-06
1.070433535e-06
1.085642714e-06
1.103092719e-06
1.121432307e-06
1.133945158e-06
1.144378597e-06
1.164210719e-06
1.19092623e-06
1.227335124e-06
1.276334079e-06
1.327677116e-06
1.382590634e-06
1.443751115e-06
1.504325734e-06
1.570182701e-06
1.637674322e-06
1.687459474e-06
1.743374456e-06
1.819697462e-06
1.909031673e-06
2.017298907e-06
2.143848233e-06
2.259021416e-06
2.381431152e-06
2.50354089e-06
2.642619625e-06
2.78559532e-06
2.90511236e-06
3.060248447e-06
3.245473486e-06
3.46281423e-06
3.699908657e-06
3.933562285e-06
4.176212253e-06
4.449546728e-06
4.76311139e-06
5.112529139e-06
5.497009053e-06
5.910625488e-06
6.344184892e-06
6.821561791e-06
7.365823358e-06
7.988872914e-06
8.629751915e-06
9.29643423e-06
1.001282692e-05
1.086964969e-05
1.178767515e-05
1.269802125e-05
1.370779432e-05
1.495403205e-05
1.640144649e-05
1.808758634e-05
1.99779153e-05
2.214205367e-05
2.506640536e-05
2.792630461e-05
2.894478556e-05
2.340424417e-05
1.824120784e-05
1.451468435e-05
1.121109521e-05
9.548972985e-06
)


100
(
8.130242747e-06
6.467351294e-06
5.2732599e-06
4.412652783e-06
3.747137341e-06
3.235516053e-06
2.83907479e-06
2.541187835e-06
2.301641321e-06
2.124105952e-06
1.982594478e-06
1.864906661e-06
1.77888091e-06
1.712339253e-06
1.645740016e-06
1.592045636e-06
1.551642434e-06
1.504920656e-06
1.454184135e-06
1.409522708e-06
1.372359328e-06
1.33509431e-06
1.291689299e-06
1.255905003e-06
1.227764396e-06
1.209090219e-06
1.193382172e-06
1.181467649e-06
1.178766119e-06
1.184277622e-06
1.198324627e-06
1.220901566e-06
1.233596557e-06
1.250604589e-06
1.270848404e-06
1.295170296e-06
1.3246853e-06
1.344046001e-06
1.358235738e-06
1.375050753e-06
1.396698405e-06
1.423232673e-06
1.460193057e-06
1.496120234e-06
1.542464208e-06
1.59914381e-06
1.663502566e-06
1.735123893e-06
1.82532542e-06
1.894230787e-06
1.962459544e-06
2.032962045e-06
2.111500177e-06
2.198956526e-06
2.30393017e-06
2.411953364e-06
2.543691827e-06
2.689435191e-06
2.839421929e-06
3.015779216e-06
3.16511954e-06
3.298653277e-06
3.459281585e-06
3.641642315e-06
3.856379915e-06
4.107948135e-06
4.373589759e-06
4.655562233e-06
4.959549864e-06
5.278765575e-06
5.605367483e-06
5.972169654e-06
6.431491024e-06
6.935494708e-06
7.437136386e-06
7.961546385e-06
8.554848782e-06
9.211853728e-06
9.945135736e-06
1.073549476e-05
1.15524578e-05
1.244679293e-05
1.352209318e-05
1.46110979e-05
1.572298844e-05
1.697831229e-05
1.843773025e-05
2.009984758e-05
2.203549327e-05
2.400605061e-05
2.656022694e-05
2.927330127e-05
3.295013705e-05
3.65214482e-05
3.714880315e-05
3.035589721e-05
2.417114698e-05
1.95843155e-05
1.541138542e-05
1.321956636e-05
)


100
(
8.313202227e-06
6.713586845e-06
5.541670193e-06
4.684632189e-06
4.014172928e-06
3.501467902e-06
3.09664978e-06
2.795261624e-06
2.56149864e-06
2.378092909e-06
2.245386571e-06
2.131267324e-06
2.037451415e-06
1.968838204e-06
1.910271302e-06
1.847068284e-06
1.792683015e-06
1.74984742e-06
1.701609729e-06
1.645787736e-06
1.59688486e-06
1.556191519e-06
1.524346819e-06
1.482604695e-06
1.451843338e-06
1.43238614e-06
1.425562482e-06
1.433588634e-06
1.437297881e-06
1.450033533e-06
1.471232332e-06
1.497754103e-06
1.53332793e-06
1.560433903e-06
1.578923174e-06
1.598794109e-06
1.622833878e-06
1.651291296e-06
1.685303344e-06
1.709930007e-06
1.739613514e-06
1.783276395e-06
1.838432287e-06
1.906820975e-06
1.9912405e-06
2.07277746e-06
2.154114818e-06
2.239463891e-06
2.327795329e-06
2.426217416e-06
2.530947115e-06
2.614225901e-06
2.717504473e-06
2.847226523e-06
2.99771948e-06
3.160705087e-06
3.356185679e-06
3.530415696e-06
3.708147007e-06
3.893612714e-06
4.090880722e-06
4.303829326e-06
4.49940599e-06
4.755295381e-06
5.056273804e-06
5.397437173e-06
5.759305545e-06
6.123583849e-06
6.509301737e-06
6.935385093e-06
7.421892812e-06
7.981162534e-06
8.55622173e-06
9.168783772e-06
9.809638857e-06
1.04948732e-05
1.128688836e-05
1.219092526e-05
1.313745031e-05
1.415332807e-05
1.524026901e-05
1.643759516e-05
1.774169379e-05
1.90770811e-05
2.05874885e-05
2.248083012e-05
2.439880943e-05
2.642595422e-05
2.890284261e-05
3.155455328e-05
3.474494193e-05
3.926963961e-05
4.3140846e-05
4.757902261e-05
4.685841963e-05
3.865269426e-05
3.141175645e-05
2.582705326e-05
2.068627752e-05
1.837134307e-05
)


100
(
8.478062689e-06
6.954043158e-06
5.811728567e-06
4.960337424e-06
4.293536224e-06
3.773877528e-06
3.375605851e-06
3.068835114e-06
2.848471244e-06
2.665290245e-06
2.527906944e-06
2.432959592e-06
2.334890411e-06
2.255073185e-06
2.195663542e-06
2.138448735e-06
2.073213043e-06
2.015482487e-06
1.96727601e-06
1.919343135e-06
1.860114397e-06
1.811283322e-06
1.773104468e-06
1.748303612e-06
1.725857638e-06
1.710251289e-06
1.709061904e-06
1.721131424e-06
1.745989176e-06
1.77909105e-06
1.805309372e-06
1.836243104e-06
1.867799582e-06
1.905673843e-06
1.946217085e-06
1.963641059e-06
1.982512701e-06
2.013444404e-06
2.053408279e-06
2.106534595e-06
2.179212226e-06
2.247232971e-06
2.326236619e-06
2.416659966e-06
2.514059887e-06
2.630249276e-06
2.76282259e-06
2.854795831e-06
2.949346082e-06
3.062092858e-06
3.190393251e-06
3.341561401e-06
3.519539343e-06
3.694360571e-06
3.885586982e-06
4.089867751e-06
4.316167744e-06
4.567750983e-06
4.772391269e-06
4.972389816e-06
5.225915349e-06
5.509126277e-06
5.837214437e-06
6.205292548e-06
6.602911375e-06
7.015561954e-06
7.462264878e-06
7.943543775e-06
8.444921522e-06
9.011880601e-06
9.679526118e-06
1.039990485e-05
1.113491601e-05
1.190692689e-05
1.276478733e-05
1.375870341e-05
1.478432761e-05
1.586742105e-05
1.701400239e-05
1.829504701e-05
1.978620665e-05
2.140183224e-05
2.296544414e-05
2.459399375e-05
2.663966611e-05
2.89799694e-05
3.14742877e-05
3.422483181e-05
3.738502694e-05
4.080454858e-05
4.486400555e-05
4.990766476e-05
5.545646593e-05
6.071046224e-05
5.89662957e-05
4.843508407e-05
3.993153437e-05
3.331967483e-05
2.711874139e-05
2.436292961e-05
)


100
(
8.642848119e-06
7.18839007e-06
6.079952289e-06
5.241133651e-06
4.582745127e-06
4.05961599e-06
3.669848598e-06
3.367497319e-06
3.147232505e-06
2.988049824e-06
2.847831961e-06
2.744484772e-06
2.672464105e-06
2.583508641e-06
2.508593885e-06
2.450714463e-06
2.392175434e-06
2.322462452e-06
2.261027842e-06
2.209442936e-06
2.167617664e-06
2.111845236e-06
2.071300362e-06
2.046821631e-06
2.040511642e-06
2.05267191e-06