/*--------------------------------*- C++ -*----------------------------------*\
| =========                 |                                                 |
| \\      /  F ield         | OpenFOAM: The Open Source CFD Toolbox           |
|  \\    /   O peration     | Version:  2.3.1                                 |
|   \\  /    A nd           | Web:      www.OpenFOAM.org                      |
|    \\/     M anipulation  |                                                 |
\*---------------------------------------------------------------------------*/
FoamFile
{
    version     2.0;
    format      ascii;
    class       dictionary;
    location    "constant";
    object      PM11;
}
// * * * * * * * * * * * * * * * * * * * * * * * * * * * * * * * * * * * * * //

PM11_table
100
(

100
(
92.91670034
-98.28955373
-53.66297141
-34.39241265
-30.15529304
-26.9257799
-19.76643708
-20.25316461
-17.00757408
-16.01410895
-16.08936423
-13.22545637
-13.18490863
-12.49683351
-10.76188387
-10.69186771
-10.67883268
-8.847839395
-8.824536179
-8.981743188
-7.937635406
-7.477453452
-7.524898683
-7.377703049
-6.523279605
-6.528648922
-6.594311232
-6.32792076
-5.586131993
-5.587404168
-5.640561618
-5.400905783
-5.002014426
-5.010241667
-5.046127029
-4.940472231
-4.462738871
-4.253189592
-4.276000783
-4.207562129
-3.913942752
-3.720447788
-3.733480591
-3.690056812
-3.517973701
-3.372627731
-3.380330445
-3.397011847
-3.18049803
-2.981310618
-2.900319069
-2.886954256
-2.760738212
-2.643024501
-2.584459427
-2.559940074
-2.494325502
-2.433877133
-2.407091172
-2.378516724
-2.31680302
-2.191528306
-2.131499488
-2.127054177
-2.071852307
-1.947994589
-1.895219287
-1.897074824
-1.801074799
-1.715502583
-1.681189746
-1.648687144
-1.54514526
-1.498079441
-1.491209858
-1.431454843
-1.338291605
-1.325295106
-1.278680083
-1.18727426
-1.180288639
-1.111897232
-1.058336266
-1.049513404
-0.9551636539
-0.943113388
-0.8950138705
-0.8450637228
-0.8254516095
-0.7732305558
-0.7530551648
-0.7169141459
-0.7013252231
-0.6736521435
-0.6649933836
-0.6431056065
-0.6401301123
-0.6803557021
-0.9160156346
-1.291185625
)


100
(
52.69341961
-76.93381164
-46.29693845
-31.52809099
-30.68350023
-24.30948972
-21.40957815
-18.83702662
-17.42736876
-15.05460165
-15.0413977
-12.91836163
-12.39400025
-11.97977595
-10.58718632
-10.10802995
-9.964576274
-9.04968685
-8.369118349
-8.366610506
-7.897850637
-7.372382591
-7.095476741
-6.976902754
-6.621194657
-6.305865123
-6.191245195
-6.027910026
-5.722346009
-5.44978781
-5.293574092
-5.169175278
-5.003959625
-4.853197213
-4.745305506
-4.672730148
-4.460804945
-4.283874136
-4.110571172
-3.989646092
-3.856502746
-3.7409146
-3.632336579
-3.506497444
-3.428665495
-3.360128359
-3.297431537
-3.232067336
-3.107538544
-3.017785061
-2.934801618
-2.844303698
-2.711804513
-2.654050989
-2.606593501
-2.548352565
-2.443126869
-2.417962113
-2.394970255
-2.354894134
-2.266257294
-2.243330363
-2.16930851
-2.094912239
-2.059985809
-2.030266426
-1.946310288
-1.865299018
-1.853374968
-1.791474619
-1.711809164
-1.653906315
-1.626252168
-1.553974082
-1.490824192
-1.480451512
-1.45070761
-1.378589024
-1.344056511
-1.299148484
-1.249276605
-1.233107111
-1.158558307
-1.161623579
-1.119114125
-1.062021098
-1.053746038
-1.007112803
-0.9768559981
-0.955070128
-0.9248612102
-0.8986838649
-0.8740687851
-0.8575577929
-0.8353517481
-0.8184697059
-0.7759467163
-0.6896516089
-0.8576308187
-8.054189378
)


100
(
-67.34099369
-63.19376568
-39.23080921
-34.39800435
-30.14806867
-21.82182065
-22.35491553
-17.12036569
-17.18574692
-14.65646336
-13.76888471
-12.94520533
-11.35645493
-11.23469799
-10.6059054
-9.519489506
-9.209898036
-9.042586082
-8.28121499
-7.654493789
-7.648533622
-7.296578477
-6.825788676
-6.477431393
-6.47642039
-6.142046908
-5.853007043
-5.641873106
-5.647999017
-5.35572717
-5.098911853
-4.860614778
-4.823170627
-4.664918242
-4.520808495
-4.388337376
-4.32912166
-4.23912942
-4.065251061
-3.905334449
-3.761946989
-3.66825316
-3.570544764
-3.474353036
-3.386236244
-3.277809702
-3.222004462
-3.166742627
-3.112402978
-2.996637379
-2.962096476
-2.889746748
-2.810115571
-2.682551727
-2.635696041
-2.602228035
-2.535780175
-2.395181538
-2.350248774
-2.339927782
-2.261153273
-2.20873797
-2.208219949
-2.116559181
-2.035355617
-2.040623166
-2.032664505
-1.914421098
-1.867058741
-1.860514021
-1.82256742
-1.751310617
-1.741084624
-1.71049516
-1.619918462
-1.575165213
-1.605077727
-1.549903015
-1.48847584
-1.505841821
-1.44211568
-1.428650321
-1.400736989
-1.339444774
-1.374466268
-1.314933874
-1.29982318
-1.309915593
-1.265837403
-1.267655538
-1.246413311
-1.242572673
-1.210225541
-1.201512959
-1.182483567
-1.156103822
-0.9969815287
-0.7399564758
0.8986455107
1.373561801
)


100
(
-113.6553948
-74.49834054
-44.53933261
-38.37326084
-26.60748981
-22.99484253
-20.41668465
-18.06870553
-15.99113705
-15.31539311
-12.9253344
-12.73167969
-11.64185298
-10.55639674
-10.46076094
-9.7876754
-8.884348665
-8.621505888
-8.499897112
-7.83210663
-7.264861223
-7.175339565
-6.946786229
-6.512915165
-6.127325579
-6.073859825
-5.876663632
-5.605006263
-5.359221768
-5.295231774
-5.178103464
-4.930247449
-4.704124565
-4.533279862
-4.50523043
-4.382744116
-4.265648004
-4.097931825
-4.107643184
-4.032446515
-3.886731959
-3.727869938
-3.596203702
-3.602157974
-3.522265362
-3.388107373
-3.175097223
-3.186334237
-3.178513117
-3.072680142
-2.895806453
-2.884001496
-2.907934345
-2.79389019
-2.630293469
-2.584011823
-2.642166947
-2.512678322
-2.34920977
-2.28540489
-2.305376858
-2.20792859
-2.157370099
-2.147515523
-2.10367753
-2.044019265
-2.04406173
-2.035848749
-1.973721656
-1.939750688
-1.920315821
-1.905196279
-1.864895515
-1.869712634
-1.858447279
-1.771274375
-1.712435378
-1.745068967
-1.703066321
-1.64485975
-1.651700155
-1.601996283
-1.610499937
-1.575237822
-1.560291673
-1.553873406
-1.50870517
-1.507307083
-1.503426163
-1.496750756
-1.474553599
-1.44760844
-1.444034764
-1.400392209
-1.37850132
-1.326857682
-0.9727685096
-0.002093167894
0.2236541348
-1.915013645
)


100
(
-117.8607297
-85.44632164
-49.97375634
-33.93737939
-24.99487483
-24.92020103
-19.12750578
-19.20910282
-15.65030643
-15.0791717
-13.6593614
-12.21404744
-12.08520937
-10.83957458
-10.06175809
-9.969374228
-9.310390509
-8.524038964
-8.259938084
-8.217498425
-7.599852529
-7.073405732
-6.886560092
-6.787098526
-6.376507621
-6.014637795
-5.836967875
-5.770559651
-5.533220677
-5.31818032
-5.139676863
-5.150527195
-4.969094871
-4.756340964
-4.481953477
-4.492884638
-4.453242025
-4.338566065
-4.014849162
-4.014354226
-4.030143431
-3.972198786
-3.709775168
-3.556456442
-3.568485389
-3.628645523
-3.365232441
-3.101515362
-3.122306668
-3.204511327
-3.029495865
-2.837661909
-2.807090809
-2.85081656
-2.736612703
-2.576617468
-2.544292292
-2.588434397
-2.516349903
-2.391924613
-2.336831149
-2.335035494
-2.282567528
-2.239861134
-2.201998999
-2.159977793
-2.130146634
-2.121041602
-2.097640708
-2.078708846
-2.038008537
-2.017242792
-1.985586413
-1.966797176
-1.973012163
-1.981330262
-1.89406311
-1.869173625
-1.876149426
-1.826938975
-1.822912297
-1.80111012
-1.742000312
-1.749218155
-1.738699013
-1.732207028
-1.717565894
-1.691626568
-1.663864678
-1.650992458
-1.657584739
-1.622450956
-1.594926439
-1.578930335
-1.523991417
-1.419327334
-0.8947388869
0.7756776521
-1.468497483
-4.041740374
)


100
(
-108.7055636
-70.95422001
-44.19378671
-30.71940837
-27.35917222
-23.66093683
-20.09944237
-18.39348163
-16.92537457
-14.62827558
-14.55006
-12.66244274
-11.80379796
-11.51274287
-10.38730297
-9.777361328
-9.69517554
-9.087297501
-8.378084798
-8.07297938
-8.04091965
-7.540803786
-7.042934668
-6.739859771
-6.716198622
-6.366765989
-6.013244806
-5.856605713
-5.868705151
-5.706304131
-5.430400409
-5.146378381
-5.155080093
-5.14133636
-4.842766627
-4.500027627
-4.49686862
-4.596511929
-4.353203534
-3.989418456
-3.965795712
-4.007156402
-3.953184487
-3.660460269
-3.509409192
-3.598581264
-3.638952846
-3.355231434
-3.097139342
-3.156518334
-3.188951639
-3.030625668
-2.85881025
-2.824328494
-2.856892642
-2.783099243
-2.686457793
-2.669853771
-2.664907371
-2.651371658
-2.594191753
-2.529078988
-2.470140159
-2.414562674
-2.386463921
-2.336738006
-2.276498396
-2.257197406
-2.218691258
-2.201683626
-2.178358961
-2.147312045
-2.114022032
-2.085395062
-2.047010677
-2.050067113
-2.082323857
-2.044128979
-2.021450428
-1.994635324
-1.980831373
-1.995192322
-1.95281523
-1.911579149
-1.899624457
-1.86902003
-1.857222783
-1.850103198
-1.843452219
-1.799324953
-1.781145342
-1.779973793
-1.743827036
-1.723896223
-1.65647526
-1.408527487
-0.6644115327
0.5504019606
-2.991880552
-4.919776601
)


100
(
-93.72115532
-60.65459044
-39.60999478
-31.51647579
-29.99992967
-22.45869393
-21.93523853
-17.77918189
-17.73445907
-15.37135236
-14.26145975
-13.70198661
-12.02696743
-11.5197049
-11.11063623
-10.13428977
-9.60776935
-9.534482612
-9.006592881
-8.3520985
-7.966056591
-7.920273946
-7.542947499
-7.053853237
-6.62871012
-6.603803588
-6.416085183
-6.073323636
-5.940041925
-5.926291116
-5.902163218
-5.404588349
-5.139832825
-5.138548924
-5.237669257
-4.800625807
-4.477600367
-4.491372269
-4.712577327
-4.355417282
-3.999135948
-3.965099629
-4.074168146
-3.94520127
-3.65468619
-3.539243688
-3.642602399
-3.654068514
-3.385664044
-3.207041316
-3.226162841
-3.258583636
-3.172432281
-3.06874975
-2.994201922
-2.940520945
-2.922932841
-2.911936789
-2.852666166
-2.797258845
-2.769305406
-2.765725616
-2.704402455
-2.619884413
-2.563481869
-2.538731542
-2.494060766
-2.466886734
-2.439606391
-2.376469899
-2.336231171
-2.314924368
-2.27574113
-2.235007969
-2.230019724
-2.189701937
-2.199829211
-2.187403052
-2.167405353
-2.160921436
-2.124891004
-2.10006884
-2.113380325
-2.08324962
-2.061255428
-2.035765222
-2.00272916
-1.9728496
-1.973311801
-1.963192138
-1.920216592
-1.90059737
-1.878626191
-1.85035318
-1.793258067
-1.404330838
-0.2757290995
-0.4177979194
-4.134675133
-7.980311466
)


100
(
-89.65449976
-55.9088322
-39.54799762
-34.82323512
-27.99389306
-23.41655347
-21.55857745
-18.96069954
-17.32466825
-16.69311106
-14.2525381
-13.82080198
-12.94866369
-11.54265022
-11.24475586
-10.79884447
-9.93833437
-9.435786559
-9.356096072
-8.913148218
-8.278407387
-7.788552702
-7.743789463
-7.527435025
-7.070486067
-6.628713222
-6.513231859
-6.318578728
-5.974674808
-5.882590153
-5.938812622
-5.933265427
-5.333078422
-5.097990535
-5.183892484
-5.214831952
-4.75312504
-4.451387956
-4.615888753
-4.689391022
-4.354172436
-4.01398358
-4.031971757
-4.062225556
-3.931487412
-3.673435279
-3.638908799
-3.691236088
-3.727259373
-3.552756741
-3.472526501
-3.395462768
-3.376062405
-3.367579706
-3.310137884
-3.191977122
-3.077034499
-3.013167423
-2.995529017
-2.95125293
-2.890363925
-2.862089347
-2.850278228
-2.838056606
-2.793279782
-2.755069386
-2.689922156
-2.619365096
-2.616099061
-2.593264106
-2.519782145
-2.469664493
-2.436060055
-2.41391901
-2.406455618
-2.361720382
-2.315056656
-2.321748769
-2.291996961
-2.263042016
-2.260392667
-2.242985722
-2.229217403
-2.214834817
-2.202567674
-2.185796338
-2.16169072
-2.12076798
-2.094472244
-2.097662445
-2.075887254
-2.038655659
-2.012224871
-1.973094681
-1.917760837
-1.411875896
0.1653488753
-1.162217293
-5.150136596
-6.525596306
)


100
(
-86.67503911
-61.84267712
-43.49612192
-34.74862143
-26.28926599
-25.38936917
-20.67471305
-20.42003362
-17.06246181
-16.62250523
-15.32147858
-13.50550219
-13.3486136
-12.3252412
-11.12505414
-10.93527221
-10.4983354
-9.702589921
-9.146689759
-9.06809447
-8.76674362
-8.191139967
-7.623513264
-7.586914538
-7.541626261
-7.097941111
-6.669130354
-6.405627128
-6.176521682
-5.851220584
-5.792033648
-6.079640685
-5.814945511
-5.241061606
-5.035308783
-5.259031485
-5.131019439
-4.683629512
-4.45546017
-4.620678695
-4.62688423
-4.332102621
-4.054203782
-4.044176907
-4.080186315
-4.002301881
-3.889952439
-3.829963754
-3.785907937
-3.804064056
-3.760948831
-3.658121231
-3.529769075
-3.419769578
-3.392258701
-3.424630015
-3.328287534
-3.218173077
-3.134173954
-3.07782343
-3.046293139
-3.015640737
-3.004713254
-2.952148598
-2.885201536
-2.868975961
-2.862990111
-2.789077287
-2.719965937
-2.70318771
-2.691523356
-2.673723841
-2.632937455
-2.545984742
-2.5069248
-2.512574972
-2.457117549
-2.425703343
-2.426507092
-2.410450871
-2.384274924
-2.360505833
-2.351743342
-2.341485477
-2.326885957
-2.31978019
-2.297375133
-2.259702445
-2.226338768
-2.210808148
-2.201944819
-2.171500751
-2.146188721
-2.098820421
-2.030292414
-1.415714597
0.5666761456
-1.547767316
-5.520058752
-7.450825834
)


100
(
-83.38324918
-64.41475268
-43.4678695
-32.01165859
-27.32335967
-25.03460025
-21.17739502
-19.78006215
-18.18221835
-16.16837752
-15.95820933
-14.25674177
-13.06069119
-12.86952139
-11.80098995
-10.70496965
-10.53672995
-10.15669765
-9.462548417
-8.875770386
-8.829568029
-8.684905726
-8.139108034
-7.600211001
-7.420020537
-7.430149158
-7.110312931
-6.693819118
-6.314487744
-6.021697416
-5.711035397
-5.784663263
-6.036386465
-5.686694148
-5.136920273
-5.07234587
-5.168541377
-5.032848279
-4.617113006
-4.523323462
-4.575233491
-4.625821655
-4.426796644
-4.290038277
-4.15902788
-4.142904936
-4.143137253
-4.082480442
-3.965811461
-3.843638468
-3.750769655
-3.774469379
-3.739454487
-3.630338622
-3.510490635
-3.453768204
-3.411434406
-3.420225524
-3.365280696
-3.299343859
-3.199626518
-3.09462734
-3.083881961
-3.093400752
-3.024953211
-2.946178133
-2.926076555
-2.916195139
-2.910033216
-2.888454222
-2.81469329
-2.73356436
-2.751143533
-2.709845938
-2.630347162
-2.59991701
-2.60169599
-2.5750749
-2.542136374
-2.518304187
-2.507743777
-2.487034156
-2.466507598
-2.457847809
-2.440749445
-2.417572525
-2.419067722
-2.389407355
-2.358115281
-2.333625877
-2.303461482
-2.274910057
-2.23921352
-2.20236177
-2.056215046
-1.338425
0.8943301798
-1.965186279
-6.509680064
-8.244690879
)


100
(
-79.53450475
-58.21381911
-40.01957949
-30.50243523
-29.4126529
-23.76642346
-22.67981848
-19.07866027
-18.9648139
-16.64897294
-15.59195954
-15.25286059
-13.48101891
-12.60442197
-12.39762693
-11.34516612
-10.34703499
-10.22772045
-9.985955597
-9.354757538
-8.693284289
-8.640118735
-8.654901095
-8.121075668
-7.609638043
-7.279260047
-7.294426968
-7.151797295
-6.748402279
-6.379868457
-5.897004472
-5.605976657
-5.920893504
-5.933582084
-5.586498877
-5.090270115
-5.08129762
-5.095889741
-5.018173995
-4.78987284
-4.691047189
-4.677050701
-4.727753638
-4.653648319
-4.497681812
-4.304893098
-4.144793344
-4.135818031
-4.174648851
-4.068965366
-3.94282072
-3.829543421
-3.764790014
-3.758262228
-3.741591225
-3.665465233
-3.605864432
-3.495788331
-3.415901602
-3.430387135
-3.412090464
-3.299147261
-3.180362754
-3.141336221
-3.151221651
-3.138288445
-3.103271329
-3.038833033
-2.953772484
-2.994228593
-2.986717451
-2.891502589
-2.827084789
-2.819790191
-2.804261392
-2.75239414
-2.711021961
-2.693915784
-2.676178283
-2.650198577
-2.627231303
-2.611759422
-2.579850847
-2.55090754
-2.544183278
-2.520787183
-2.513286022
-2.502631527
-2.479585385
-2.448787807
-2.415291237
-2.38495806
-2.330755081
-2.289413358
-2.008204464
-1.083804137
0.777410047
-2.713532523
-6.329926674
-7.219405531
)


100
(
-75.26327622
-52.82192091
-37.04693307
-32.68307929
-28.81375217
-23.91768453
-22.68829238
-20.02991877
-18.54044127
-17.82727115
-15.60751025
-15.11337143
-14.45432794
-12.91132114
-12.22420383
-12.092089
-11.14304001
-10.21714699
-10.05636438
-9.948498914
-9.335575191
-8.723998182
-8.534392502
-8.556893292
-8.191041964
-7.701916558
-7.257321153
-7.225556696
-7.230838849
-6.874088732
-6.515991948
-5.913666323
-5.71701845
-5.891873642
-5.883385436
-5.578547489
-5.328346883
-5.189906251
-5.231831328
-5.210918927
-5.099637038
-4.924006545
-4.748424485
-4.705631143
-4.747434027
-4.657691899
-4.473237741
-4.291258642
-4.189325669
-4.185384286
-4.188493639
-4.106470777
-4.0238539
-3.928080192
-3.802427291
-3.793550619
-3.826720968
-3.755691033
-3.62269765
-3.50180103
-3.455416808
-3.481600052
-3.452700904
-3.387072665
-3.309241533
-3.224135749
-3.242352045
-3.242165244
-3.126672555
-3.038356801
-3.058331249
-3.069439265
-3.023028988
-2.993736083
-2.968548027
-2.947075917
-2.894468068
-2.844060708
-2.81700161
-2.791446579
-2.757639111
-2.739151724
-2.717220073
-2.681990171
-2.653941571
-2.633305042
-2.625646039
-2.611028266
-2.579098249
-2.55430133
-2.517482617
-2.484530275
-2.438283853
-2.368086531
-1.970820486
-0.5608381546
-0.0863937615
-3.077211193
-6.839337694
-7.974438378
)


100
(
-70.98047229
-50.9004455
-38.79900419
-34.90157288
-27.40429278
-25.67776837
-22.10222676
-21.57814095
-18.46404574
-18.00123504
-16.77424196
-14.92595425
-14.70428561
-13.92033465
-12.58025545
-12.04402678
-11.98423173
-11.11175022
-10.22885166
-9.984633506
-10.0367487
-9.424435435
-8.843465896
-8.515240569
-8.534555204
-8.353726511
-7.876198601
-7.456425288
-7.22307669
-7.223494909
-7.073743471
-6.719404492
-6.104775263
-5.940554247
-6.001134178
-6.06631072
-5.904353445
-5.727483023
-5.457837261
-5.317478433
-5.344841902
-5.293003589
-5.113424743
-4.926294973
-4.772370591
-4.779606254
-4.79548937
-4.676195375
-4.507497786
-4.414164494
-4.305885772
-4.283123679
-4.308608305
-4.272140442
-4.130773785
-3.960355489
-3.835722749
-3.89938082
-3.89493316
-3.798257998
-3.724251895
-3.638734643
-3.593847878
-3.625925793
-3.613121276
-3.46643023
-3.329046246
-3.321876096
-3.340584903
-3.258146024
-3.228136225
-3.207499934
-3.192915511
-3.172783551
-3.143395755
-3.114254191
-3.077657964
-3.032301064
-2.986025667
-2.957683938
-2.922114407
-2.889302783
-2.860161224
-2.830682502
-2.812766809
-2.787099718
-2.742199851
-2.73836234
-2.707286663
-2.695390176
-2.665292595
-2.631637046
-2.588073414
-2.501811622
-1.957111666
0.2266170889
-0.6676948579
-3.87129076
-7.384356895
-8.410964509
)


100
(
-68.06148332
-53.75959207
-41.35775505
-32.99037131
-27.68480692
-26.31953497
-22.47593608
-21.39624044
-19.83335685
-17.82360999
-17.56310182
-15.98485045
-14.64348061
-14.42512913
-13.6359426
-12.39980568
-11.92283231
-11.9179854
-11.13553484
-10.31589056
-9.973318392
-10.0209782
-9.561192431
-9.008329358
-8.5218841
-8.537261984
-8.519789187
-8.085662806
-7.684018328
-7.33534185
-7.237529135
-7.211961387
-6.944836259
-6.577924851
-6.405273682
-6.230859105
-6.212861868
-6.194425279
-5.961500924
-5.689806567
-5.439068261
-5.391928751
-5.456142068
-5.317925758
-5.136438715
-4.982160715
-4.874272129
-4.851435704
-4.86504506
-4.792750487
-4.698813558
-4.5206508
-4.353544478
-4.375587062
-4.459067636
-4.321895947
-4.155529818
-4.038833674
-3.997748004
-4.033511928
-4.0711302
-4.015790875
-3.838825275
-3.680838933
-3.729750612
-3.74137099
-3.615383802
-3.529202881
-3.491372808
-3.474803694
-3.442350735
-3.38952558
-3.34193361
-3.322303816
-3.300143555
-3.27192859
-3.242343652
-3.212145701
-3.171645325
-3.128137837
-3.0873419
-3.066184467
-3.03726426
-3.001912579
-2.958283254
-2.931082939
-2.907193532
-2.884745126
-2.871144695
-2.845691588
-2.828309036
-2.801659304
-2.752439841
-2.619063268
-1.956375679
0.7981265629
-1.021219724
-4.386910906
-8.088678897
-9.365475359
)


100
(
-65.7746717
-53.72780946
-39.7416722
-31.36611575
-29.48588914
-25.3932853
-23.96456812
-20.94220275
-20.79424414
-18.58807394
-17.3868404
-17.12023064
-15.41746273
-14.35450769
-14.18626394
-13.4183862
-12.2770109
-11.7760235
-11.82064981
-11.16733099
-10.40218572
-9.926088466
-9.969280697
-9.681174603
-9.154554402
-8.704738977
-8.509446417
-8.486392258
-8.287919634
-7.885043267
-7.561610479
-7.243676205
-7.227506368
-7.216395776
-6.948847394
-6.669365417
-6.345283565
-6.215314748
-6.26440285
-6.176492217
-5.905345387
-5.656292183
-5.483993043
-5.47238093
-5.462575818
-5.341867272
-5.225338314
-5.125848723
-4.942570462
-4.914377603
-4.946987964
-4.869493237
-4.683026746
-4.503610088
-4.437837924
-4.482895703
-4.505024693
-4.396275209
-4.34177812
-4.195564111
-4.128497954
-4.188528824
-4.151177294
-3.970633075
-3.83261091
-3.813409329
-3.816240351
-3.789674163
-3.733963481
-3.681030145
-3.651675051
-3.618351645
-3.553147895
-3.494737053
-3.455747356
-3.427657048
-3.401847963
-3.380212566
-3.355830753
-3.318436645
-3.2654053
-3.220982103
-3.19577122
-3.17427569
-3.14429731
-3.085623824
-3.050760981
-3.032212377
-3.023245441
-3.00851445
-2.961376203
-2.923825115
-2.894970841
-2.737413326
-2.011012563
1.058806044
-1.052301104
-4.221598612
-8.234221306
-9.043050427
)


100
(
-63.64052914
-50.49533184
-37.49836238
-31.92038209
-29.86543531
-25.04867817
-24.24671915
-21.66991167
-20.36824902
-19.76409428
-17.5533915
-16.86581186
-16.41353774
-14.90841466
-14.03236253
-13.93584466
-13.2234211
-12.16517963
-11.61886159
-11.67328027
-11.18037527
-10.45989181
-9.834844477
-9.862987064
-9.811453273
-9.262849186
-8.839077617
-8.438002706
-8.404135226
-8.379172658
-8.070223102
-7.757428041
-7.377953789
-7.179562829
-7.184965093
-7.154312951
-6.850122714
-6.539593269
-6.245213681
-6.242175769
-6.269598267
-6.094553919
-5.845099418
-5.691572049
-5.547271824
-5.508989438
-5.526851445
-5.447085104
-5.294743117
-5.086764085
-4.903351027
-4.962755119
-4.992600423
-4.819960279
-4.66290454
-4.633300297
-4.56807515
-4.606192549
-4.62871653
-4.487691031
-4.295109147
-4.149377755
-4.23116667
-4.240462213
-4.110403645
-4.050783026
-4.001413351
-3.967953014
-3.933078746
-3.879735231
-3.825983752
-3.776215463
-3.751246573
-3.696198002
-3.64691346
-3.610199
-3.572634933
-3.538994213
-3.490911486
-3.449647637
-3.445453744
-3.412082166
-3.394761671
-3.321271967
-3.270437419
-3.243060797
-3.207054982
-3.179250207
-3.137610866
-3.135399691
-3.118505915
-3.052582953
-3.021511074
-2.854863812
-2.218458138
1.113062461
-0.8148008274
-3.890175332
-8.412296963
-9.488031543
)


100
(
-61.32140766
-47.19101234
-36.41650052
-33.44271036
-28.46847337
-26.29858132
-23.53053557
-22.84454964
-20.1117542
-19.63016089
-18.57523869
-16.65574524
-16.34231054
-15.83009882
-14.46007973
-13.6939663
-13.65079201
-13.01682609
-12.06882937
-11.43915105
-11.49013961
-11.18123556
-10.49732991
-9.950870665
-9.721631197
-9.679571871
-9.342587163
-8.938935481
-8.606522046
-8.323507492
-8.290406708
-8.241696607
-7.893940396
-7.517336458
-7.129473584
-7.12729977
-7.221025664
-7.015902908
-6.705742963
-6.4361201
-6.227513025
-6.21224901
-6.224373099
-6.090703659
-5.971145322
-5.762849151
-5.497256548
-5.492293445
-5.587727632
-5.424765425
-5.220986227
-5.041038543
-4.962484507
-4.990737224
-5.011802651
-4.937292318
-4.825099771
-4.628220889
-4.588835259
-4.677118394
-4.567764038
-4.382868412
-4.297670806
-4.283515144
-4.273513331
-4.263359565
-4.214047446
-4.151124008
-4.117261833
-4.078763694
-4.011054676
-3.939385124
-3.89064681
-3.849660608
-3.799840686
-3.747289009
-3.74446279
-3.718948109
-3.687177996
-3.627393248
-3.577293537
-3.521849901
-3.516592564
-3.514304188
-3.447580135
-3.398763267
-3.35492173
-3.326655809
-3.297241224
-3.248631036
-3.258061278
-3.217598854
-3.159001557
-2.922972557
-2.027061913
1.081095121
-0.6748841848
-4.14829491
-8.922620299
-9.852779721
)


100
(
-58.91073793
-47.12362876
-37.68641236
-32.9195865
-27.6700776
-26.96440435
-23.41076032
-22.5156405
-21.10950918
-19.20333474
-18.92140613
-17.68334538
-16.08260524
-15.90351184
-15.37961164
-14.13121069
-13.37268488
-13.37888758
-12.88281585
-12.01729996
-11.27633414
-11.30619261
-11.258594
-10.5512645
-10.03886739
-9.57836239
-9.535072793
-9.513272356
-9.097540935
-8.757683252
-8.267540671
-8.183873276
-8.22001384
-8.041860018
-7.657790629
-7.299944477
-7.069839385
-7.157901104
-7.146889329
-6.877653451
-6.618888989
-6.465590954
-6.253594488
-6.271687397
-6.286647732
-6.180389962
-5.921363908
-5.656221107
-5.485919809
-5.577909991
-5.564363948
-5.359758429
-5.270933524
-5.166396815
-5.078263237
-5.071976241
-5.118509848
-4.923113614
-4.721507953
-4.621133091
-4.658486446
-4.65757576
-4.530865146
-4.480037589
-4.425089929
-4.392218259
-4.358620488
-4.302330673
-4.236726039
-4.177297728
-4.15212285
-4.139148002
-4.085997971
-4.042793211
-3.99448325
-3.927895255
-3.861178099
-3.808453058
-3.790638793
-3.802340196
-3.767092175
-3.703391165
-3.623752877
-3.598933325
-3.597517521
-3.594896653
-3.537603337
-3.471020028
-3.427457632
-3.398587058
-3.355593332
-3.347121465
-3.296187943
-3.036739737
-2.043301876
0.7232090968
-0.4955648426
-4.495321185
-9.129497848
-9.461355938
)


100
(
-57.33806865
-48.25925839
-38.10011165
-31.40358168
-28.73851696
-26.0676756
-24.46517116
-21.96814464
-21.73556994
-19.88062149
-18.65981167
-18.46186412
-17.01524297
-15.68756716
-15.56170348
-15.05735998
-13.91473916
-13.13976628
-13.14717542
-12.8279264
-12.02055987
-11.38313761
-11.14933648
-11.09039882
-10.63654328
-10.15674253
-9.756819147
-9.475269465
-9.421943658
-9.249247645
-8.88831206
-8.451176345
-8.10293328
-8.153245316
-8.214504035
-7.820168453
-7.473612389
-7.223171701
-7.110461757
-7.092659623
-7.123089586
-6.927252239
-6.74192395
-6.424130859
-6.231376281
-6.290704062
-6.393841611
-6.09752549
-5.837588148
-5.65966427
-5.578748237
-5.644668179
-5.686495446
-5.597266409
-5.353312421
-5.0920761
-5.119102843
-5.191456168
-5.032131883
-4.850665944
-4.787857981
-4.75062848
-4.712440987
-4.658584372
-4.622940743
-4.559722332
-4.528598818
-4.484324919
-4.411490897
-4.345952521
-4.300673019
-4.260932892
-4.216334908
-4.165963803
-4.126040341
-4.121102596
-4.06117578
-4.000402346
-3.959239557
-3.923485394
-3.851578662
-3.838048847
-3.797350865
-3.740224332
-3.707193131
-3.676793037
-3.657094188
-3.629066331
-3.581734003
-3.558812903
-3.514676534
-3.485903056
-3.439116594
-3.151353897
-1.808192714
-0.6454333957
-0.05674983348
-5.026867043
-9.511929359
-9.513628944
)


100
(
-55.78200065
-46.63764347
-36.43560925
-30.84621991
-29.62646481
-25.292522
-24.76113587
-22.49518339
-21.32402108
-20.87057018
-18.94620124
-18.12007611
-17.94993451
-16.46275387
-15.31781417
-15.25732448
-14.79768258
-13.79084356
-12.94522728
-12.95328917
-12.89411796
-12.07014449
-11.48045035
-11.01178832
-10.94639409
-10.87489845
-10.37493425
-9.92968905
-9.375084683
-9.32110833
-9.427653537
-9.051245824
-8.631694789
-8.217822851
-8.104034804
-8.148268127
-8.04024478
-7.662943768
-7.459792549
-7.275448891
-7.166667699
-7.143180688
-7.1671765
-6.909133544
-6.602888923
-6.298934875
-6.308093174
-6.369174147
-6.306885721
-6.062007547
-5.997381704
-5.823284491
-5.747217758
-5.799965237
-5.775906403
-5.504078938
-5.243174655
-5.18164662
-5.20011386
-5.192384454
-5.08901588
-5.014477031
-4.952180847
-4.905522719
-4.851907732
-4.779576011
-4.692295727
-4.61272077
-4.549973654
-4.539384524
-4.500557099
-4.458446415
-4.415802918
-4.365571247
-4.311055748
-4.248723579
-4.19014792
-4.140365303
-4.154022698
-4.143727653
-4.073514286
-3.996654015
-3.944054742
-3.941786055
-3.931173238
-3.86238433
-3.818543847
-3.791329005
-3.767283514
-3.721879012
-3.712206608
-3.666128605
-3.625933344
-3.275667621
-1.755077336
-2.26235187
0.5113053908
-5.368269514
-9.703963553
-9.593539367
)


100
(
-54.54575325
-44.66355306
-34.99536414
-31.6928482
-28.55273593
-26.15466366
-24.21409027
-23.45019292
-21.2043983
-20.64423182
-19.88744073
-18.15604514
-17.62037098
-17.40906407
-16.07034712
-14.97903809
-14.97655799
-14.63491491
-13.7286274
-12.99591428
-12.78039011
-12.71110578
-12.1416209
-11.59299084
-11.10992253
-10.90339516
-10.82736668
-10.53268139
-10.08917163
-9.560655552
-9.262931812
-9.361170373
-9.271661496
-8.820334471
-8.446294137
-8.153295202
-8.090380734
-8.085326404
-7.97951488
-7.802546686
-7.538580209
-7.166361014
-7.101537951
-7.202912913
-7.097358868
-6.785234044
-6.518329798
-6.376294413
-6.397925475
-6.474657988
-6.467508598
-6.290728815
-5.982110716
-5.737356396
-5.877007118
-5.908415699
-5.661615602
-5.485000003
-5.414470592
-5.366309628
-5.3050774
-5.229052948
-5.198554278
-5.164215642
-5.117797587
-5.051677887
-4.956716627
-4.883029271
-4.819133564
-4.758843363
-4.697694444
-4.64190809
-4.554349272
-4.543504658
-4.539325296
-4.484231184
-4.429590534
-4.383332047
-4.290249581
-4.224701467
-4.263591162
-4.219408021
-4.169236422
-4.141112174
-4.09961127
-4.079975373
-4.050917723
-4.011839619
-3.978930402
-3.94084135
-3.917414469
-3.892964972
-3.845411694
-3.509849618
-1.503498259
-3.447494016
0.9997162458
-5.643420999
-10.24631496
-10.40080957
)


100
(
-53.10603624
-43.50503059
-35.42014683
-32.09962676
-27.71727347
-26.97558153
-23.87896204
-23.17586678
-22.04474079
-20.24723638
-20.01220777
-19.10894828
-17.56053173
-17.22407171
-16.98364097
-15.7728568
-14.74573888
-14.70524511
-14.60441614
-13.70624111
-13.05045705
-12.6066738
-12.52850703
-12.31437022
-11.79886327
-11.29553733
-10.77533979
-10.72808723
-10.78204051
-10.25743009
-9.763466372
-9.277818751
-9.289906863
-9.320916286
-9.028934503
-8.654764821
-8.434962095
-8.144623012
-8.155781002
-8.144938463
-8.022009827
-7.727146339
-7.396665042
-7.0935911
-7.195036121
-7.206461254
-6.975530379
-6.80904242
-6.782400264
-6.54056184
-6.521947013
-6.610771994
-6.420717733
-6.12641635
-5.882519386
-5.911137326
-5.927627647
-5.903604149
-5.797963947
-5.694544253
-5.612618605
-5.550869751
-5.482771454
-5.402087964
-5.299853801
-5.200178049
-5.126929714
-5.118678202
-5.109963201
-5.047274857
-4.989833212
-4.931192615
-4.869412811
-4.778121061
-4.703906958
-4.657140051
-4.62658684
-4.639544837
-4.568116434
-4.460032901
-4.415184031
-4.384065035
-4.392962491
-4.365097839
-4.290688339
-4.262989788
-4.238129621
-4.218523716
-4.194745806
-4.165544128
-4.124956724
-4.12623284
-4.0736654
-3.813914524
-1.401705343
-4.499803817
1.359252535
-5.524472233
-10.21288004
-10.10407253
)


100
(
-51.78063272
-43.84001469
-35.9947913
-30.92879239
-28.11975916
-26.19764832
-24.57881443
-22.71838962
-22.36622796
-20.98056124
-19.72509141
-19.50839853
-18.45218402
-17.09493138
-16.83519667
-16.64035786
-15.54694899
-14.68664333
-14.44947006
-14.3770064
-13.70409249
-13.10204468
-12.51094604
-12.42581871
-12.36131561
-11.91683076
-11.41816904
-10.79503361
-10.6310274
-10.74008197
-10.44862834
-9.951176345
-9.55182632
-9.213046661
-9.231378667
-9.213986797
-8.97502101
-8.786739143
-8.440543875
-8.094657314
-8.120053197
-8.259545179
-7.912541004
-7.595212558
-7.340067975
-7.187528298