/*--------------------------------*- C++ -*----------------------------------*\
| =========                 |                                                 |
| \\      /  F ield         | OpenFOAM: The Open Source CFD Toolbox           |
|  \\    /   O peration     | Version:  2.3.1                                 |
|   \\  /    A nd           | Web:      www.OpenFOAM.org                      |
|    \\/     M anipulation  |                                                 |
\*---------------------------------------------------------------------------*/
FoamFile
{
    version     2.0;
    format      ascii;
    class       dictionary;
    location    "constant";
    object      PM12;
}
// * * * * * * * * * * * * * * * * * * * * * * * * * * * * * * * * * * * * * //

PM12_table
100
(

100
(
10.53704014
-12.55812841
-8.730970682
-6.038124294
-5.90373171
-5.719814247
-3.899563135
-4.561460215
-3.678045078
-3.604918574
-3.974498918
-2.899025648
-3.152956905
-3.061432557
-2.372871496
-2.548302242
-2.747243267
-1.860642874
-2.014370951
-2.277811996
-1.75690895
-1.591795856
-1.76406739
-1.7936536
-1.280825428
-1.409003807
-1.579054215
-1.496510033
-1.030582387
-1.135250259
-1.284882371
-1.175809929
-0.9079062163
-1.012498264
-1.137172315
-1.137901359
-0.8031416674
-0.6970789992
-0.7973186761
-0.8132880331
-0.607627577
-0.4897055005
-0.5738159101
-0.5998556782
-0.4864922677
-0.3928308805
-0.4669990874
-0.5485488277
-0.3885081248
-0.2362173201
-0.2081353452
-0.2493487561
-0.167156835
-0.08715585965
-0.07206627654
-0.09408053843
-0.06654777726
-0.04030709183
-0.0543952364
-0.07021173015
-0.03687872671
0.06971388038
0.08514883101
0.05309144088
0.0803447952
0.1872665686
0.1944785527
0.1704991683
0.2394574424
0.3036978062
0.3020114693
0.3068165156
0.3981668578
0.4080160487
0.3972539105
0.4312066048
0.4989949103
0.4919921621
0.5107048287
0.5773332445
0.5650928654
0.607858277
0.6318947142
0.6198591707
0.6896975919
0.6779698737
0.6989900548
0.7187810737
0.7166632162
0.736332417
0.7317854216
0.7374715289
0.7294462209
0.7260780053
0.7117033565
0.702026468
0.6824242264
0.6408851654
0.09929934869
-0.9261685625
)


100
(
5.896926486
-9.445280708
-7.208717513
-5.302977007
-6.03404923
-4.824063562
-4.4226631
-3.947860348
-3.76505233
-3.091504147
-3.389690558
-2.644780623
-2.628781222
-2.65361086
-2.135998701
-2.065541428
-2.169099922
-1.814001471
-1.559802624
-1.703290727
-1.547006132
-1.334620769
-1.271577832
-1.307470663
-1.167137643
-1.04083014
-1.058778871
-1.044377248
-0.9170470328
-0.8030577127
-0.7712400919
-0.7543754821
-0.6989051258
-0.6478911993
-0.6291692694
-0.6514281279
-0.5527587356
-0.4759187276
-0.3950364999
-0.3574651561
-0.3046932016
-0.2637323776
-0.2238650104
-0.163117946
-0.1466666119
-0.1366142962
-0.1288986087
-0.1154262589
-0.04899626619
-0.01532159728
0.0152819915
0.05635098884
0.142286923
0.1556924698
0.1600231399
0.1779445031
0.2473929394
0.2330278168
0.2167661926
0.2189191558
0.2769599948
0.2655600768
0.3099405656
0.350951222
0.3470215078
0.3468019061
0.4013057222
0.4519658967
0.4313230737
0.4630281619
0.5166230628
0.5437899253
0.5429791226
0.5856958082
0.618234608
0.6042227585
0.6196809231
0.6551783278
0.6655000541
0.6832597772
0.6995218467
0.7013289948
0.7330863574
0.7189676517
0.7284753095
0.754647368
0.7452047327
0.7575996217
0.7616748432
0.7611831672
0.7632063322
0.7604874624
0.7588498771
0.7526212299
0.7467331939
0.7385921897
0.7406377654
0.8741987231
0.5829345085
-18.72896992
)


100
(
-7.325495906
-7.407512918
-5.698773669
-5.987314687
-5.797334966
-3.881811629
-4.600706699
-3.121053794
-3.472401036
-2.718335083
-2.589887515
-2.438521234
-1.8602427
-1.993335377
-1.856459508
-1.445348842
-1.424591205
-1.474166339
-1.174377758
-0.9242766996
-1.033433016
-0.9274496498
-0.7319020367
-0.6009784919
-0.6978083149
-0.5540925687
-0.4312824825
-0.3568852269
-0.4444419569
-0.3183305663
-0.2067248837
-0.1018615549
-0.1465879309
-0.08272728329
-0.02651782912
0.02513835485
0.01449719915
0.02187904214
0.09855574878
0.1700643123
0.2303613759
0.2527499839
0.2857711645
0.3205004522
0.3497487993
0.3959973601
0.4043854888
0.411868949
0.419858854
0.4861391109
0.4730237243
0.4936468182
0.5213853403
0.6019246761
0.608725484
0.6035049447
0.6246780203
0.7213434673
0.7271983563
0.7028608082
0.7384074874
0.7602433211
0.7369350894
0.7892253178
0.832293869
0.795679711
0.7834967706
0.8490935369
0.8684907364
0.8491048096
0.8594299947
0.895405192
0.8793254503
0.8942266255
0.9300516621
0.9296986572
0.9173383284
0.9320163182
0.9338445081
0.9441401819
0.9452164714
0.9356247717
0.9495688461
0.9539926332
0.9264601623
0.9406945914
0.9372212691
0.9217080753
0.922045184
0.9089016057
0.9115651628
0.89835061
0.8934131534
0.8873349117
0.8877984669
0.8846038948
0.9737833933
1.328895154
3.166654573
4.252415275
)


100
(
-12.04077636
-9.175316553
-6.830030127
-6.990164302
-4.699285905
-4.19239418
-3.819347019
-3.345872284
-2.857802636
-2.8438193
-2.04941242
-2.17089814
-1.83453335
-1.452804031
-1.563023103
-1.365743602
-1.016417821
-0.9923643086
-1.041281681
-0.7734376154
-0.5422400111
-0.5824415138
-0.5353911319
-0.3523529122
-0.1863101979
-0.2304044595
-0.1706017812
-0.0518695426
0.05687932978
0.0364054857
0.05031930973
0.1583295487
0.2574258087
0.3204869988
0.2894520575
0.3380755674
0.3857749658
0.4736782076
0.4162998938
0.4232575821
0.4830308411
0.5566668264
0.6233498733
0.579499485
0.6019146477
0.6665236355
0.7982380705
0.7517880875
0.7210337836
0.7725325359
0.8928187054
0.8655785627
0.8078693266
0.8647372769
0.9727165422
0.9807040731
0.8997855298
0.97188462
1.080337063
1.100826914
1.051155939
1.101182811
1.118594056
1.104054797
1.122192368
1.146929818
1.128519677
1.11740755
1.140356123
1.145582411
1.139079616
1.132774935
1.135653593
1.12717034
1.149691372
1.148599111
1.142711508
1.177132798
1.140474086
1.147928164
1.172692484
1.144802678
1.152903135
1.154357225
1.146827034
1.139846255
1.140002711
1.142267138
1.12911243
1.127348607
1.112073078
1.116941363
1.106938995
1.101534179
1.104128285
1.113695178
1.30496684
2.096730416
0.4858801531
-3.733757321
)


100
(
-12.33947961
-10.90543554
-8.013759868
-5.839708898
-4.176460707
-4.790189617
-3.287049727
-3.68855867
-2.630214754
-2.64453749
-2.262549404
-1.816148384
-1.940720703
-1.47912263
-1.217885016
-1.307729698
-1.090739921
-0.779557391
-0.7373018054
-0.8142565648
-0.5615292148
-0.3431419026
-0.3151039926
-0.3361905533
-0.1604497805
-0.003207259597
0.04232450245
0.01979346934
0.1255159058
0.2214667335
0.291649006
0.2294446016
0.2965480725
0.3876600342
0.5374701137
0.4837621927
0.4692517164
0.5156030768
0.7189901973
0.6744874965
0.6207265365
0.6146253541
0.7761021481
0.8573338872
0.811811211
0.728320386
0.8862721152
1.055255321
1.003716758
0.8997960383
1.007285581
1.136725262
1.126013613
1.054153151
1.113986426
1.215302119
1.217960044
1.149612303
1.183944274
1.258678443
1.278163177
1.253316257
1.273973894
1.286021283
1.291580877
1.304022742
1.307069576
1.300009724
1.300435352
1.294534753
1.298205926
1.30306479
1.305772621
1.279456121
1.285363543
1.32972404
1.273806354
1.290419305
1.31828618
1.284373944
1.30377734
1.310575322
1.295816833
1.302995107
1.300196053
1.300140776
1.29281123
1.285008259
1.293729832
1.28200116
1.278553272
1.278358642
1.269650272
1.269334598
1.260271438
1.301340907
1.612633232
2.259528614
-2.696685244
-6.888852145
)


100
(
-11.44308946
-8.760276416
-6.821899073
-4.995848254
-4.865952094
-4.37098184
-3.61475878
-3.357512167
-3.085319273
-2.407498417
-2.599650665
-1.962490922
-1.741712066
-1.766079565
-1.326746817
-1.129988914
-1.214080624
-1.005700555
-0.7190349902
-0.6437706837
-0.7205852624
-0.5250993627
-0.3161944159
-0.2101764486
-0.2676916499
-0.1172823365
0.04559972387
0.08629954723
0.01924245123
0.07441151624
0.2105633682
0.3530220202
0.2951932867
0.2513470152
0.4022874946
0.6051061777
0.5598962565
0.4402811311
0.5753099274
0.81232349
0.7848200217
0.7075709221
0.6981057412
0.8885728317
0.9690073072
0.869110681
0.7992613301
0.975961123
1.142861658
1.061083054
0.9959426565
1.093089265
1.20176796
1.199800146
1.14608242
1.181070181
1.24223304
1.240199214
1.219099253
1.209064937
1.231625064
1.254956213
1.275728158
1.292979202
1.294908917
1.305054786
1.319046066
1.318761849
1.333150016
1.33841993
1.340282601
1.341808937
1.355877373
1.356687543
1.318352099
1.335890539
1.354742231
1.321607745
1.334814115
1.335407533
1.33629715
1.332299686
1.341977285
1.346989297
1.342024778
1.337683389
1.346861867
1.331479493
1.346353776
1.344401483
1.331726946
1.325806673
1.332846566
1.325955409
1.317290499
1.421487428
1.904606691
1.123690624
-5.031406562
-7.900849148
)


100
(
-10.0095752
-7.237197216
-5.863675026
-5.224570211
-5.679548267
-3.971989106
-4.288854686
-3.105618154
-3.392956665
-2.697241491
-2.455943338
-2.416110582
-1.819872271
-1.742306196
-1.689159862
-1.297659067
-1.129551984
-1.213614591
-1.035871237
-0.7661819895
-0.6336367814
-0.694613756
-0.5548736029
-0.3364310546
-0.1391937389
-0.1946633574
-0.1423969056
0.01580752638
0.03789722317
-0.01703713415
-0.06234805758
0.2271048738
0.3563726236
0.3020428285
0.1624648209
0.4303663844
0.6237513708
0.5667507819
0.352751706
0.579312874
0.818368282
0.7979496641
0.6525075549
0.7155114294
0.9089535666
0.9705171171
0.8517438627
0.8018538484
0.9718760863
1.081368471
1.039539747
0.9854679232
1.033336031
1.090748958
1.118920281
1.130232977
1.123619099
1.119462571
1.143644914
1.164863546
1.167545278
1.145193928
1.157291601
1.185807107
1.213619538
1.222295127
1.2392105
1.24313931
1.253208596
1.275046752
1.291732616
1.288596692
1.290816019
1.305852267
1.317927306
1.289878319
1.304027098
1.302202581
1.310953588
1.291375625
1.308765086
1.31145964
1.301405161
1.30253483
1.304354373
1.3148817
1.309596086
1.303237571
1.292465936
1.319515827
1.323539818
1.312781757
1.307971711
1.302018895
1.310315362
1.493813188
2.174449114
-0.7453038684
-6.672246583
-11.88266702
)


100
(
-9.47943179
-6.560736941
-5.890669981
-6.135247894
-5.105766854
-4.292951184
-4.159171777
-3.562662061
-3.219865285
-3.230626618
-2.424990969
-2.445737122
-2.233677239
-1.718078082
-1.728747425
-1.638447309
-1.284306313
-1.11430613
-1.184806473
-1.032231074
-0.7506198989
-0.5369195892
-0.595712395
-0.5492155578
-0.3527906735
-0.1444344716
-0.1453104089
-0.09071212486
0.06736609335
0.06550802931
-0.03487758572
-0.09429410272
0.2811917527
0.3927506761
0.2690847538
0.1791470249
0.4780695729
0.6605100148
0.4943830554
0.3803315447
0.5995567442
0.8315773191
0.7577265039
0.6839651937
0.7498762697
0.9223037018
0.9351748066
0.8591987512
0.7994676546
0.9061088689
0.937774165
0.9775739097
0.9708783795
0.9506693873
0.9664961129
1.019758634
1.074290389
1.090748284
1.075601006
1.085381614
1.106406142
1.12846133
1.135099784
1.12838642
1.135295098
1.146958299
1.183766906
1.212406647
1.204121313
1.1984984
1.213709671
1.243404634
1.254368922
1.257424643
1.26225127
1.282655318
1.284759764
1.270063219
1.293346081
1.297042841
1.283787972
1.293126896
1.279673028
1.297974801
1.29315811
1.292402243
1.298059495
1.302347784
1.292825414
1.298582725
1.310319338
1.30269864
1.316228302
1.304467211
1.299839363
1.591617519
2.443520073
-1.987861538
-8.018763585
-9.879450617
)


100
(
-8.994498596
-7.571549755
-6.789195191
-6.148037385
-4.587043699
-4.959109981
-3.820515434
-4.129918652
-3.082453819
-3.166698261
-2.85222655
-2.252109181
-2.377410744
-2.05885839
-1.605661299
-1.658934047
-1.548773894
-1.194279632
-0.9617060431
-1.019858213
-0.9428935591
-0.6956015469
-0.4280751643
-0.4964844279
-0.5619912865
-0.3666386112
-0.1588093348
-0.05366628937
0.02684526034
0.1783710656
0.1606592167
-0.1025640778
0.02461701748
0.3915864556
0.4863922198
0.2448381128
0.2890512671
0.5832944767
0.7218123721
0.5474454923
0.4871411058
0.6790467897
0.8544827321
0.8183633917
0.7546078034
0.7842217016
0.8586148466
0.8900192841
0.9042514722
0.8593029006
0.8508170663
0.8897589766
0.9586798535
1.012186606
1.010188714
0.963279392
0.996161483
1.044270071
1.088202386
1.114217068
1.118327301
1.128604078
1.138929094
1.175020851
1.205658861
1.195124197
1.167552401
1.186780388
1.219969977
1.242663769
1.240572959
1.238733671
1.260004715
1.293622641
1.299241801
1.292865757
1.321660629
1.330251782
1.322415161
1.33703192
1.32262169
1.339987981
1.337416508
1.331289097
1.337525034
1.339079713
1.344754693
1.344312401
1.342235468
1.347137419
1.349860157
1.357329822
1.328545849
1.349039837
1.406113836
1.727440385
2.576825282
-2.572646866
-8.242097642
-10.64907519
)


100
(
-8.569286441
-8.053437733
-6.823346688
-5.44137829
-4.908719008
-4.842840659
-3.986949826
-3.856431293
-3.519596623
-2.922814867
-3.078090051
-2.535654277
-2.171857727
-2.263267953
-1.883371551
-1.429114807
-1.464586402
-1.361378634
-1.051868856
-0.7940161851
-0.8740335544
-0.8919050383
-0.651681538
-0.3918967141
-0.3588269884
-0.4564025645
-0.3347023541
-0.1291341098
0.06272137439
0.1890727971
0.33549225
0.2361252083
-0.01016204592
0.1884456547
0.5449343031
0.5306660369
0.3929364045
0.4468673973
0.7220571202
0.7663730938
0.6825758524
0.6086958667
0.739808164
0.8007940676
0.8668151048
0.8481911117
0.8152185479
0.8405133681
0.9016630034
0.9695087082
1.01828677
0.9525856799
0.9409702432
0.9925894162
1.050157158
1.081709512
1.110094528
1.086966863
1.10572544
1.133504171
1.196582742
1.242474707
1.226880701
1.204820501
1.229166238
1.262999119
1.282805103
1.283528863
1.274273962
1.286540985
1.33243048
1.358355117
1.3333755
1.341378897
1.387974847
1.400029413
1.402221595
1.42186716
1.41094697
1.419971744
1.428607769
1.427381952
1.447073018
1.42620007
1.435672492
1.439742744
1.450805856
1.461248291
1.461132771
1.457071668
1.45811931
1.465349114
1.458396878
1.445209858
1.508318354
1.973467791
2.394155734
-3.145387969
-9.063525446
-11.00930141
)


100
(
-8.180975522
-7.135889554
-6.114019056
-5.048214109
-5.577778076
-4.411216586
-4.538196806
-3.553343406
-3.830033468
-3.10343046
-2.87170216
-2.945030979
-2.316380655
-2.055745193
-2.101739201
-1.68122281
-1.258965448
-1.323160647
-1.30038373
-1.014732993
-0.6919562842
-0.7607909614
-0.8751922171
-0.6305560233
-0.3800445498
-0.2387210919
-0.3375639788
-0.327265082
-0.1261988873
0.06198161731
0.3252786173
0.4674483668
0.1980531197
0.1205660764
0.3243771848
0.6467241084
0.5868799478
0.5199438388
0.5427531558
0.6987396994
0.7613280181
0.7443902773
0.6804482301
0.6900183574
0.7565171244
0.8606318099
0.9417427129
0.9149912298
0.8570072016
0.9072896769
0.9784099346
1.039260111
1.048661071
1.040514028
1.038814225
1.07647589
1.115532772
1.193899441
1.233749581
1.195510593
1.17233115
1.222168533
1.274842636
1.289360071
1.290722917
1.292205134
1.306520039
1.355667957
1.401529049
1.365121446
1.3432499
1.381451581
1.43339925
1.430443175
1.440742911
1.4654153
1.45631779
1.459350738
1.487203931
1.494653982
1.513485994
1.50710741
1.510684838
1.524744894
1.524464185
1.531881641
1.531743182
1.540693141
1.544840434
1.552927543
1.560454582
1.557851576
1.543553393
1.552911775
1.639500722
2.211683552
1.4966125
-4.182472854
-8.443534143
-9.443436408
)


100
(
-7.836063959
-6.332029592
-5.491518732
-5.670584356
-5.433451041
-4.482065943
-4.563338917
-3.939405781
-3.657074453
-3.631978202
-2.868313244
-2.867781136
-2.753684861
-2.159263809
-1.957329693
-2.052930094
-1.674889978
-1.273623752
-1.305834561
-1.356176949
-1.06872363
-0.7663367597
-0.739035499
-0.8581453777
-0.7134045328
-0.4712340382
-0.2437509054
-0.3111528724
-0.4008985253
-0.226401463
-0.04209817726
0.3135606107
0.4027227543
0.2173759942
0.1581265802
0.3410807186
0.487984009
0.5508789074
0.4772439835
0.4596220306
0.5218192914
0.6235878248
0.7287024788
0.7195012119
0.6391649473
0.6598707709
0.7572940692
0.8544478822
0.9015050874
0.8693142679
0.8228290606
0.8901652775
0.9455121732
1.002351403
1.085270429
1.072554071
1.017789408
1.042929079
1.116474217
1.18612118
1.184628327
1.148293831
1.171345375
1.205403251
1.254754002
1.3209855
1.287910039
1.261145793
1.31045313
1.358740324
1.378852633
1.369654317
1.394165671
1.412828177
1.399625971
1.390952395
1.422186281
1.431634564
1.458103358
1.47731906
1.466777588
1.488803332
1.496971501
1.524676948
1.511991668
1.519095935
1.526323236
1.519429135
1.518814162
1.552258982
1.547626622
1.52816093
1.506758422
1.481837038
1.775584349
2.462485333
-0.1415473847
-4.704743565
-8.778100442
-9.990225732
)


100
(
-7.368322536
-6.096086989
-5.948364746
-6.338092512
-5.039579918
-5.145294776
-4.380642958
-4.608614689
-3.652329903
-3.745871795
-3.451417216
-2.779047008
-2.872984573
-2.678631164
-2.162458284
-2.037754544
-2.169398335
-1.810678852
-1.411751546
-1.387683608
-1.542330501
-1.244226481
-0.952047205
-0.8245210646
-0.9454504734
-0.9216500128
-0.6809891576
-0.4676520297
-0.3891779112
-0.4782367033
-0.4489536658
-0.2666001495
0.1088915755
0.1913840289
0.09822128022
0.001479505698
0.08468003791
0.1665608029
0.3211395482
0.3759666106
0.2982580206
0.2970404793
0.4019152529
0.5178295273
0.6115607426
0.5553608994
0.4934680914
0.5399360688
0.6251285122
0.6888853433
0.765859529
0.7703950087
0.7437404893
0.739488155
0.8095873527
0.9077089871
0.9744879639
0.8975826735
0.8604858526
0.9122808566
0.9774430134
1.028766602
1.060105664
1.04187032
1.021383071
1.089577876
1.161498303
1.137560958
1.135785958
1.183668543
1.219344607
1.245924922
1.230709756
1.218340297
1.227637717
1.263748992
1.294680618
1.317547731
1.292207777
1.296973407
1.333821454
1.353333467
1.374375005
1.35518668
1.384904888
1.399524759
1.39991425
1.41291624
1.456634797
1.41567464
1.470004224
1.437926355
1.455207708
1.453949477
1.791832265
2.807990096
-1.077609297
-5.792280279
-9.595446939
-10.67165484
)


100
(
-6.988758511
-6.669990514
-6.606197842
-5.882277786
-5.17556849
-5.440534517
-4.575257418
-4.593703333
-4.292897951
-3.709173562
-3.874018754
-3.332043113
-2.866494896
-2.978176351
-2.772980202
-2.268861057
-2.164074392
-2.326261258
-1.999846719
-1.619260294
-1.526632665
-1.683204745
-1.481860224
-1.201050634
-0.9498492963
-1.073939893
-1.168808832
-0.9515198136
-0.749304396
-0.5818278462
-0.6012750058
-0.6713603822
-0.5245425199
-0.2914582228
-0.1971913404
-0.1125205875
-0.168931161
-0.2297065852
-0.1196151758
0.04094039738
0.1907649464
0.1733898109
0.06126512843
0.1295522995
0.2399990858
0.3287986022
0.3748267355
0.375225366
0.3393443135
0.373677238
0.4285512538
0.538673991
0.646667094
0.5880807127
0.4868664823
0.55266938
0.6483130468
0.7052612475
0.7473365862
0.7108327506
0.6819964211
0.7084719625
0.8050701869
0.8960435406
0.8408208102
0.7982735497
0.8753211472
0.9474091123
0.9708702493
0.9876913749
0.9719048106
0.9753522298
0.9770818299
1.004961815
1.033401357
1.071736561
1.079268354
1.079990049
1.073201703
1.104279006
1.147216856
1.150068888
1.140243661
1.170221562
1.20217023
1.204555424
1.217133647
1.229725296
1.220437899
1.24930644
1.223600459
1.263380281
1.298220232
1.410337092
1.792374041
2.8980363
-1.667648275
-6.65137894
-10.4870901
-11.60914448
)


100
(
-6.716449203
-6.755576653
-6.305442855
-5.478292017
-5.805312023
-5.168575926
-5.213603721
-4.445472546
-4.765408571
-4.099405413
-3.802291029
-3.940551016
-3.308102482
-2.961144067
-3.093652432
-2.87722353
-2.387281303
-2.252305435
-2.442769386
-2.177324155
-1.814128369
-1.623143086
-1.780598546
-1.696770465
-1.426531415
-1.197272829
-1.159445157
-1.252884982
-1.207579979
-1.00342025
-0.8425395449
-0.6486394583
-0.6945269365
-0.7585415435
-0.6221274938
-0.4726496824
-0.277448226
-0.2405264109
-0.3626778703
-0.3670300072
-0.2059827463
-0.05737267083
0.0356482597
-0.01550940885
-0.07723183926
-0.001828426348
0.08503614674
0.1540652175
0.3128365374
0.2829242944
0.1903054731
0.1953484915
0.3213678676
0.444013374
0.4816007531
0.3965503187
0.3478981214
0.4225979898
0.4540664298
0.5962715807
0.6149069444
0.5275743179
0.5163848476
0.6184214374
0.6938953993
0.7257989807
0.7309149915
0.7654357779
0.772406743
0.7752515658
0.7655814672
0.7537773507
0.8140614562
0.860027614
0.8959174668
0.8801054571
0.871821508
0.8845565784
0.9368100884
0.9655328633
0.9630674618
0.9551632305
0.9836777175
1.031366542
1.021771153
1.034014857
1.07581819
1.099787197
1.086215445
1.06611314
1.074373705
1.056339176
1.008811876
1.107403052
1.777738435
2.76945495
-1.750784111
-6.537093727
-10.86529003
-11.73024551
)


100
(
-6.53218136
-6.287130087
-5.8455174
-5.689136079
-5.989317781
-5.084751048
-5.37804983
-4.792439673
-4.613975254
-4.668995177
-3.884283829
-3.82419492
-3.86230344
-3.276799841
-2.998395328
-3.165113273
-2.954147792
-2.476719761
-2.293629829
-2.486324449
-2.309441904
-1.961583329
-1.652682544
-1.800144457
-1.893320391
-1.595028152
-1.381248921
-1.171977343
-1.260062582
-1.321358294
-1.146424746
-0.9734340009
-0.7576085729
-0.6826728883
-0.7747151011
-0.8285432533
-0.6563339509
-0.4699427811
-0.2850180166
-0.3659328423
-0.4701905204
-0.3882564728
-0.2419138027
-0.1650768764
-0.05709752029
-0.05081643513
-0.09218598825
-0.08022252235
0.003360311968
0.1541049133
0.2920957479
0.1653457594
0.07345887376
0.1874534817
0.2906968082
0.3246065508
0.3901998184
0.3486107208
0.2611503312
0.3330101087
0.4824305673
0.5926350326
0.4816574725
0.4404895693
0.5503807734
0.6126666251
0.6422972961
0.630426729
0.6253278626
0.6315692568
0.6498478357
0.7152343798
0.7567751444
0.7710246278
0.7629870852
0.7572044493
0.7781516517
0.8285771466
0.876668803
0.875615718
0.8498870234
0.889927117
0.9209888605
0.9229196222
0.9267914578
1.040910627
1.046858951
1.001837077
1.06751208
1.063203761
1.088928243
1.180935216
1.063493555
1.183664129
1.666333149
2.623238658
-1.387978781
-6.095482529
-11.01438178
-12.15365056
)


100
(
-6.360103738
-5.791970321
-5.651289471
-6.188664021
-5.590024236
-5.579303648
-5.133617696
-5.338326667
-4.516164525
-4.60783223
-4.40322622
-3.710257707
-3.820744567
-3.797959134
-3.23385118
-2.986095433
-3.176258578
-2.982111503
-2.544185895
-2.283117533
-2.46900571
-2.405032313
-2.06870192
-1.804590748
-1.761606962
-1.859384781
-1.717399789
-1.516843316
-1.317792995
-1.150308019
-1.210871805
-1.282380368
-1.112377577
-0.8903846037
-0.642520554
-0.7249581524
-0.8845494189
-0.7904964648
-0.6030424641
-0.4423920932
-0.336109896
-0.4054032975
-0.4652512433
-0.3724814597
-0.2888236699
-0.1530149553
0.02715897279
-0.03067315036
-0.1939869214
-0.09163615098
0.05675611616
0.1870123218
0.2012995834
0.1366882688
0.09517377505
0.1578875426
0.2468712554
0.4105769065
0.4075298903
0.2391897973
0.3027226533
0.4400153846
0.5215003725
0.5515967267
0.5873262959
0.553612482
0.5466699677
0.5535803617
0.5434656227
0.5609313577
0.6301548597
0.7011072759
0.7089571772
0.7153075737
0.7149016009
0.7607540532
0.8000863058
0.8191401407
0.8023263228
0.8115077753
0.831999438
0.9230424547
0.9211150034
0.8906941092
0.9500350583
0.9628909412
0.9936350246
1.005370952
0.9515326102
1.04117443
0.9881208328
1.077523456
1.160016843
1.255479354
1.99002776
2.422180824
-1.160521903
-6.325188762
-11.23281995
-12.12095965
)


100
(
-6.099228837
-5.86654968
-6.041338772
-6.102174574
-5.369444611
-5.878538453
-5.121748992
-5.24010343
-5.003980793
-4.407323361
-4.592304073
-4.265201437
-3.670526069
-3.835290464
-3.777891135
-3.237101539
-2.95987853
-3.174294254
-3.041483848
-2.630497309
-2.269675874
-2.438307982
-2.553293062
-2.186359137
-1.938109111
-1.713357241
-1.804688853
-1.86548715
-1.598219931
-1.426552922
-1.11200151
-1.14688349
-1.289734251
-1.253702339
-1.018312653
-0.7932298531
-0.6646832865
-0.8201004051
-0.898437662
-0.7415089985
-0.5949157466
-0.5047335236
-0.3261066415
-0.3757394172
-0.4637715871
-0.4378348264
-0.2717849147
-0.08650301156
0.01546960962
-0.1420298649
-0.1943974115
-0.04462751561
0.03321396201
0.1172120236
0.1845181376
0.1348243653
0.02599196001
0.1825000577
0.3586157642
0.4163763158
0.3130336723
0.3051131215
0.4291819193
0.4802506184
0.4840771035
0.483828331
0.4836797276
0.4927014921
0.5493109174
0.6389344801
0.6742498279
0.631578941
0.6248041121
0.6297604527
0.6712432046
0.7262123274
0.7837106341
0.8093660176
0.8122016676
0.8060269952
0.8411920022
0.8333143479
0.8828637571
0.927931208
0.9675134491
0.8702715059
0.8875974289
0.9895256507
1.0657457
0.9902710735
1.011323634
0.8835896943
0.9488463542
1.193496893
1.975126209
1.286233317
-0.8579142542
-6.67087491
-11.0711776
-11.54444996
)


100
(
-5.921323641
-6.164402849
-6.229468639
-5.718918178
-5.787766161
-5.612233293
-5.599798235
-5.045325602
-5.331234268
-4.774487666
-4.488244372
-4.706872858
-4.213495087
-3.712637188
-3.893994081
-3.823131955
-3.304504476
-2.986473055
-3.19317664
-3.156822159
-2.762452399
-2.459301808
-2.435939206
-2.540468084
-2.345624399
-2.112958467
-1.877511669
-1.725946104
-1.807872041
-1.783981106
-1.595475205
-1.320152361
-1.109973809
-1.268631848
-1.44000841
-1.185696616
-0.9688366164
-0.8178513369
-0.7892917667
-0.8573423169
-0.9208151001
-0.7765216038
-0.6913136383
-0.4558646309
-0.3385663611
-0.4621140969
-0.62905485
-0.4226738984
-0.240427883
-0.1356374578
-0.1149065347
-0.1865388706
-0.2311447362
-0.187702066
-0.01354779792
0.1930866649
0.1094321557
-0.03247941385
0.08908982635
0.2528929078
0.3105692635
0.3439444753
0.354261751
0.352937251
0.3270579384
0.341207778
0.3343042524
0.3941782247
0.4795458234
0.5320230531
0.545700927
0.5609891207
0.5629757497
0.6170369512
0.6887018048
0.663200951
0.6305578742
0.6704977863
0.7160258955
0.7788029318
0.8419585639
0.774666967
0.8066482696
0.8950047931
0.8702324004
0.8951635443
0.9619046052
0.9267233027
1.012398983
1.012928508
1.080706124
1.006844517
1.051159176
1.249319213
2.300561535
-0.9494480652
-0.1019283701
-7.232310368
-11.15514087
-11.4298578
)


100
(
-5.753295781
-5.96100901
-5.895653607
-5.615120127
-6.166527437
-5.375950906
-5.788858837
-5.32856199
-5.181293386
-5.32454334
-4.681696808
-4.556842586
-4.778260237
-4.199184562
-3.757934895
-3.968395661
-3.901934764
-3.43389498
-3.034680251
-3.233202335
-3.368993941
-2.944619786
-2.66339016
-2.457423907
-2.557385247
-2.591766123
-2.288337033
-2.06641463
-1.727387695
-1.805825152
-2.026128154
-1.811090469
-1.546069092
-1.266702213
-1.276414754
-1.433251483
-1.434343387
-1.185682738
-1.067096296
-0.9186082309
-0.8424504761
-0.9040406642
-1.034033261
-0.8881274444
-0.6588392127
-0.4202840974
-0.4882177205
-0.6192868433
-0.6299342928
-0.446731751
-0.4174419643
-0.2358476563
-0.217565927
-0.3312642161
-0.371669591
-0.1672766697
0.04316111743
0.03910754201
-0.01603251831
-0.001232759337
0.1129619309
0.1389405821
0.1534853779
0.1546099745
0.1588250816
0.1670741049
0.2599504093
0.3617068136
0.4080880573
0.3523268482
0.3363054196
0.3469547226
0.410107904
0.4805002626
0.5223772644
0.5706733226
0.5751393197
0.5959470261
0.6050828612
0.6067778289
0.6504327302
0.7041156144
0.7561530987
0.7451324008
0.7070452062
0.8064217865
0.8275210122
0.8813453358
0.7989957175
0.8983732308
0.8713970327
0.8686958127
0.9473102425
1.174843948
2.36935849
-3.004861358
0.9744428318
-7.62550415
-11.22664103
-11.33168161
)


100
(
-5.72256234
-5.686830416
-5.605988552
-5.961556453
-5.87546372
-5.776602246
-5.636713777
-5.820639781
-5.17800654
-5.274510561
-5.24036469
-4.621093714
-4.625773272
-4.810260704
-4.260799529
-3.80644175
-4.045169486
-4.036704223
-3.602497632
-3.258538265
-3.286741457
-3.410352571
-3.153781941
-2.896297143
-2.624294182
-2.547198073
-2.631330497
-2.535777424
-2.307514429
-1.978159392
-1.840875102
-2.05495412
-2.094713234
-1.792992405
-1.55007166
-1.382907832
-1.438731282
-1.520894366
-1.465509487
-1.340374214
-1.17768813
-0.8799772154
-0.9001535237
-1.120623925
-1.111615042
-0.8729900829
-0.6690844252
-0.5730046349
-0.6417345356
-0.740801307
-0.7678881654
-0.7015542043
-0.4277529521
-0.2208847881
-0.4209001588
-0.5243925944
-0.3395371532
-0.1850776597
-0.1130375113
-0.06905705828
-0.06442196334
-0.04031476997
-0.06233330598
-0.08234759505
-0.08968491383
0.009195659671
0.1221619952
0.1515331278
0.1663536339
0.1861727316
0.1846143844
0.2280988579
0.3435617831
0.3299345308
0.2809550788
0.3139699604
0.390310481
0.4228837113
0.5065963758
0.5560149809
0.4900673187
0.6204091765
0.6432889888
0.5992581007
0.6655335116
0.7234498907
0.6601022447
0.6844734393
0.7390523556
0.7269865948
0.755304688
0.8734166592
0.772453017
1.067174525
2.619469005
-4.351311239
2.065382205
-7.935017308
-11.37333427
-11.70446614
)


100
(
-5.648151053
-5.555346547
-5.798586163
-6.180489647
-5.647818663
-6.180508222
-5.56255393
-5.770984594
-5.644312691
-5.13433421
-5.370660121
-5.221086314
-4.634274237
-4.735572174
-4.884562652
-4.362442781
-3.905599584
-4.108430111
-4.255712303
-3.794344165
-3.486245091
-3.328332953
-3.444384404
-3.418532403
-3.110583836
-2.85611939
-2.565193097
-2.671501956
-2.867759663
-2.556819015
-2.249888293
-1.929956169
-2.070041696
-2.226680869
-2.064201481
-1.820384014
-1.709344766
-1.462466994
-1.539261738
-1.638552833
-1.619557204
-1.420394986
-1.163198508
-0.9208513733
-1.147042013
-1.254948905
-1.090591508
-0.9613303945
-0.9469479543
-0.7074725561
-0.7637342812
-0.9682640681
-0.8559499521
-0.5998204814
-0.380324483
-0.4633583522
-0.5076725452
-0.4636991844
-0.3838089025
-0.348923266
-0.3265292545
-0.3197607815
-0.3084553631
-0.2859769863
-0.1615448734
-0.0180394439
0.02131089144
-0.03338002485
-0.0876388419
-0.07298306259
-0.003517970508
0.08318947614
0.1058873661
0.1482807262
0.1758012335
0.1775093465
0.2551225914
0.2280992852
0.2422584304
0.329567237
0.4085092913
0.456025241
0.4146115138
0.3965380263
0.5071713936
0.4756487683
0.5682041653
0.5047386627
0.5377072173
0.5579399462
0.5880396992
0.5531908471
0.5760408746
0.8532272111
2.777182512
-5.424041118
3.106482409
-7.74766309
-11.36711928
-11.6280241
)


100
(
-5.500955685
-5.706875051
-6.042144605
-5.890924663
-5.879380116
-5.959434929
-5.942389098
-5.62492978
-5.875122148
-5.571945228
-5.279679638
-5.51441841
-5.229687756
-4.694579841
-4.826361982
-4.985341706
-4.493028729
-4.113846661
-4.161128008
-4.315782455
-3.994319499
-3.715243019
-3.416007542
-3.452538767
-3.545833372
-3.353482193
-3.098902761
-2.698351059
-2.700203568
-2.946659875
-2.825332409
-2.509165912
-2.264621121
-2.067676681
-2.214505059
-2.308940593
-2.116326103
-2.015776762
-1.780214464
-1.524274391
-1.65853335
-1.922409965
-1.652596631
-1.406732072
-1.22251975
-1.162125345
-1.273009559
-1.418474684
-1.329563147
-1.17878505
-0.8686928707
-0.7454002254
-1.04015758
-1.030147457
-0.7535278201
-0.6317514402