/*--------------------------------*- C++ -*----------------------------------*\
| =========                 |                                                 |
| \\      /  F ield         | OpenFOAM: The Open Source CFD Toolbox           |
|  \\    /   O peration     | Version:  2.3.1                                 |
|   \\  /    A nd           | Web:      www.OpenFOAM.org                      |
|    \\/     M anipulation  |                                                 |
\*---------------------------------------------------------------------------*/
FoamFile
{
    version     2.0;
    format      ascii;
    class       dictionary;
    location    "constant";
    object      PM16;
}
// * * * * * * * * * * * * * * * * * * * * * * * * * * * * * * * * * * * * * //

PM16_table
100
(

100
(
-20.57716798
10.06610891
6.82295491
5.046485584
5.106589233
5.157287592
3.578024629
4.310799556
3.517149978
3.537197335
3.905231895
2.910308254
3.189319789
3.102867974
2.454031013
2.66056482
2.867761524
1.978463942
2.165067071
2.450157738
1.91049889
1.748812733
1.947465552
1.986409757
1.431672958
1.584972143
1.779316729
1.695110368
1.178888196
1.307596215
1.483194565
1.364840844
1.060098711
1.187127262
1.335084325
1.340817293
0.9564296727
0.8357502793
0.9597929913
0.982992644
0.7405492665
0.5999282607
0.7053907682
0.7399702046
0.6042001658
0.489964689
0.5842032698
0.6870560656
0.4911623792
0.3005396317
0.2659492792
0.3198500251
0.2159478379
0.1131525483
0.093866115
0.1230184985
0.08743448729
0.05314026342
0.07187396901
0.09306992056
0.04917697986
-0.0933367475
-0.1143378191
-0.07167715223
-0.1091602086
-0.2556319374
-0.266381468
-0.2353104455
-0.3323108527
-0.4237548252
-0.4237877525
-0.4337097315
-0.5662844051
-0.5832203592
-0.5713632437
-0.6236944277
-0.727400355
-0.7223501199
-0.7543623845
-0.861025332
-0.8479784838
-0.9198519332
-0.9650379363
-0.9513953246
-1.072994322
-1.060842612
-1.1047678
-1.148087649
-1.152524392
-1.198643862
-1.199712262
-1.221102326
-1.214774764
-1.219947413
-1.1999423
-1.192616411
-1.159894101
-1.076278142
-0.1639029192
1.505890539
)


100
(
-20.80621848
7.619752236
5.701871222
4.444775543
5.250498518
4.347953275
4.079114198
3.72588029
3.61343704
3.023856078
3.339259407
2.650773694
2.655090125
2.697026358
2.204335411
2.15009535
2.268432365
1.926437999
1.669524349
1.83210113
1.681355825
1.462563927
1.400416365
1.44737465
1.302865881
1.16757652
1.191566287
1.181965046
1.046766026
0.9217081176
0.8883228677
0.8739127565
0.8142026696
0.757572879
0.7374338545
0.7667649647
0.6558299284
0.5681032907
0.4735142336
0.4305623276
0.3696560611
0.3216703508
0.2740984731
0.2004788106
0.1813209988
0.1696221313
0.1605658209
0.1441638385
0.06161521891
0.01937481305
-0.01940949088
-0.0718762909
-0.1825452611
-0.2007827883
-0.2071474402
-0.2313550615
-0.3229941335
-0.3054823601
-0.2849124397
-0.2887703923
-0.3669081984
-0.3533900717
-0.4136772034
-0.4703891848
-0.4675123593
-0.4694942517
-0.5454143393
-0.617709299
-0.5929206477
-0.6394611167
-0.717820741
-0.7603347751
-0.7637466244
-0.8287024082
-0.8804972839
-0.8637804622
-0.8899494578
-0.9478507336
-0.9684025022
-1.001062081
-1.031414757
-1.039742037
-1.096239222
-1.078274657
-1.100618461
-1.149741349
-1.140271121
-1.169101805
-1.182866345
-1.188606792
-1.20023697
-1.204601563
-1.209058933
-1.205365462
-1.202519269
-1.195098431
-1.211121773
-1.435958986
-0.9415344052
15.49092826
)


100
(
-7.841684203
5.783026497
4.453762347
4.981677464
4.998049078
3.455977701
4.218537864
2.913526209
3.313684835
2.638795362
2.542489505
2.429339659
1.867846456
2.019165656
1.902623182
1.493834996
1.483319273
1.552416992
1.248169616
0.9880572239
1.115142823
1.009119639
0.8013767069
0.6613257068
0.7735731124
0.6177493462
0.4829561272
0.401320419
0.5031084138
0.3624288242
0.2365992729
0.1171097766
0.1694890807
0.09608867654
0.03091622378
-0.02940377415
-0.01703551414
-0.02584724177
-0.1170001368
-0.2028774702
-0.2762130889
-0.3046988751
-0.3462447448
-0.3900767773
-0.4277020024
-0.4862504185
-0.4987747614
-0.5098079575
-0.5219389656
-0.6066172259
-0.5930679529
-0.6213763218
-0.6594755581
-0.764646528
-0.7769900705
-0.7737391047
-0.8049441461
-0.9333226134
-0.9452625506
-0.9174526444
-0.9673527253
-0.9996128409
-0.9731070992
-1.045492798
-1.106750823
-1.061671398
-1.050028667
-1.142757504
-1.174393224
-1.152004839
-1.170692954
-1.225111517
-1.207397846
-1.233703065
-1.292073957
-1.298164712
-1.28289506
-1.308952643
-1.318326791
-1.335975273
-1.345420148
-1.335504927
-1.362249335
-1.377879196
-1.335024298
-1.365380531
-1.363332657
-1.339835716
-1.350151467
-1.329915173
-1.337479019
-1.319551666
-1.322235303
-1.313409083
-1.319150158
-1.321825008
-1.489843583
-2.083848012
-6.912955185
-9.872087901
)


100
(
1.785714179
7.023722107
5.302273096
5.753137765
4.002253796
3.703327368
3.454492801
3.103550634
2.695543155
2.742509148
1.995816893
2.145871819
1.833371336
1.461313556
1.589725637
1.40263875
1.050524251
1.034913516
1.097519395
0.8211799758
0.5793822851
0.6279666419
0.5817831626
0.38513875
0.2046808352
0.254856925
0.1897226768
0.05793896895
-0.06380505295
-0.04107139946
-0.05708853505
-0.1805263466
-0.294961173
-0.3688784892
-0.3348435138
-0.3925550701
-0.4497581071
-0.5541448982
-0.4894251286
-0.4997151254
-0.572795697
-0.6632602718
-0.7459642818
-0.6969722626
-0.7272396069
-0.8095864729
-0.9730425595
-0.921039303
-0.8868031819
-0.9542055666
-1.106830316
-1.077742175
-1.009948638
-1.085614752
-1.226666767
-1.241914629
-1.145171484
-1.242356461
-1.388480558
-1.421721142
-1.364198688
-1.434014006
-1.462392554
-1.448474818
-1.47691912
-1.513133286
-1.492492451
-1.481632117
-1.516756693
-1.5285712
-1.523053809
-1.518343789
-1.524967107
-1.515683557
-1.551076487
-1.559082716
-1.558687316
-1.608159825
-1.563029257
-1.580242505
-1.6174414
-1.585409494
-1.598519201
-1.607733377
-1.600499208
-1.594138967
-1.602058813
-1.604724936
-1.588029206
-1.590009847
-1.575276538
-1.586124532
-1.578722848
-1.586843357
-1.598196757
-1.633678092
-2.009471628
-3.680435624
-9.132121889
-7.825939227
)


100
(
4.615685352
8.180696211
6.167236148
4.729030936
3.520955196
4.189632411
2.936374815
3.38971116
2.454604488
2.520415602
2.190383159
1.776956884
1.926417148
1.479846604
1.227432254
1.332237997
1.120329625
0.8058434218
0.768752633
0.8575453375
0.5954868706
0.3662634479
0.3390128463
0.3646539366
0.1750457065
0.003516748016
-0.04665683359
-0.02193947664
-0.1397402211
-0.2477082759
-0.3276650516
-0.2593160593
-0.3368068633
-0.4425438574
-0.6157954213
-0.557117722
-0.5425834372
-0.5990291554
-0.8374463927
-0.7895768683
-0.7294092257
-0.7254523495
-0.9196152196
-1.02027645
-0.9702026846
-0.8754872424
-1.070185952
-1.279770819
-1.22377129
-1.102291632
-1.238670829
-1.404274148
-1.397250234
-1.313667889
-1.393685371
-1.526552648
-1.53569289
-1.454455514
-1.503327039
-1.605068515
-1.636403894
-1.610582168
-1.642863406
-1.664690044
-1.677207673
-1.698072029
-1.706002552
-1.700560011
-1.703818366
-1.700063299
-1.708660407
-1.720094955
-1.728294246
-1.695656111
-1.702980459
-1.766729074
-1.699772212
-1.726487698
-1.765976225
-1.727967141
-1.75828523
-1.772358291
-1.760416265
-1.772971119
-1.771048659
-1.774539198
-1.770847393
-1.766565994
-1.783824677
-1.772934341
-1.773313946
-1.783317874
-1.781967575
-1.794745635
-1.80883697
-1.910738961
-2.534137773
-5.475525557
-7.789862099
-4.923228458
)


100
(
3.758484262
6.381875008
5.157376157
3.996647293
4.068927405
3.764368049
3.200633241
3.039729502
2.857900716
2.26317032
2.495136792
1.905381516
1.710478563
1.756361539
1.328574912
1.139939256
1.237222596
1.03279471
0.7431014488
0.6706415503
0.7580523084
0.5563343683
0.3371798798
0.2256803252
0.2899236481
0.1277788433
-0.04990719023
-0.09486884893
-0.02126027683
-0.08259526649
-0.2347959303
-0.395162058
-0.3322953297
-0.2845094417
-0.4573567292
-0.6903019499
-0.6417593476
-0.5073103609
-0.6656984804
-0.9431748487
-0.9161741699
-0.829300041
-0.8218758857
-1.050025227
-1.149506761
-1.035666559
-0.9573366365
-1.174185243
-1.380780896
-1.289469445
-1.215160588
-1.338893456
-1.478242451
-1.481589433
-1.420545102
-1.468296218
-1.548944332
-1.550357189
-1.526291191
-1.517759008
-1.550943669
-1.585734478
-1.618070652
-1.645822674
-1.655398891
-1.674418067
-1.697479695
-1.703012191
-1.725531134
-1.73693551
-1.743612584
-1.749718359
-1.772808824
-1.780322346
-1.732928523
-1.755043567
-1.780438713
-1.74001034
-1.762456318
-1.766530428
-1.769263001
-1.7666546
-1.786227662
-1.800258753
-1.799500307
-1.800737961
-1.81839113
-1.803814168
-1.827904377
-1.83648554
-1.827016427
-1.826765263
-1.850002795
-1.856017812
-1.87986946
-2.1149818
-3.114591757
-6.311813042
-6.270387291
-4.131003748
)


100
(
1.586770112
5.130404498
4.359751251
4.128835865
4.694999824
3.373699121
3.761580531
2.773034407
3.106875933
2.510480232
2.324071533
2.328518954
1.770905851
1.715493153
1.681688787
1.300286787
1.139954375
1.236841138
1.063598898
0.7918416044
0.65974309
0.7302318528
0.5876667647
0.3585839468
0.1492495849
0.2105191969
0.1549862967
-0.01726850499
-0.04155083836
0.01875451635
0.06903644297
-0.2523211824
-0.3978068197
-0.3389397574
-0.1834834603
-0.4876880214
-0.7095076141
-0.6475025295
-0.4056144812
-0.6683283145
-0.9483471977
-0.9296545991
-0.763841105
-0.8409414326
-1.072012233
-1.148723261
-1.012087458
-0.9568273158
-1.163477565
-1.299823716
-1.254788976
-1.19362708
-1.255783266
-1.330685512
-1.369613913
-1.387095453
-1.38320592
-1.382156166
-1.414705363
-1.44372564
-1.450067184
-1.426708933
-1.446415232
-1.487356687
-1.528016144
-1.544528723
-1.570293312
-1.580380641
-1.598994701
-1.631293837
-1.657853501
-1.659389886
-1.666976359
-1.690698131
-1.711945084
-1.677180478
-1.697546676
-1.695799362
-1.709158673
-1.687207736
-1.714101585
-1.720768639
-1.710430266
-1.716917659
-1.725598521
-1.74540621
-1.748506707
-1.748194791
-1.738479617
-1.778520149
-1.7960211
-1.791582827
-1.798528219
-1.808833999
-1.850319081
-2.24289143
-3.816049823
-6.268510952
-5.269052077
1.271000834
)


100
(
2.434892729
4.521398002
4.304875795
4.783709893
4.145944736
3.608737833
3.592873651
3.152052603
2.903816643
2.980762715
2.26564785
2.327265402
2.158240985
1.674554932
1.705283388
1.632544667
1.287889296
1.124640798
1.206959908
1.059999057
0.7759128407
0.5586760459
0.6255135741
0.5811005991
0.3754832774
0.1546151755
0.1568402264
0.09857722098
-0.07345649304
-0.07165254784
0.03830068414
0.1042026062
-0.3116836773
-0.4376819323
-0.3016355912
-0.2020337104
-0.5408455006
-0.7496503155
-0.5642094001
-0.436149603
-0.6902278662
-0.9613253378
-0.880934953
-0.7985042206
-0.8787372972
-1.083264042
-1.101976698
-1.014726357
-0.94749983
-1.076332633
-1.118239717
-1.168704556
-1.163968682
-1.143607579
-1.16724036
-1.236076161
-1.307078727
-1.33184741
-1.318049438
-1.333611066
-1.36188644
-1.391849886
-1.402546101
-1.397292096
-1.409349652
-1.428819601
-1.479648732
-1.519253722
-1.513918987
-1.512202461
-1.536371699
-1.580553814
-1.599700927
-1.607846057
-1.618746371
-1.649112306
-1.654788587
-1.639074585
-1.671528627
-1.679438408
-1.665360057
-1.680265202
-1.665838576
-1.692155521
-1.68947016
-1.693338658
-1.707419048
-1.72616294
-1.719389883
-1.729389949
-1.754375436
-1.757573405
-1.78792761
-1.793022972
-1.816657642
-2.393296797
-4.710073747
-6.351851124
-4.097614413
-2.320966699
)


100
(
3.558612257
5.107808656
4.880124142
4.705708874
3.666175118
4.12181155
3.249566775
3.616938001
2.742850041
2.880353227
2.642403798
2.111783501
2.2713078
1.99263601
1.567064499
1.638562626
1.544126378
1.197545874
0.9707666067
1.03868875
0.9678083945
0.7184811416
0.4445922812
0.519991535
0.5932801588
0.3892804601
0.169714884
0.05782097662
-0.02914389659
-0.1943054864
-0.1754392071
0.1126054944
-0.02714565236
-0.4334233672
-0.5411753752
-0.274319766
-0.3253856888
-0.6585665452
-0.8176044992
-0.6232905666
-0.5568085348
-0.7789914567
-0.9838284088
-0.9466869364
-0.8763706053
-0.9132823356
-1.002356036
-1.041257989
-1.059577758
-1.009888763
-1.002878726
-1.052230196
-1.137440336
-1.204243334
-1.205429247
-1.154377899
-1.197433689
-1.260104001
-1.31848416
-1.354848233
-1.363755388
-1.379159145
-1.395007644
-1.441783297
-1.482031345
-1.472904589
-1.443419464
-1.471102263
-1.516337144
-1.549118115
-1.550158338
-1.552641785
-1.585800233
-1.633963131
-1.646514679
-1.643729958
-1.684192203
-1.698968229
-1.691640203
-1.713113729
-1.698088302
-1.723566552
-1.723349173
-1.71912487
-1.728668434
-1.732342927
-1.743246174
-1.753770287
-1.762942204
-1.774604714
-1.784586029
-1.807919471
-1.787102331
-1.833643766
-1.943994931
-2.59814289
-5.642178441
-6.650514019
-3.870164031
-0.9265987289
)


100
(
3.991193497
5.321958659
4.803186804
4.084102093
3.870922598
3.95564637
3.35038007
3.323102251
3.104174028
2.618542778
2.81893705
2.355580662
2.044196736
2.168428068
1.82535675
1.396322651
1.44723958
1.357852209
1.055656839
0.80089966
0.8888114511
0.9141976421
0.6719258268
0.4062799934
0.3746663584
0.480351962
0.3544567626
0.1377130549
-0.06744322443
-0.204994623
-0.3646690293
-0.2573946921
0.01114185852
-0.2074248363
-0.6019963834
-0.5898047903
-0.4392255422
-0.5017765887
-0.8122923449
-0.8652009539
-0.7728151399
-0.6919291402
-0.843503349
-0.9168801009
-0.9955589376
-0.9776436538
-0.9426067242
-0.9745161296
-1.047665073
-1.129222899
-1.188950563
-1.116248396
-1.106231843
-1.170556108
-1.241588588
-1.282857674
-1.319993358
-1.297169985
-1.323759972
-1.362515634
-1.444109835
-1.50361821
-1.489092221
-1.466436474
-1.498697128
-1.542655088
-1.570948621
-1.574845733
-1.566582419
-1.58575763
-1.646989214
-1.68312292
-1.658658855
-1.674169399
-1.738525264
-1.758936071
-1.765647483
-1.794231142
-1.784486434
-1.799436783
-1.813331444
-1.814924673
-1.843085758
-1.821106788
-1.838074515
-1.844860429
-1.859717141
-1.878372099
-1.890322184
-1.894900189
-1.907754712
-1.928257779
-1.941868634
-1.946335151
-2.091143459
-2.997436781
-6.5669155
-6.821003313
-2.442850596
0.4182446584
)


100
(
3.735104385
4.607419372
4.208430483
3.718637363
4.331322956
3.53694379
3.769904997
3.012521433
3.336955549
2.749623845
2.588998575
2.710209345
2.15692691
1.940613625
2.01762584
1.63076396
1.230131045
1.30728909
1.296117052
1.017401294
0.6967603054
0.7718816423
0.8952950019
0.6486928507
0.393249586
0.2484663778
0.354040067
0.3456249417
0.1341805825
-0.06649404612
-0.3511972076
-0.5065066636
-0.2155826695
-0.1317237917
-0.3561241524
-0.7123964348
-0.650314249
-0.5785837287
-0.6063336057
-0.7823432343
-0.8545580183
-0.8372982178
-0.7680390345
-0.7814502176
-0.860040261
-0.9820401936
-1.07784721
-1.050952982
-0.9879903109
-1.048212762
-1.133495091
-1.20724599
-1.221198942
-1.215731747
-1.217621059
-1.264739554
-1.314887887
-1.410978808
-1.462046566
-1.422180536
-1.399961729
-1.464496256
-1.531889602
-1.553531416
-1.559311697
-1.564106809
-1.584699885
-1.648356054
-1.706245926
-1.66656595
-1.64324038
-1.693675057
-1.762491016
-1.763238123
-1.780401895
-1.816558232
-1.810849607
-1.81960777
-1.858636785
-1.871846537
-1.898681089
-1.893439771
-1.901769022
-1.923723822
-1.929738963
-1.94391622
-1.944986972
-1.959374587
-1.972960009
-1.993252423
-2.014726707
-2.028879021
-2.037567595
-2.075851992
-2.287901491
-3.466676272
-7.192452581
-6.630298479
-2.999095352
-1.822869143
)


100
(
2.984545128
3.993521789
3.698012546
4.108840815
4.13103767
3.537163341
3.72415372
3.300272754
3.13237442
3.186826328
2.551411618
2.599430477
2.541728502
2.014694196
1.850542329
1.971314156
1.623807478
1.243316247
1.2874867
1.349645396
1.069715727
0.7704448881
0.7478470178
0.8753715476
0.7322869645
0.4865264191
0.2528833395
0.3250511405
0.4218876838
0.2397741792
0.04501906502
-0.3371228384
-0.434575925
-0.2357642875
-0.1721505595
-0.3726268675
-0.5355138715
-0.6068004925
-0.528055708
-0.5103536688
-0.5811016051
-0.6958761546
-0.814626592
-0.8066629096
-0.7195240273
-0.7457169841
-0.8590697286
-0.9725577907
-1.029232992
-0.9954432789
-0.9446256957
-1.024571811
-1.09150376
-1.160647915
-1.259569785
-1.248898802
-1.18902681
-1.221619832
-1.3113671
-1.397239578
-1.39907238
-1.360881032
-1.392298401
-1.436507682
-1.499369398
-1.58214219
-1.547491292
-1.51987852
-1.582207165
-1.642885661
-1.670539281
-1.661166542
-1.693188511
-1.719799841
-1.707192809
-1.701180465
-1.745043146
-1.761703203
-1.7989332
-1.82699334
-1.818218464
-1.849181841
-1.863333464
-1.902629216
-1.891265648
-1.90565523
-1.918530865
-1.913618891
-1.918957476
-1.967300188
-1.974209242
-1.967995618
-1.966347931
-1.971552314
-2.489640122
-4.154620727
-7.267374076
-7.104837233
-2.409403867
-0.7500725457
)


100
(
2.800434011
3.753424468
3.930354255
4.500366463
3.751699439
4.00159236
3.50560413
3.812633959
3.079084
3.236519067
3.041889878
2.481196261
2.614837314
2.476197842
2.018879624
1.926503582
2.081639409
1.753429377
1.376032167
1.364614616
1.531983287
1.242843033
0.9556284266
0.8320862983
0.9614133208
0.943745391
0.7010238072
0.4838684101
0.4048162224
0.5010123753
0.4739592879
0.2835888474
-0.1164458818
-0.2055356165
-0.1058679299
-0.001601504541
-0.09201420772
-0.1818204895
-0.3516751634
-0.41316959
-0.3291919307
-0.3290028442
-0.4462556181
-0.5764212326
-0.682268052
-0.6217116251
-0.554589435
-0.6088209359
-0.7068499356
-0.781777998
-0.8710048748
-0.8783821418
-0.8505620957
-0.8482099435
-0.931207806
-1.047206256
-1.126703192
-1.041822772
-1.000853524
-1.062948335
-1.142359169
-1.204837769
-1.244581174
-1.227521544
-1.207390486
-1.291500545
-1.380624698
-1.356140037
-1.358112127
-1.416674025
-1.461793008
-1.49558896
-1.479225828
-1.466444439
-1.479904261
-1.52611008
-1.566637949
-1.59924253
-1.573273621
-1.583984595
-1.633649955
-1.660595851
-1.689911721
-1.670731103
-1.711999477
-1.735504221
-1.740008713
-1.759415415
-1.817069661
-1.772594513
-1.84923772
-1.82411878
-1.867424262
-1.906742127
-2.517580149
-5.514404848
-7.773032785
-6.936796266
-1.900807741
-0.3030762436
)


100
(
3.027849076
4.020297007
4.272506088
4.073202893
3.78331297
4.148941508
3.600247538
3.72693906
3.578082496
3.149420906
3.369813073
2.945624567
2.567243209
2.715706628
2.564513105
2.117639615
2.0438462
2.22876547
1.933129819
1.575415689
1.497107688
1.667270569
1.477060294
1.2032653
0.9555237404
1.088107546
1.192911225
0.9761445485
0.7727699015
0.6026752323
0.626668208
0.7049634019
0.5546782886
0.3095531959
0.2103646846
0.1204017318
0.1815793697
0.2481845075
0.1297717528
-0.04459991822
-0.2084988431
-0.1902723243
-0.06753883964
-0.1431850213
-0.2659327795
-0.3652051254
-0.4172388827
-0.4190216618
-0.3803514276
-0.4200957459
-0.4834776284
-0.6091468402
-0.7324479044
-0.6679647961
-0.5551191336
-0.6313935774
-0.742567508
-0.8094614274
-0.8595099406
-0.8191344469
-0.7877566308
-0.820724112
-0.9349269441
-1.042852099
-0.9828840756
-0.9360241999
-1.028520065
-1.11620287
-1.146022255
-1.168365119
-1.151403919
-1.157572513
-1.161604519
-1.197012431
-1.232265069
-1.279664104
-1.290605105
-1.294235786
-1.289439633
-1.330116155
-1.38521181
-1.392958813
-1.384167244
-1.424267199
-1.466407334
-1.473969413
-1.494048815
-1.51220834
-1.504107239
-1.544443944
-1.520780661
-1.575907638
-1.642678092
-1.823656474
-2.519658837
-6.866031055
-8.520557276
-6.896699375
-0.8891618436
1.395170043
)


100
(
3.14248577
3.990768418
3.976648397
3.710455159
4.168113971
3.853168449
4.042343347
3.534710132
3.911136858
3.434415425
3.249345503
3.443150902
2.928690551
2.65594452
2.822863686
2.659823801
2.22631217
2.123430979
2.335310217
2.1001401
1.76156672
1.58687827
1.758013251
1.687106192
1.425257129
1.201391241
1.169910163
1.272940604
1.234520522
1.030591611
0.8697240329
0.6725556668
0.7250873758
0.7970578828
0.6565396696
0.5009165558
0.2949610611
0.2568573014
0.3895588205
0.3962394406
0.2232334429
0.0624097618
-0.03890168453
0.016991813
0.08489252462
0.002014953153
-0.09396423101
-0.1707571262
-0.3474318785
-0.3152359757
-0.2128243222
-0.2191551241
-0.3614514085
-0.5003011585
-0.5436209895
-0.4485540313
-0.3944533274
-0.4798301632
-0.5170202983
-0.6800428486
-0.7024395345
-0.6047204305
-0.5937645184
-0.7127268931
-0.801346883
-0.8403444408
-0.847911881
-0.8899323269
-0.8997250273
-0.9049579547
-0.8959361765
-0.8840498048
-0.9566367272
-1.012209826
-1.056112471
-1.038541366
-1.030084635
-1.046698731
-1.110960435
-1.147878617
-1.147686992
-1.140534543
-1.176545426
-1.236961002
-1.230390708
-1.247570953
-1.301344014
-1.334202246
-1.322067624
-1.301024903
-1.319217694
-1.302699203
-1.256490054
-1.41713051
-2.482543752
-7.836129591
-9.230505474
-7.589029974
-0.9412441074
0.4196882544
)


100
(
2.921256351
3.634770602
3.603657403
3.776633022
4.204239787
3.713569346
4.085738854
3.749934488
3.708349896
3.861363704
3.267540997
3.281557789
3.380683337
2.902617755
2.689875845
2.886687351
2.727830257
2.306691004
2.157425143
2.370119963
2.221951423
1.900158964
1.609837
1.769897438
1.876453126
1.588033405
1.382032449
1.177287465
1.273887574
1.344990957
1.173017989
1.001408413
0.7825611603
0.7086560713
0.8088485465
0.8698678556
0.6915862111
0.4972568902
0.3026354891
0.3906630126
0.5046985131
0.4184160565
0.261514337
0.1790934019
0.06213592057
0.05549377205
0.1010630054
0.08819318044
-0.00370450669
-0.1703529556
-0.3236229877
-0.1839145719
-0.08199277344
-0.209562769
-0.3253081574
-0.3640099477
-0.4378382345
-0.39212827
-0.2945020177
-0.3763620029
-0.5466456485
-0.6724679179
-0.5483034406
-0.5025149104
-0.6286370159
-0.7012156718
-0.7361219605
-0.7237002539
-0.7193517548
-0.7279201289
-0.7503530343
-0.8274898732
-0.8776056135
-0.8958955043
-0.8885919703
-0.8837208476
-0.9090671185
-0.9687316851
-1.025887565
-1.026671568
-0.9992863273
-1.048647766
-1.087092937
-1.09158994
-1.099545686
-1.238322759
-1.249448995
-1.199719366
-1.282150256
-1.280791474
-1.318359966
-1.450929246
-1.308142819
-1.498682561
-2.281058896
-8.473710171
-9.894810941
-8.309783812
-0.7703816338
1.111218316
)


100
(
2.53505638
3.274466464
3.409699429
4.02338742
3.827109663
4.004596711
3.810005898
4.110426529
3.559171012
3.736515224
3.656936228
3.128192694
3.287051254
3.326477589
2.863652946
2.676523386
2.892450127
2.748276733
2.365066302
2.140976886
2.345055143
2.306802151
1.996997816
1.752536619
1.723433008
1.833852429
1.703551719
1.511475217
1.319609571
1.157502248
1.226447123
1.307378489
1.139346455
0.9163468573
0.6634340872
0.7526093265
0.9236489792
0.8286943078
0.6346206875
0.4674596195
0.3563937712
0.4318283928
0.4978832383
0.3999415844
0.3113957932
0.1655348032
-0.02944450157
0.03339468852
0.2121595125
0.100468064
-0.06239941884
-0.2061047338
-0.2222885631
-0.1513483152
-0.1056294725
-0.175509124
-0.2749221193
-0.4576131673
-0.4553559916
-0.2682440942
-0.3403279655
-0.4953848199
-0.5879954733
-0.6227299289
-0.6640211675
-0.6267402432
-0.6197759913
-0.6286130095
-0.6183777093
-0.6394089151
-0.7193302908
-0.8014233372
-0.8117125617
-0.8209052598
-0.8222341288
-0.8766523295
-0.9237782589
-0.9467227138
-0.9284095342
-0.9402344084
-0.9652917819
-1.073516019
-1.073633453
-1.040803782
-1.112807634
-1.130678125
-1.171150008
-1.18986323
-1.128255246
-1.238291893
-1.178155098
-1.299104393
-1.414797064
-1.574359438
-2.77132125
-8.947864662
-10.34269994
-8.048865176
0.09957724933
1.729641488
)


100
(
2.456060021
3.246149763
3.571787135
3.870966176
3.592894164
4.128527351
3.721989149
3.944266093
3.883344028
3.497971945
3.744798968
3.550412352
3.099531231
3.303022266
3.307813662
2.86400825
2.648242771
2.883332199
2.795654228
2.438687099
2.1204468
2.30470827
2.439309725
2.101430797
1.875475749
1.667102758
1.769418327
1.842796424
1.586378338
1.423800319
1.113645731
1.155695851
1.308293006
1.278850859
1.043210489
0.8158037231
0.6859321563
0.8509830795
0.9364667852
0.7754966678
0.6243638242
0.5320211515
0.3447138563
0.3990463444
0.4944748762
0.4687339629
0.2919319694
0.09323240545
-0.01671974765
0.1542210026
0.2117105338
0.04865513999
-0.03631737619
-0.128413067
-0.2026036106
-0.1484330543
-0.02871657868
-0.2019381716
-0.3976605433
-0.4625727402
-0.3486032902
-0.3406145774
-0.479508262
-0.5374263773
-0.5420411142
-0.5425554451
-0.5432945744
-0.5541519384
-0.6186886867
-0.7207100564
-0.761652448
-0.7143743782
-0.7077981346
-0.7148539481
-0.7634464192
-0.8270477002
-0.8939017829
-0.9245788744
-0.9288956933
-0.922993335
-0.9652061387
-0.9582758431
-1.017085147
-1.070307526
-1.119272343
-1.010146178
-1.032524371
-1.15509099
-1.248049284
-1.16279754
-1.189317889
-1.044352955
-1.13279789
-1.475396292
-2.726056146
-9.320773837
-10.79493855
-7.649109526
0.4657363602
0.7992182877
)


100
(
2.549110756
3.341221217
3.600582893
3.542314642
3.797259241
3.839935445
3.996217471
3.707656057
4.057849965
3.724791476
3.580010095
3.852741369
3.510566694
3.137115457
3.352896713
3.343550525
2.919331838
2.665101126
2.889359014
2.894276807
2.554786573
2.290338738
2.289832133
2.412728654
2.24403386
2.034439575
1.81907848
1.682933922
1.775710891
1.763393611
1.585099706
1.317375536
1.112436042
1.279783552
1.46243936
1.208566573
0.9913607391
0.8396469382
0.8132445931
0.8865950639
0.9569256627
0.8097963358
0.7240021618
0.4787934803
0.3567079273
0.4889985951
0.6692167197
0.4506666219
0.2572183379
0.1454969153
0.1234912
0.2011031066
0.2498982679
0.2035021714
0.01472196282
-0.210220741
-0.1196469004
0.03564541175
-0.097930388
-0.278346489
-0.3423941127
-0.3797595431
-0.3917762207
-0.3907819822
-0.3627027149
-0.3788789993
-0.3718652117
-0.4392690173
-0.5350837329
-0.5942598115
-0.6102642816
-0.6282636725
-0.6311655902
-0.6925751293
-0.7740945034
-0.7468314347
-0.7113252984
-0.7582078965
-0.8100852128
-0.8812634269
-0.9543780263
-0.8802620827
-0.9186011736
-1.020425852
-0.9934708572
-1.024337795
-1.103945612
-1.065494013
-1.167710705
-1.173323878
-1.254241801
-1.177842938
-1.238795164
-1.526493122
-3.259510002
-8.637238345
-11.46637773
-6.941921528
1.212318624
0.6958068033
)


100
(
2.594038868
3.169716689
3.329051923
3.403821506
3.957039325
3.58823969
4.035825518
3.837684525
3.847821436
4.080856741
3.663538382
3.645830785
3.917857986
3.497611889
3.172945609
3.411851398
3.404869756
3.027085713
2.699947792
2.918071347
3.076884098
2.708912826
2.470125744
2.295825393
2.411603093
2.467009475
2.19235221
1.993184516
1.673741957
1.762555974
1.993143342
1.790380861
1.53599421
1.263576545
1.280050857
1.445999889
1.454347153
1.20529306
1.088809064
0.9402117568
0.8653290937
0.9323608317
1.071871001
0.9238240097
0.6879670986
0.4398391797
0.512956712
0.6530548949
0.666288113
0.4731970389
0.4437401469
0.2511363274
0.2322160314
0.3548745318
0.399759083
0.1803477775
-0.04664785491
-0.04237827193
0.01741489237
0.001342070198
-0.1231546801
-0.1516897317
-0.1678263351
-0.1693574853
-0.1742675802
-0.1835234127
-0.2859331218
-0.3984812197
-0.4501460471
-0.3892199441
-0.372020367
-0.384320722
-0.4549266618
-0.5334083182
-0.5802794917
-0.6350924525
-0.6414652931
-0.6655714204
-0.6768014635
-0.679308122
-0.7290770349
-0.7900363831
-0.8496855453
-0.8389682634
-0.7968779458
-0.9092184678
-0.9345150041
-0.9980307669
-0.9060873143
-1.022135332
-0.9934424955
-0.994160255
-1.093288128
-1.410993005
-3.369817442
-7.415100356
-12.07026449
-6.597711103
1.329801745
0.5178196919
)


100
(
2.456082229
2.965733206
3.099053559
3.540298443
3.672946774
3.778957816
3.826351029
4.108508498
3.756310823
3.945522123
4.031376948
3.622335111
3.706505426
3.943496713
3.545078283
3.207128882
3.467984964
3.511798525
3.167051685
2.887881282
2.943867203
3.093647295
2.885940216
2.671359808
2.437583524
2.386258392
2.487315131
2.415723631
2.213090787
1.907095961
1.784963951
2.008416743
2.060807031
1.77141502
1.538645984
1.377982893
1.440507822
1.529990419
1.480061038
1.35873746
1.197896056
0.897158348
0.9219753378
1.153976255
1.149582465
0.9053383635
0.6955297208
0.5966325984
0.6697175571
0.7755142946
0.8065901852
0.7388644727
0.4516963564
0.2336567697
0.4474383698
0.5593461233
0.3625975521
0.1980348462
0.121167768
0.07415317827
0.06928162884
0.04341742086
0.06725879983
0.08900733573
0.09710325877
-0.009978557715
-0.1327696779
-0.1649037823
-0.1813131466
-0.2032465626
-0.2016946985
-0.2493833366
-0.3757725075
-0.361303505
-0.3081426469
-0.3450131445
-0.4299587724
-0.4663259441
-0.5591240908
-0.6143458587
-0.5419100195
-0.6872959089
-0.71335658
-0.6646395122
-0.7378739843
-0.8030204972
-0.7331072452
-0.7616292071
-0.8249505129
-0.8117156424
-0.8458338573
-0.9797715218
-0.8721381161
-1.247797438
-3.806763846
-6.442111102
-12.38809714
-6.388432175
2.648164679
2.530297829
)


100
(
2.329115231
2.846277651
3.145275599
3.58983521
3.44843458
3.954294376
3.683143011
3.967715231
4.013718599
3.743137936
4.036639545
4.024126186
3.63491151
3.794944808
3.998718784
3.621810861
3.280529456
3.50621355
3.685899061
3.315124612
3.075225815
2.963681907
3.102178311
3.110038787
2.85277419
2.639140695
2.38540232
2.50649094
2.716516097
2.436295985
2.157507234
1.859061356
2.008613906
2.175430524
2.026258126
1.793820078
1.692093437
1.451992212
1.536002242
1.641910428
1.629889463
1.434591048
1.179369402
0.9362799404
1.172447425
1.28772908
1.120781339
0.9895106494
0.9776783904
0.7307926387
0.7916665506
1.008647494
0.894658303
0.628822807
0.3993433841
0.4878194433
0.5353228171
0.4900070063
0.406091437
0.369622485
0.3464866617
0.3399537622
0.3284333883
0.3047979763
0.172391376
0.01928484441
-0.02281317683
0.03580187973
0.0941829752
0.0785566113
0.003792802314
-0.08975865109
-0.1142835826
-0.1601361256
-0.1900213086
-0.1919436275
-0.2762748671
-0.2476479227
-0.2637211488
-0.3592251205
-0.4450529875
-0.4968152979
-0.4521958666
-0.4318183042
-0.5515725438
-0.517243051
-0.6190651451
-0.54988954
-0.5870929067
-0.6093363721
-0.6440281457
-0.6033178878
-0.6337078594
-0.9663707657
-4.069446963
-5.410030367
-12.4271217
-6.709575355
2.418641833
1.346146686
)


100
(
2.367634795
2.875043754
3.212009774
3.342995512
3.51638181
3.712392927
3.852713848
3.764766578
4.077155582
3.978690186
3.864877249
4.156247876
4.031940008
3.680021435
3.861573439
4.070110527
3.717275863
3.443413202
3.531538613
3.714460811
3.471442945
3.259687683
3.020251691
3.086201666
3.20329292
3.055014907
2.845871618
2.49219261
2.513544509
2.769998202
2.675423169
2.389000255
2.168576745
1.988549149
2.143360708
2.246742231
2.068432747
1.980014976
1.754905462
1.507148357
1.648180753
1.921945973
1.656871075
1.415894968
1.234559986
1.176053053
1.291947192
1.443765557
1.355516543
1.204779888
0.8897458612