/*--------------------------------*- C++ -*----------------------------------*\
| =========                 |                                                 |
| \\      /  F ield         | OpenFOAM: The Open Source CFD Toolbox           |
|  \\    /   O peration     | Version:  2.3.1                                 |
|   \\  /    A nd           | Web:      www.OpenFOAM.org                      |
|    \\/     M anipulation  |                                                 |
\*---------------------------------------------------------------------------*/
FoamFile
{
    version     2.0;
    format      ascii;
    class       dictionary;
    location    "constant";
    object      PM19;
}
// * * * * * * * * * * * * * * * * * * * * * * * * * * * * * * * * * * * * * //

PM19_table
100
(

100
(
4.015651729
-1.714328673
-0.929042405
-0.5656536774
-0.4785837717
-0.3936179476
-0.2716016684
-0.2579078015
-0.2039505336
-0.1716342272
-0.1713229056
-0.1188224346
-0.1114755186
-0.1026245018
-0.07473132346
-0.06867217248
-0.06811928898
-0.04575887266
-0.04071646863
-0.04100537401
-0.02983831324
-0.02314972855
-0.02116024321
-0.01886933067
-0.01138841764
-0.008608734806
-0.007785525924
-0.005340776527
-0.001068131568
0.0009299150151
0.001571078208
0.004064656095
0.006535460694
0.008070609256
0.008675032288
0.009388045011
0.01085363461
0.01168493201
0.01241039541
0.01308027056
0.01407930778
0.0145415761
0.0151965592
0.01580710013
0.01667296911
0.01702276486
0.01761368913
0.01792008506
0.01803979953
0.01774132229
0.01771801051
0.01800612092
0.01817820533
0.01809586082
0.01811829524
0.01849430381
0.01881031901
0.01886201776
0.01863209374
0.01755065153
0.01577186136
0.01582072045
0.01692122019
0.01672666998
0.01543486491
0.01530717209
0.01596687352
0.01540943986
0.01443845191
0.01461176426
0.01481142572
0.01404277486
0.01353189086
0.01387351687
0.01309081502
0.01250591613
0.01277203954
0.01230625694
0.01185412138
0.01191599195
0.01144859982
0.01117873034
0.01092006805
0.01050097494
0.01030443909
0.009955442691
0.009717884047
0.009312896752
0.009062735893
0.008658968899
0.008403117259
0.008062706308
0.007849808792
0.007574655523
0.007421544783
0.00720933805
0.007153443496
0.007444681122
0.008056432038
0.008436153504
)


100
(
4.206711702
-1.359141033
-0.8017222217
-0.5222766851
-0.4884089387
-0.3600661939
-0.2988359156
-0.2453100659
-0.2134461415
-0.1682202659
-0.1627860931
-0.1229328155
-0.1107509865
-0.1019542788
-0.07947461622
-0.07057434458
-0.06689928072
-0.05215414843
-0.04379090906
-0.04164190605
-0.0339248195
-0.02730202458
-0.02377942479
-0.02096262774
-0.01552771149
-0.0120860342
-0.01032080243
-0.007922011742
-0.004449045288
-0.002216601604
-0.0009493563562
0.001228869854
0.00350468374
0.005013241534
0.00589304012
0.006918000204
0.008427746366
0.009424325948
0.009947162653
0.01062152351
0.0117103958
0.01242820297
0.01282620929
0.01316293405
0.01404867869
0.01470344189
0.01514677222
0.01536861146
0.01576504355
0.01605785363
0.01614409759
0.01605531389
0.015848573
0.01594006234
0.01593871418
0.0159523268
0.01570032322
0.01591345922
0.01600958061
0.0158614035
0.01477174997
0.01364296356
0.01343551327
0.01400644842
0.01418330005
0.01370978871
0.01357448984
0.01371983541
0.0136520991
0.01334072442
0.01337964539
0.01339968987
0.0131155512
0.01303535676
0.01293128077
0.01226548603
0.01180972755
0.01189231745
0.01159614407
0.01135294591
0.01131415829
0.01100098353
0.01079490516
0.01052398806
0.01026467237
0.01005942679
0.009820310065
0.009632119076
0.009380654398
0.009183409167
0.008971599612
0.008755930558
0.008551615954
0.008385422697
0.008203044214
0.008032956919
0.007752040645
0.007520511084
0.008276669804
-0.2353445051
)


100
(
1.672622564
-1.114850786
-0.6885369393
-0.585241771
-0.4957723914
-0.3398660459
-0.3300797305
-0.2379504179
-0.2256238799
-0.1783404127
-0.1597184635
-0.1380430345
-0.1125898243
-0.1055156351
-0.09173094023
-0.07609856244
-0.06978130069
-0.06305429463
-0.05220982682
-0.04489999123
-0.04114886698
-0.0351248813
-0.02949216716
-0.02545624649
-0.0224861948
-0.01824228678
-0.01506946467
-0.01269316181
-0.01064665225
-0.007832244982
-0.005603977953
-0.00373325279
-0.002029907966
-0.0002744953456
0.001144933444
0.002220352667
0.003234848959
0.004314233954
0.005255062801
0.006041975716
0.006679325418
0.007250666158
0.007751807075
0.008064710363
0.008329581955
0.008354970469
0.008679530257
0.008886670601
0.009124038005
0.00897748896
0.009204625927
0.009318756157
0.009478713778
0.009399652734
0.009592195505
0.009821105241
0.00999394302
0.009878921379
0.01029683653
0.01140991614
0.01256970757
0.01183689936
0.01032445524
0.01041983806
0.01160163568
0.01187866693
0.01132398993
0.01167718435
0.01207234062
0.01166128756
0.0112506019
0.01146802688
0.01133896661
0.01074930446
0.01125746644
0.01148316827
0.01049206406
0.0102608826
0.01042366161
0.009822778504
0.009989257607
0.009830096341
0.009607015117
0.009781563125
0.009196521167
0.009329506645
0.009067256227
0.008901821842
0.008878091017
0.00872264624
0.008663897265
0.008551286951
0.008509224399
0.008407977217
0.008380514743
0.008255320696
0.007869698142
0.007287176006
-0.03024251843
-0.04830787018
)


100
(
-0.3628021133
-1.31488441
-0.7891434319
-0.6677745846
-0.4499548628
-0.3720460493
-0.3152033645
-0.2642004214
-0.2219596644
-0.1992861466
-0.1592932263
-0.1469832332
-0.1249905689
-0.1068989857
-0.09933146648
-0.08632453138
-0.07354342749
-0.06699928836
-0.06128087841
-0.05202402732
-0.04472427179
-0.04074768394
-0.03609518608
-0.03081222798
-0.02648385782
-0.02378925541
-0.02061772384
-0.01757242676
-0.0151953477
-0.01355237593
-0.01166693226
-0.009405469647
-0.007497494788
-0.006179376541
-0.005103218436
-0.00400835467
-0.003113790437
-0.002686236195
-0.002440275327
-0.00208936557
-0.001431103171
-0.0007550516669
-0.0003370522402
-2.246350349e-05
0.0004965364923
0.001044201467
0.001328061609
0.001532605223
0.001752488348
0.002198714704
0.002601294835
0.00287336326
0.003172082126
0.003823350535
0.004496656731
0.005000306127
0.005439863485
0.005922321254
0.006378972221
0.007007797703
0.008426877562
0.00999731526
0.010095977
0.009284590314
0.008971433804
0.009453006022
0.009561803273
0.009269480172
0.009318660209
0.009366958342
0.009170517335
0.008938964755
0.008891307446
0.008471365333
0.008137395907
0.008766225617
0.009220112367
0.00857057286
0.008415831635
0.008566440381
0.008108615661
0.008268000445
0.008047675296
0.008085785286
0.008026569815
0.007957944654
0.008071373289
0.007953334855
0.007868831913
0.007900827999
0.007904803864
0.007876978528
0.007851311599
0.007820057056
0.007781877795
0.007669677349
0.007179726942
3.009423238e-05
-0.1382646737
-0.1884415794
)


100
(
-0.9889834787
-1.515022093
-0.8920097187
-0.5999818394
-0.4329458226
-0.4165256317
-0.3065088449
-0.2935617022
-0.2272551985
-0.2070449539
-0.1770917146
-0.1495921756
-0.1389025293
-0.116902215
-0.1024132314
-0.09542779447
-0.08352943787
-0.07201819416
-0.06588112674
-0.06162790491
-0.05305749125
-0.04620910632
-0.04229979537
-0.03911858165
-0.03419628406
-0.03027478881
-0.02781659527
-0.02597169247
-0.02335175254
-0.02134082951
-0.02010223437
-0.01955125467
-0.01777017262
-0.01578516535
-0.01419736536
-0.01360245215
-0.01285428049
-0.01162677267
-0.0103518694
-0.01020077842
-0.01032065905
-0.009605210695
-0.007842565712
-0.006554194397
-0.005987542046
-0.005396296403
-0.003686790477
-0.002267262368
-0.001695377961
-0.001298902152
-0.0001461936362
0.000972988968
0.001565538713
0.001944531558
0.002663341405
0.003451573716
0.003942424915
0.00417073299
0.004380210123
0.004555008403
0.004651735302
0.00508731126
0.005977484081
0.006228186962
0.005991323889
0.005760438094
0.005853739704
0.005823343902
0.005796535218
0.005935972372
0.006122999013
0.006322136262
0.006657829903
0.006924200799
0.006603392036
0.006282112869
0.007015334544
0.006973550421
0.006657258372
0.006990117851
0.006866161172
0.0067847129
0.007010062771
0.006831655066
0.006730213211
0.006676560064
0.006816223519
0.007007958052
0.006950447206
0.006942803509
0.007048096472
0.007089910148
0.007156474845
0.007118811172
0.007034777474
0.006955903117
0.006541438147
-0.02494558026
-0.1880257483
-0.2064794301
)


100
(
-0.5593680459
-1.251848958
-0.7919784568
-0.5503177361
-0.4826512517
-0.4054044021
-0.3317003706
-0.2911597847
-0.2553917348
-0.2099227793
-0.1979836811
-0.1628930567
-0.1437158701
-0.1322364254
-0.1126037127
-0.1005843999
-0.09464352613
-0.08395824057
-0.0736690107
-0.06800618159
-0.06481771717
-0.05765377141
-0.05139626049
-0.04750856855
-0.04576960937
-0.04169536798
-0.03825983337
-0.03652698746
-0.03584255057
-0.03364340583
-0.0309453028
-0.02890195639
-0.02863027956
-0.02779101773
-0.02458571202
-0.0215294329
-0.02054895328
-0.02007608041
-0.01733496324
-0.01435336012
-0.01335188459
-0.01302094224
-0.01188508429
-0.009490846495
-0.007942450884
-0.007583679572
-0.006942784179
-0.004960127227
-0.003384629701
-0.002895757781
-0.002461375628
-0.001325550407
-0.0002879479588
7.410097984e-05
0.0001294536457
0.0004793022835
0.0009926657548
0.001256389539
0.001336231639
0.001399178337
0.001459080521
0.001482908734
0.001663082089
0.002004175493
0.002366910786
0.002740313659
0.003096512389
0.00329004256
0.003464297099
0.003679334156
0.003914536362
0.004130350802
0.004394849507
0.004885900188
0.005477577475
0.005266133378
0.004937538772
0.005296935931
0.005320686196
0.00533546171
0.005378679409
0.005312756
0.005453325896
0.005563914142
0.005628233749
0.00568546742
0.005649144314
0.005903974165
0.006050892897
0.005987621865
0.006102455903
0.006230983332
0.006318462049
0.006375926805
0.006288496465
0.006187595196
0.005150142708
-0.06267535563
-0.2069466401
-0.2058810246
)


100
(
0.2434546654
-1.059894816
-0.7117354758
-0.5700053816
-0.5372298785
-0.3927441165
-0.3713530409
-0.2898801629
-0.2771887455
-0.2290681186
-0.2027462651
-0.1850802394
-0.1544052698
-0.1408152073
-0.1290842326
-0.1121589506
-0.1020475772
-0.09748254917
-0.08863585704
-0.07947330922
-0.07398362897
-0.07177382741
-0.06622037237
-0.06004544845
-0.05531274286
-0.0538788187
-0.05106538934
-0.04730595977
-0.04554540967
-0.0445937149
-0.04278782395
-0.03724866125
-0.03397272131
-0.0330288235
-0.03240122606
-0.02763560314
-0.02400541559
-0.02299697371
-0.02304643648
-0.01930233849
-0.01581106309
-0.014541818
-0.01427744071
-0.01263028943
-0.01013932188
-0.008776765527
-0.008638715563
-0.00810515318
-0.006394550169
-0.005283097899
-0.005194483137
-0.005205238722
-0.004590600362
-0.003885564728
-0.003563009945
-0.003462597555
-0.003297822338
-0.003016586203
-0.002395113886
-0.001734782163
-0.001288056016
-0.0009837405961
-0.0005497111543
-7.045106241e-05
0.0001986605129
0.0003337054036
0.0006121277292
0.000892339977
0.001087839667
0.001308720901
0.001487212701
0.001736377935
0.002123316149
0.002486107378
0.002724353079
0.003247857283
0.003246497016
0.003370692523
0.003493098542
0.003594899843
0.00385937202
0.004110890395
0.004160057709
0.00428479307
0.004331755081
0.004458846647
0.004499676097
0.004642471148
0.004987918902
0.00504772105
0.005044847959
0.005262321619
0.005365069178
0.005433575451
0.005434854808
0.005503600698
0.002496609853
-0.09856496867
-0.2088297352
-0.1972028649
)


100
(
-0.04224844888
-0.9631433906
-0.7101983531
-0.6335434121
-0.5067616327
-0.4161489197
-0.3728119547
-0.3169369825
-0.2792565294
-0.2580601647
-0.2111327259
-0.1961056221
-0.175537047
-0.1501709378
-0.1407012204
-0.1299460793
-0.1153906743
-0.1064379668
-0.1036306802
-0.09648989368
-0.08764514972
-0.08132568432
-0.0795417495
-0.07553264558
-0.06875271692
-0.06257345495
-0.05942553012
-0.05557072008
-0.05101423317
-0.04928606595
-0.04874203308
-0.04660660766
-0.03932559131
-0.03565257358
-0.03501153104
-0.03358166642
-0.02833765593
-0.02475883912
-0.02467380137
-0.02393286789
-0.02025505512
-0.01689033156
-0.01595232805
-0.01543706526
-0.0138661296
-0.0117554566
-0.01113938974
-0.01136611716
-0.01149500495
-0.01041988673
-0.009850885815
-0.009534105522
-0.009414323645
-0.009070245463
-0.008317085588
-0.007276430157
-0.006299683159
-0.005664607278
-0.005171475699
-0.004470831207
-0.003720961325
-0.003277017507
-0.003080029144
-0.002898888078
-0.00261093282
-0.002411113946
-0.002039354279
-0.001541277188
-0.001265618099
-0.0009129264566
-0.0004272768299
-0.0001343165731
6.275407034e-05
0.0003226940826
0.0005086323076
0.0008494622662
0.001241884059
0.001452377757
0.001835232838
0.002140342131
0.002227460739
0.002416211139
0.002641435221
0.002893071272
0.003043112883
0.003173303174
0.003316575766
0.003450425946
0.003784370158
0.004034493373
0.004126534594
0.00429009475
0.004423211286
0.004497062727
0.004557635532
0.004874125832
-0.001813738028
-0.1152755238
-0.2056042925
-0.1929331919
)


100
(
-0.49102354
-1.049375007
-0.7778250457
-0.6335516242
-0.4798249763
-0.4572808075
-0.364064404
-0.34942285
-0.2827586312
-0.2661519764
-0.236284783
-0.2012058256
-0.1919314794
-0.1709248081
-0.1499945775
-0.1436409918
-0.1344245667
-0.1213769744
-0.1127764069
-0.1102546663
-0.1045839404
-0.09543741593
-0.0872188124
-0.08499402372
-0.08228566501
-0.0745763064
-0.06715369311
-0.06146386652
-0.05638781665
-0.05154787227
-0.05009930192
-0.051526225
-0.04694725874
-0.0395911596
-0.03611945091
-0.03642033254
-0.03377012637
-0.02860775321
-0.02564673029
-0.02578697417
-0.02491146762
-0.02178658356
-0.01915489051
-0.0186490793
-0.01865748514
-0.01780244824
-0.01664449256
-0.01608600313
-0.01586109441
-0.01580180795
-0.01518756065
-0.01406445468
-0.01272648658
-0.01156836264
-0.01096842095
-0.01063102225
-0.009672122828
-0.008672666769
-0.007981889356
-0.007545151514
-0.007141377291
-0.006656661729
-0.006291891836
-0.00573185021
-0.00505881059
-0.004703902281
-0.004434283717
-0.00378530501
-0.003182612497
-0.002937311376
-0.00276361437
-0.002575521146
-0.002297070286
-0.001676643513
-0.001260019873
-0.001058451647
-0.0005575843331
-0.0002083077932
-5.553958546e-05
0.0001846671835
0.0005231072306
0.0008514388688
0.001095102033
0.00134528035
0.001617902036
0.001823203358
0.002101620243
0.002315362927
0.002505624005
0.002757809187
0.002950067287
0.003184551011
0.003309985444
0.003510539999
0.003720412165
0.004374777828
-0.007878227224
-0.1216080933
-0.19692379
-0.1827658517
)


100
(
-0.6918351192
-1.079276455
-0.7715499151
-0.5832182187
-0.5011996391
-0.455538287
-0.3786231737
-0.345592424
-0.309214243
-0.2675836311
-0.2566353338
-0.2226231163
-0.1989754007
-0.1912132212
-0.17088671
-0.1524735013
-0.1477238368
-0.1402422234
-0.1276790078
-0.1179316812
-0.115296882
-0.1107984698
-0.1007188535
-0.09144045075
-0.08687733385
-0.08442648181
-0.07770354
-0.06966983825
-0.06208884684
-0.05589181286
-0.05096986111
-0.05084856607
-0.05202177843
-0.04663375608
-0.03959735474
-0.03739842861
-0.03695568648
-0.0344201079
-0.02979166739
-0.02815244632
-0.02820396606
-0.02828115738
-0.02625962279
-0.02476459039
-0.02374600609
-0.02347690806
-0.02303139148
-0.02188725077
-0.02028371059
-0.01870399793
-0.01754764971
-0.01717547965
-0.01643801552
-0.01512410584
-0.01377959516
-0.01300981214
-0.01257538827
-0.01238866989
-0.01189124957
-0.01131100353
-0.01045454234
-0.009481329692
-0.009001676587
-0.008595657737
-0.00771145305
-0.006828553592
-0.006464740715
-0.00628566853
-0.006066357944
-0.005721717787
-0.005056429158
-0.004359546171
-0.004237473603
-0.003801078588
-0.003119117675
-0.00278466229
-0.002632556152
-0.002297029852
-0.001866860549
-0.001498820282
-0.001222180006
-0.0008818386346
-0.0005348908466
-0.0002507849664
8.126233828e-05
0.000493931859
0.0006797923244
0.001049926723
0.001249326355
0.001475217614
0.001707947613
0.001944717015
0.00206421456
0.002248892637
0.002529660955
0.003805909482
-0.01839912333
-0.1273935149
-0.1874400861
-0.1696411216
)


100
(
-0.5923873763
-0.9599805914
-0.7037218757
-0.5538843619
-0.5406522977
-0.4357331657
-0.4109100741
-0.3397113891
-0.3308676601
-0.2842333791
-0.2608662917
-0.2501128503
-0.2167644311
-0.1995816267
-0.1930128433
-0.17322979
-0.1560281148
-0.1520012531
-0.1453929871
-0.1328192192
-0.1208197335
-0.1173363753
-0.1143343663
-0.1036530666
-0.09389717586
-0.08713941353
-0.08472960377
-0.08012531962
-0.07200782698
-0.06409889749
-0.05579933955
-0.05117599741
-0.05328436395
-0.05228073095
-0.04710810545
-0.04089512826
-0.03964119522
-0.03913076279
-0.03762848434
-0.03479562282
-0.03353367498
-0.03334140504
-0.033616769
-0.03248191972
-0.03040853959
-0.02806160864
-0.02612398227
-0.02535920155
-0.02485617185
-0.02321891242
-0.02136201242
-0.01982745806
-0.01896568715
-0.01863163828
-0.01821066137
-0.01733885893
-0.01650030066
-0.01540822475
-0.01453775779
-0.01426946023
-0.01378956231
-0.01257935357
-0.01133424358
-0.01073922617
-0.0105370696
-0.01014634496
-0.00958009204
-0.008841129421
-0.008033528005
-0.007927617851
-0.007564107472
-0.006590206391
-0.005940978249
-0.005747438114
-0.005497046125
-0.005010933565
-0.004560464866
-0.004228508243
-0.003866775795
-0.003416783574
-0.003020761465
-0.002704940295
-0.002273274332
-0.001823456039
-0.001558127964
-0.001118729324
-0.000848778638
-0.0005942514476
-0.0002948735731
1.350276658e-05
0.0003235351942
0.0005264979108
0.0006767988985
0.0007888977724
0.001440988834
0.002924187034
-0.03571853107
-0.1372942374
-0.1743593295
-0.1611543451
)


100
(
-0.2638205063
-0.85151017
-0.6439734903
-0.5899326033
-0.5291135253
-0.4406656717
-0.4155284202
-0.3627090003
-0.3311423902
-0.3137982113
-0.2711026651
-0.2591961906
-0.2447388706
-0.2160304047
-0.2023040719
-0.1971463454
-0.1781279302
-0.1607157947
-0.1550353487
-0.1495129781
-0.1362015965
-0.1238928286
-0.118071038
-0.1150063129
-0.1064246852
-0.0966230414
-0.08827752008
-0.08541791461
-0.08281231476
-0.07532309062
-0.06752883449
-0.05789070634
-0.05414531248
-0.05515185307
-0.0544439979
-0.05025349512
-0.0466755293
-0.04486170036
-0.04485502382
-0.04409405345
-0.04213694106
-0.03957183362
-0.03724033852
-0.03616759732
-0.03578551283
-0.03410050987
-0.03146443007
-0.02896279773
-0.02742589676
-0.02681583906
-0.02628055958
-0.02505695266
-0.02381049121
-0.02258693204
-0.02138822744
-0.02097070877
-0.02077849814
-0.01966451634
-0.01796302868
-0.01648773627
-0.0158186157
-0.01570473945
-0.01519878824
-0.01435035684
-0.013456738
-0.01261762879
-0.01235726188
-0.01192255596
-0.01058931046
-0.009529224138
-0.009341427255
-0.009143366058
-0.008574174722
-0.008173504228
-0.007778980225
-0.007371469985
-0.006830139324
-0.006335786717
-0.005930446368
-0.005473500947
-0.004918495386
-0.004529359735
-0.004145691136
-0.003655445534
-0.00324605463
-0.0029088585
-0.002579448383
-0.002263876928
-0.00186739439
-0.001572465919
-0.001268730742
-0.001066206117
-0.0008835032244
-0.0008030146731
0.0005086721074
0.001724811599
-0.05611113048
-0.1453219579
-0.1647574214
-0.1526484416
)


100
(
-0.2393407783
-0.7983910191
-0.6646235787
-0.6241584396
-0.5014319003
-0.4742073715
-0.4081782488
-0.396745774
-0.3371367736
-0.3260642886
-0.3015383519
-0.2667722981
-0.2606574455
-0.2443298552
-0.2185475845
-0.2065553658
-0.2017237274
-0.1826818232
-0.1645334288
-0.1567865231
-0.1532118378
-0.1394184715
-0.1270416118
-0.119086651
-0.1160895597
-0.1101710523
-0.1004775511
-0.09226468453
-0.08708610998
-0.08479393715
-0.08023203959
-0.07269716914
-0.06308010285
-0.06023994066
-0.06049775037
-0.06090359687
-0.05839781432
-0.05548361095
-0.05181088872
-0.04956129734
-0.04885643619
-0.04713153541
-0.04401000225
-0.04089052701
-0.0384661191
-0.03771321046
-0.03709316218
-0.03522198077
-0.03293663117
-0.03143375152
-0.03010283937
-0.02953378519
-0.02933664369
-0.02840774217
-0.0264421652
-0.02426554915
-0.02274701551
-0.02270510816
-0.022227183
-0.02095276651
-0.01979952963
-0.01879645127
-0.01821864114
-0.01814183914
-0.01756504059
-0.01587686968
-0.01436502049
-0.01394815583
-0.01372482362
-0.01271172249
-0.0120841034
-0.01162142906
-0.01117562441
-0.0107284725
-0.01022711851
-0.009725882822
-0.009183365131
-0.008657654854
-0.0081355778
-0.00764257772
-0.007082774667
-0.006588112355
-0.006143858991
-0.005699326198
-0.005288303233
-0.004863451399
-0.004279309114
-0.004020522136
-0.003558593438
-0.00332574988
-0.00302640354
-0.00278672027
-0.00257757327
-0.00230911208
-0.0004369612344
-0.001042361771
-0.06792613391
-0.1549301091
-0.1544496011
-0.1418761933
)


100
(
-0.4057714207
-0.8186532823
-0.6953494352
-0.5828176078
-0.5035362439
-0.4857738371
-0.4175792941
-0.3982391397
-0.3692911241
-0.3315164757
-0.3259410796
-0.2957168893
-0.269968499
-0.2637489176
-0.2462615789
-0.220845934
-0.2086800744
-0.2038743915
-0.1855168517
-0.1676062235
-0.1579843627
-0.1542962614
-0.1427949888
-0.1306250011
-0.1203883322
-0.1175512051
-0.1142340371
-0.1053291283
-0.09736313341
-0.0908852414
-0.0879245972
-0.08569224623
-0.08011035801
-0.07367325374
-0.07049104715
-0.06789814522
-0.06695530549
-0.06567838211
-0.06162223681
-0.05712291069
-0.05313271204
-0.05145054846
-0.0508464132
-0.04815394891
-0.04500170488
-0.04237421592
-0.04062298088
-0.03989246366
-0.0395367942
-0.03832270532
-0.03668845929
-0.03423020554
-0.03205806239
-0.03159065709
-0.03161719361
-0.02969615272
-0.02743468509
-0.0258288912
-0.02513513789
-0.02509637943
-0.02504893599
-0.02401174459
-0.0219243238
-0.02015927182
-0.02000327222
-0.01962905646
-0.01812958493
-0.01700555439
-0.01644288614
-0.01602927828
-0.01541893074
-0.01461810488
-0.01384633369
-0.01330783785
-0.01278252195
-0.01220647222
-0.01159341877
-0.01105705563
-0.01056298308
-0.01004856395
-0.009478753227
-0.008995639266
-0.008466316347
-0.007931399577
-0.007391420452
-0.006923699823
-0.006395942574
-0.005950480275
-0.005548729855
-0.005278427921
-0.005081962435
-0.00474615058
-0.004536313842
-0.003988898445
-0.001447081505
-0.005431702982
-0.07430928829
-0.1518758557
-0.1489694076
-0.1350008744
)


100
(
-0.5047461681
-0.7980010444
-0.6541076341
-0.546030456
-0.5316399548
-0.4671443145
-0.4467605875
-0.3937052082
-0.393647636
-0.3536928694
-0.3316662718
-0.3266048904
-0.293140908
-0.2712672048
-0.2647782419
-0.2462311293
-0.2212344348
-0.2078995625
-0.2035884133
-0.1872095356
-0.1699214748
-0.1581667705
-0.1546568871
-0.14602108
-0.1342655456
-0.1244986464
-0.1190147331
-0.1161942431
-0.1110497536
-0.1033533073
-0.09723926207
-0.0918081928
-0.09017837712
-0.08837661644
-0.08312264375
-0.07794189311
-0.07264784337
-0.06983078217
-0.0690347948
-0.06643818757
-0.06167428288
-0.05733674241
-0.05426994948
-0.05309452784
-0.05203416403
-0.04982633838
-0.04765939681
-0.04575055099
-0.04334089974
-0.04240022496
-0.0420241516
-0.04036413222
-0.03748793159
-0.03481208331
-0.03354521583
-0.03343462096
-0.0331380165
-0.03160932822
-0.03041236475
-0.02859046411
-0.02747833379
-0.02742336705
-0.02645342148
-0.02416651613
-0.02241394427
-0.02186181603
-0.02154329284
-0.0209509436
-0.02008990972
-0.01926964537
-0.01862054434
-0.017924271
-0.01701553408
-0.01617762083
-0.01551007547
-0.01491718438
-0.01434373483
-0.01377775847
-0.01325958893
-0.01270102454
-0.01197910242
-0.01135364462
-0.01094671829
-0.01051269679
-0.009920368812
-0.009108737052
-0.00860468314
-0.008246552537
-0.007852259165
-0.007478961601
-0.007148789879
-0.006690458449
-0.006628680462
-0.005888045453
-0.002694923811
-0.009372986619
-0.07196056436
-0.1412822971
-0.1374268887
-0.1175008563
)


100
(
-0.4168660015
-0.728558329
-0.6031989575
-0.5463425497
-0.532163865
-0.4582976011
-0.4520933655
-0.4104448182
-0.390553273
-0.3831522306
-0.3427256196
-0.329911116
-0.3201981972
-0.2888295611
-0.2688974606
-0.2626037611
-0.244171876
-0.2200805488
-0.2057652482
-0.2017466395
-0.188271961
-0.1717224877
-0.157741199
-0.1544028428
-0.1498766493
-0.1380306574
-0.1287438535
-0.1206956851
-0.1183335288
-0.1162727299
-0.1101140217
-0.1039203704
-0.09716726291
-0.09300435933
-0.09143059023
-0.08911072459
-0.08315927475
-0.07730637664
-0.0721457693
-0.070669265
-0.06958545923
-0.06611891411
-0.06186862456
-0.05893757734
-0.05648875561
-0.05533611206
-0.0547551854
-0.05293120728
-0.05012265279
-0.04678176241
-0.04404146689
-0.04379442567
-0.04325509983
-0.04066226531
-0.03824113933
-0.0371913789
-0.03618904355
-0.03609542161
-0.03569194336
-0.03354644221
-0.03082160031
-0.02883955703
-0.02893166304
-0.02849721354
-0.02682418167
-0.02578914691
-0.02497115798
-0.02428517292
-0.02356612912
-0.02266680281
-0.02178573265
-0.02099635339
-0.02036298763
-0.01946445362
-0.01861083554
-0.01788683994
-0.0172100282
-0.01655548524
-0.01581775619
-0.01518554666
-0.01484561585
-0.01420677648
-0.01378261694
-0.0129103542
-0.01222852161
-0.01174168327
-0.01115879219
-0.01070821294
-0.01014678909
-0.009791223005
-0.009508291328
-0.009063361389
-0.008766765094
-0.007971588306
-0.004567222196
-0.01109100093
-0.06452342376
-0.1285574831
-0.1273564243
-0.1087893693
)


100
(
-0.2454020908
-0.6573700357
-0.5711317989
-0.5612277379
-0.5000400079
-0.4774204003
-0.4376546868
-0.4344276159
-0.389714228
-0.3858844272
-0.3691156644
-0.3326294206
-0.325460269
-0.3127837441
-0.2825423893
-0.2637272713
-0.2579388047
-0.2407669225
-0.2185925463
-0.2029515355
-0.1992454072
-0.1892940349
-0.1735437451
-0.1609656579
-0.1540799675
-0.1504062014
-0.1423582246
-0.1336590395
-0.1266275649
-0.1209518815
-0.1189683926
-0.1164509859
-0.1092865202
-0.1018220852
-0.09467372849
-0.09286242142
-0.09225912716
-0.08760996927
-0.08161131067
-0.07645040701
-0.07258999842
-0.07129591366
-0.0704223156
-0.06776731558
-0.06514913893
-0.06157666796
-0.05766400669
-0.05663084009
-0.05660432796
-0.05362430836
-0.05010316138
-0.04712958718
-0.04561609494
-0.04528890898
-0.04482255771
-0.04326203391
-0.04121553139
-0.03852427464
-0.03745690523
-0.03753922368
-0.03568442373
-0.03304121324
-0.03154755312
-0.030968816
-0.03049157509
-0.02992071503
-0.02897130218
-0.02790171669
-0.02708133407
-0.02625577644
-0.02521377541
-0.02415533382
-0.02327506156
-0.02247553578
-0.02162876373
-0.02082478427
-0.02038194512
-0.01972201907
-0.01897852029
-0.01812406026
-0.01747035445
-0.01671547666
-0.01627961875
-0.01583698523
-0.01499382803
-0.01443146401
-0.01381283684
-0.01330322741
-0.01272311397
-0.01215226167
-0.01194257738
-0.01177574954
-0.01122152526
-0.009912314566
-0.005076726622
-0.01184149603
-0.05866030694
-0.1222680648
-0.1208141746
-0.1025214474
)


100
(
-0.2529611652
-0.6304453912
-0.5744949864
-0.5401139972
-0.4780439724
-0.4839990185
-0.433526263
-0.4282777749
-0.4117659774
-0.3817182329
-0.3807860842
-0.3581069757
-0.3255441602
-0.3193563316
-0.3051164818
-0.2765249719
-0.2576074021
-0.2528265813
-0.238441204
-0.2179093179
-0.2005689048
-0.1969875693
-0.1920725789
-0.1762756241
-0.164505865
-0.154470847
-0.1515055987
-0.1489512589
-0.1401008844
-0.1325828893
-0.1234149277
-0.1203850524
-0.1189301738
-0.1139445918
-0.1059861318
-0.0987714523
-0.09386250668
-0.09336422208
-0.09160883749
-0.08642428327
-0.08147629455
-0.0781147561
-0.07452992297
-0.07379822805
-0.07297260887
-0.07035647901
-0.06577914923
-0.06129089114
-0.05830448968
-0.05830540181
-0.05716689521
-0.05389591136
-0.05183655739
-0.04989355307
-0.04832284395
-0.04753866856
-0.04704939425
-0.04396516759
-0.04084070406
-0.03908931554
-0.03882686317
-0.03817169167
-0.0362987693
-0.03516807161
-0.03410452296
-0.03327838941
-0.03243001388
-0.03132801229
-0.03017715046
-0.02917116498
-0.02849051203
-0.0278613968
-0.02687861056
-0.02598919148
-0.02512277671
-0.02414004702
-0.02314485659
-0.02222337765
-0.02167627557
-0.02138507112
-0.02071472844
-0.01978046898
-0.0186927424
-0.01817356645
-0.01785971083
-0.01756641806
-0.01678444671
-0.01598073607
-0.01529001563
-0.01475811826
-0.01420631356
-0.01410029901
-0.01360322204
-0.01201145515
-0.006230133525
-0.0200651952
-0.05299989133
-0.1169282705
-0.1126395973
-0.09268478867
)


100
(
-0.3333289208
-0.6199328866
-0.5624626965
-0.5024123747
-0.4873511179
-0.4613551432
-0.4497594612
-0.4170709325
-0.4248275726
-0.3978627598
-0.3788940516
-0.3773240453
-0.3478638552
-0.3189580966
-0.3128188656
-0.2984384322
-0.271834309
-0.2527790706
-0.2483843982
-0.2377652871
-0.218555423
-0.2032678259
-0.1956491245
-0.1912954586
-0.1804023074
-0.169511875
-0.160592099
-0.1541055615
-0.1511931941
-0.1460024821
-0.1376631452
-0.1285346395
-0.1212241894
-0.1198971825
-0.1184852213
-0.1103898063
-0.1031755573
-0.09782545678
-0.09483392805
-0.09339596363
-0.0925550218
-0.08854210891
-0.0845018291
-0.07904354357
-0.07544492462
-0.07505923421
-0.07499390648
-0.06994428351
-0.06533279357
-0.06207359947
-0.06032590831
-0.06028028779
-0.05988850935
-0.05777127376
-0.0539433944
-0.05016732256
-0.04952770031
-0.04934303431
-0.0466732627
-0.04381468488
-0.04241154254
-0.04151710918
-0.04060534544
-0.03948863429
-0.03846611711
-0.03721295787
-0.03626604333
-0.03524305799
-0.03395453942
-0.0327550603
-0.03178672353
-0.03092559928
-0.03000133512
-0.02907461927
-0.02830672143
-0.02778503931
-0.02672599942
-0.02564721081
-0.02486364958
-0.02421467709
-0.02320661234
-0.02266194233
-0.02182007025
-0.02102647922
-0.0204918339
-0.01995740157
-0.0194046446
-0.01874637129
-0.01801038209
-0.01748973966
-0.01681066211
-0.01655084369
-0.01600358449
-0.01411928774
-0.006166904215
-0.03405664918
-0.04413625899
-0.1134341436
-0.1062593464
-0.08688144237
)


100
(
-0.3881307052
-0.5794824961
-0.5200873953
-0.480042602
-0.4914304973
-0.4404983941
-0.4500302283
-0.4251922384
-0.416202874
-0.4183230195
-0.3865434201
-0.3724845106
-0.3690746817
-0.3371190084
-0.3110887991
-0.3059712047
-0.2925237563
-0.2687829073
-0.2487242956
-0.2448697757
-0.2395320485
-0.2204636007
-0.2064046078
-0.1952832304
-0.1916063851
-0.1878417175
-0.1766325664
-0.1666225016
-0.1553689972
-0.1522592577
-0.1513893155
-0.1425268255
-0.1332259969
-0.1245696478
-0.1208054435
-0.1194347979
-0.1157892501
-0.1083139514
-0.1035590999
-0.0994974696
-0.09683778892
-0.09536474247
-0.09424379188
-0.08905952644
-0.08324888767
-0.07789490266
-0.07679828315
-0.07645982202
-0.07452110763
-0.07029492933
-0.06821862441
-0.06520729709
-0.06341903931
-0.06308908813
-0.06162515698
-0.05724409307
-0.05318620501
-0.05163410558
-0.05107949954
-0.05019753544
-0.04830267245
-0.04674543108
-0.04542336585
-0.04430277269
-0.04310210401
-0.04165391391
-0.04010311742
-0.03872011963
-0.03755861174
-0.03681974515
-0.03582803496