/*--------------------------------*- C++ -*----------------------------------*\
| =========                 |                                                 |
| \\      /  F ield         | OpenFOAM: The Open Source CFD Toolbox           |
|  \\    /   O peration     | Version:  2.3.1                                 |
|   \\  /    A nd           | Web:      www.OpenFOAM.org                      |
|    \\/     M anipulation  |                                                 |
\*---------------------------------------------------------------------------*/
FoamFile
{
    version     2.0;
    format      ascii;
    class       dictionary;
    location    "constant";
    object      PM1;
}
// * * * * * * * * * * * * * * * * * * * * * * * * * * * * * * * * * * * * * //

PM1_table
100
(

100
(
-0.0002756118774
0.0006088316441
0.0003293603659
0.0002063699067
0.0001827906817
0.0001647491008
0.0001212842762
0.0001254575327
0.0001083500683
0.0001025632955
0.0001051514409
8.875364438e-05
8.522113785e-05
8.31480138e-05
7.276446559e-05
6.898376159e-05
7.118145004e-05
6.122444756e-05
5.844049156e-05
6.070639938e-05
5.645432975e-05
5.258433521e-05
5.206791684e-05
5.283299834e-05
4.77830763e-05
4.629750038e-05
4.679581616e-05
4.718109267e-05
4.241894931e-05
4.111975431e-05
4.166131839e-05
4.108209396e-05
3.788736649e-05
3.683310933e-05
3.696547356e-05
3.823341103e-05
3.549619578e-05
3.273884067e-05
3.255423508e-05
3.322755219e-05
3.14435747e-05
2.897631202e-05
2.862059046e-05
2.883587149e-05
2.764447709e-05
2.573904931e-05
2.512452193e-05
2.660034806e-05
2.616191341e-05
2.384110121e-05
2.284752554e-05
2.354879689e-05
2.310732452e-05
2.158654752e-05
2.088590554e-05
2.09273021e-05
2.03126001e-05
1.927774701e-05
1.897381026e-05
1.942786184e-05
1.914933546e-05
1.756228812e-05
1.705610157e-05
1.76048934e-05
1.719352258e-05
1.562830221e-05
1.547228385e-05
1.600668838e-05
1.487437839e-05
1.39883814e-05
1.409639663e-05
1.391002661e-05
1.269349013e-05
1.260091813e-05
1.273683301e-05
1.191723277e-05
1.13755741e-05
1.136016363e-05
1.083430834e-05
1.022625656e-05
1.004382648e-05
9.564944776e-06
9.15730925e-06
9.050039807e-06
8.28566408e-06
8.175338735e-06
7.798545994e-06
7.333808753e-06
7.209280739e-06
6.710390153e-06
6.487985956e-06
6.19590719e-06
6.073867553e-06
5.859619705e-06
5.76263119e-06
5.66340168e-06
5.826645065e-06
6.339854735e-06
8.99357201e-06
1.404882642e-05
)


100
(
9.93013382e-05
0.0004608035088
0.0002738833427
0.0001830048859
0.0001816879958
0.0001419205219
0.0001265984029
0.0001136083156
0.0001064008102
9.524822235e-05
9.419862181e-05
8.322810754e-05
7.911655121e-05
7.509673014e-05
6.872299127e-05
6.518815644e-05
6.17634505e-05
5.851744208e-05
5.592696834e-05
5.376152694e-05
5.172693636e-05
5.077943206e-05
4.873069702e-05
4.634214565e-05
4.566239659e-05
4.516128683e-05
4.293886013e-05
4.048104165e-05
4.036130849e-05
4.047626862e-05
3.821734572e-05
3.630420542e-05
3.616540926e-05
3.603755613e-05
3.418317647e-05
3.260787344e-05
3.149584518e-05
3.193657903e-05
3.095567808e-05
2.905497968e-05
2.773528104e-05
2.795540786e-05
2.764780947e-05
2.586410119e-05
2.46533782e-05
2.468059392e-05
2.463868805e-05
2.345987741e-05
2.193069486e-05
2.160567738e-05
2.219712042e-05
2.180607044e-05
2.027770824e-05
1.985265772e-05
2.01926232e-05
1.991424142e-05
1.85881072e-05
1.820666148e-05
1.823938146e-05
1.818721285e-05
1.64675148e-05
1.560662349e-05
1.654620428e-05
1.665945456e-05
1.463775698e-05
1.374547719e-05
1.524298568e-05
1.439361222e-05
1.247419277e-05
1.269499626e-05
1.335652632e-05
1.162504486e-05
1.071021688e-05
1.22039346e-05
1.153611811e-05
9.363946447e-06
1.027467806e-05
1.060251088e-05
8.394352335e-06
9.034054528e-06
8.843191608e-06
7.640686817e-06
8.479881217e-06
7.154070772e-06
6.788592145e-06
7.408089004e-06
6.110814866e-06
6.473746907e-06
6.01845386e-06
5.642112228e-06
5.766669346e-06
5.713845894e-06
5.759102351e-06
5.843830877e-06
5.867535947e-06
6.14333112e-06
8.53974052e-06
2.260793917e-05
0.0001017045661
0.0002650821116
)


100
(
0.0007615089417
0.0003701150417
0.0002255216241
0.0001959837973
0.0001741461456
0.0001240419224
0.0001271469519
9.917235002e-05
0.0001000706106
8.835317567e-05
8.407374844e-05
7.895729505e-05
7.108529098e-05
6.809271872e-05
6.407918409e-05
5.958171096e-05
5.675060675e-05
5.36730513e-05
5.143869203e-05
4.951335723e-05
4.780554445e-05
4.579219967e-05
4.500354407e-05
4.326726776e-05
4.188236198e-05
4.024448572e-05
3.979878966e-05
3.811086935e-05
3.698779619e-05
3.529641253e-05
3.536578151e-05
3.425946852e-05
3.303144331e-05
3.158115942e-05
3.142247533e-05
3.078710233e-05
2.946023642e-05
2.794734519e-05
2.718598626e-05
2.750863496e-05
2.665304783e-05
2.517805115e-05
2.388879511e-05
2.414311166e-05
2.43172326e-05
2.286497329e-05
2.184852201e-05
2.154764661e-05
2.165795013e-05
2.069726179e-05
1.994807099e-05
1.902956865e-05
1.947821875e-05
1.969381992e-05
1.906215039e-05
1.757191785e-05
1.762973261e-05
1.790850365e-05
1.712926314e-05
1.592523768e-05
1.581762626e-05
1.537444768e-05
1.412080019e-05
1.442772918e-05
1.476200123e-05
1.343621989e-05
1.211088966e-05
1.293171954e-05
1.284874452e-05
1.115721534e-05
1.063640229e-05
1.116812928e-05
1.112942118e-05
9.94290167e-06
1.005693048e-05
1.113137114e-05
1.02401973e-05
8.151677321e-06
8.631701348e-06
9.032373782e-06
8.478629752e-06
7.829541573e-06
8.2582701e-06
8.262446499e-06
6.885675248e-06
7.235459634e-06
7.267692126e-06
6.590984412e-06
6.843984011e-06
7.104885299e-06
6.852496881e-06
6.893635145e-06
7.336304407e-06
7.273731171e-06
7.237671525e-06
8.662507753e-06
1.641065319e-05
6.1466224e-05
0.0004484490855
0.001801100749
)


100
(
0.0008590221405
0.0004252940416
0.0002525597811
0.0002147294581
0.0001452248544
0.0001265164465
0.000112015754
0.0001000156626
9.132362902e-05
8.746329695e-05
7.637031376e-05
7.36778602e-05
6.864382885e-05
6.385112647e-05
6.018602289e-05
5.664536729e-05
5.335255992e-05
5.082663847e-05
4.812987754e-05
4.659278784e-05
4.550511949e-05
4.351665848e-05
4.143841215e-05
4.078198981e-05
3.967929661e-05
3.811402712e-05
3.631187428e-05
3.592933354e-05
3.514474884e-05
3.372993706e-05
3.205405483e-05
3.167528484e-05
3.179012856e-05
3.0187628e-05
2.914937795e-05
2.828334982e-05
2.821667294e-05
2.706923988e-05
2.629794471e-05
2.501510608e-05
2.436924842e-05
2.475375368e-05
2.429609594e-05
2.367339039e-05
2.201399184e-05
2.190392115e-05
2.175828558e-05
2.129632048e-05
1.941248775e-05
1.914496534e-05
1.967317075e-05
1.915657776e-05
1.782845357e-05
1.742746099e-05
1.831317786e-05
1.781914034e-05
1.57286122e-05
1.483448432e-05
1.61313219e-05
1.527473796e-05
1.36672752e-05
1.371541293e-05
1.397891901e-05
1.303985482e-05
1.271557994e-05
1.279846765e-05
1.240737038e-05
1.148480806e-05
1.103160321e-05
1.144121052e-05
1.1651573e-05
1.119254739e-05
1.041818177e-05
1.002964564e-05
1.04206847e-05
1.085022814e-05
9.351148037e-06
8.091621567e-06
9.669849533e-06
9.548995877e-06
7.8586163e-06
8.203496691e-06
8.423856343e-06
7.511262083e-06
7.507958799e-06
7.845839718e-06
7.763737813e-06
7.609967724e-06
7.623719284e-06
7.618262316e-06
7.512207958e-06
7.64951983e-06
7.567490684e-06
7.675145753e-06
8.405622793e-06
9.753901395e-06
2.470758045e-05
0.0001106801955
0.0003557619639
0.0004458334297
)


100
(
0.0008074045181
0.0004826486111
0.000274784863
0.0001817829907
0.000132676214
0.0001326743513
0.0001014983281
0.0001013455912
8.510844782e-05
8.192099631e-05
7.61190895e-05
7.033301517e-05
6.69057481e-05
6.145820953e-05
5.789590068e-05
5.448516458e-05
5.140469875e-05
4.895636812e-05
4.671193892e-05
4.483305383e-05
4.317006096e-05
4.235259257e-05
4.044144589e-05
3.86369793e-05
3.768286842e-05
3.729142986e-05
3.548449968e-05
3.406278665e-05
3.325985745e-05
3.317683877e-05
3.17892991e-05
3.099728929e-05
2.942222636e-05
2.972250513e-05
2.926054003e-05
2.854569175e-05
2.66587158e-05
2.645257337e-05
2.581230365e-05
2.509690239e-05
2.424584818e-05
2.311289427e-05
2.295325976e-05
2.331272117e-05
2.20926886e-05
1.974351471e-05
1.958885696e-05
2.067774767e-05
1.941560186e-05
1.745071495e-05
1.728069037e-05
1.841565245e-05
1.736023114e-05
1.594965579e-05
1.599974348e-05
1.680280548e-05
1.519682701e-05
1.350961975e-05
1.363939373e-05
1.422353671e-05
1.384009374e-05
1.304515172e-05
1.291150693e-05
1.335874549e-05
1.328199869e-05
1.264881575e-05
1.183201675e-05
1.171752228e-05
1.186435111e-05
1.147104194e-05
1.088573481e-05
1.06030493e-05
1.099208021e-05
1.130669261e-05
9.989511454e-06
8.73755198e-06
9.352341294e-06
9.816198144e-06
8.846109267e-06
8.054834325e-06
8.269882528e-06
8.939037798e-06
8.785718819e-06
8.298637113e-06
8.221017197e-06
7.942871889e-06
7.749418728e-06
8.079572581e-06
8.501752745e-06
8.086819435e-06
7.339927834e-06
7.912749425e-06
8.025730494e-06
8.056231309e-06
8.852250176e-06
1.172203338e-05
3.666451812e-05
0.0001632319327
0.0002523548901
0.000208112644
)


100
(
0.0007519125938
0.000396579504
0.0002365484834
0.0001577604562
0.0001412909478
0.0001214556396
0.0001026764512
9.410362691e-05
8.734501898e-05
7.815239951e-05
7.629627362e-05
6.850715727e-05
6.46286644e-05
6.102537736e-05
5.641602911e-05
5.336618051e-05
5.045370199e-05
4.777184222e-05
4.596629879e-05
4.399457248e-05
4.245014861e-05
4.072592128e-05
4.006756353e-05
3.831934009e-05
3.704545088e-05
3.536272561e-05
3.502097752e-05
3.470185766e-05
3.403917981e-05
3.237157216e-05
3.186974209e-05
3.118171298e-05
3.04607529e-05
2.863796544e-05
2.828174911e-05
2.849151497e-05
2.775370376e-05
2.479596878e-05
2.376444172e-05
2.472029882e-05
2.40347872e-05
2.210572711e-05
2.107425826e-05
2.19703943e-05
2.223957563e-05
1.967075514e-05
1.708499622e-05
1.855302253e-05
1.959616202e-05
1.752848038e-05
1.587040606e-05
1.634366345e-05
1.684259041e-05
1.584435813e-05
1.511606388e-05
1.509540016e-05
1.476326725e-05
1.451012213e-05
1.449504634e-05
1.392312697e-05
1.352914842e-05
1.397758024e-05
1.405688818e-05
1.311177039e-05
1.221339335e-05
1.206708839e-05
1.236415119e-05
1.206749585e-05
1.130078454e-05
1.090604928e-05
1.111748861e-05
1.140401582e-05
1.105578849e-05
1.025389065e-05
1.017181785e-05
9.971234249e-06
9.142997442e-06
8.729664842e-06
8.96435813e-06
9.623588994e-06
9.445298929e-06
8.332310244e-06
8.237082511e-06
8.580333088e-06
8.376373444e-06
8.465198334e-06
8.511880878e-06
8.405564586e-06
8.127535693e-06
8.053262718e-06
8.165399777e-06
8.176662959e-06
8.137343684e-06
8.353439625e-06
9.347131709e-06
1.585908467e-05
5.427136057e-05
0.0001820449252
0.0001795887947
0.0001390795223
)


100
(
0.0006881356239
0.0003342777491
0.0002060011029
0.0001589655876
0.0001510642469
0.0001110611483
0.0001077381894
8.811615407e-05
8.681509644e-05
7.777893916e-05
7.344828919e-05
6.95027411e-05
6.290501915e-05
5.973409861e-05
5.625118501e-05
5.26253134e-05
4.992506001e-05
4.744704347e-05
4.508486018e-05
4.380760947e-05
4.201702541e-05
4.05376195e-05
3.856362309e-05
3.792296047e-05
3.643178934e-05
3.523487248e-05
3.467537317e-05
3.465818463e-05
3.437192936e-05
3.2832957e-05
3.094764179e-05
2.986571053e-05
3.027431376e-05
2.87284638e-05
2.701875201e-05
2.668256639e-05
2.752488945e-05
2.529157791e-05
2.278992906e-05
2.25242984e-05
2.381100785e-05
2.235951251e-05
2.054715878e-05
2.00047507e-05
2.12645391e-05
1.980812522e-05
1.744460315e-05
1.661310671e-05
1.762024476e-05
1.76668691e-05
1.604991849e-05
1.582736149e-05
1.580291428e-05
1.64534722e-05
1.647713361e-05
1.58137118e-05
1.515148324e-05
1.47811661e-05
1.490328577e-05
1.478334889e-05
1.401596819e-05
1.325507765e-05
1.249689376e-05
1.28186075e-05
1.313941902e-05
1.252035145e-05
1.212966163e-05
1.172380871e-05
1.185009023e-05
1.212695497e-05
1.160174725e-05
1.069749123e-05
1.040147617e-05
1.061463263e-05
1.032059663e-05
9.965500794e-06
9.910902008e-06
9.851530194e-06
9.684736142e-06
8.954637451e-06
8.802075172e-06
8.87925853e-06
8.736125892e-06
8.634466212e-06
8.581118891e-06
8.415518096e-06
8.598464774e-06
8.86732596e-06
8.485600119e-06
8.024275303e-06
8.243136108e-06
8.423259715e-06
8.348404663e-06
8.593022358e-06
9.467476048e-06
1.991388854e-05
7.561240727e-05
0.0001755389385
0.0001367833465
-3.305263817e-06
)


100
(
0.0006182789803
0.000302799046
0.0002025179565
0.0001728981733
0.000135390088
0.0001121945679
0.0001019909978
9.010359645e-05
8.369516581e-05
7.981667295e-05
7.042847574e-05
6.745383143e-05
6.331549957e-05
5.819392391e-05
5.535385571e-05
5.213264376e-05
4.92973486e-05
4.690513015e-05
4.476786125e-05
4.248681944e-05
4.137627548e-05
3.966243821e-05
3.826362081e-05
3.622160875e-05
3.584555816e-05
3.531482798e-05
3.372638457e-05
3.35109653e-05
3.347616803e-05
3.311314504e-05
3.003132952e-05
2.858934022e-05
2.890151518e-05
2.921228588e-05
2.661842154e-05
2.476201189e-05
2.575639519e-05
2.611413947e-05
2.334386227e-05
2.065167064e-05
2.150851651e-05
2.248701639e-05
2.079198021e-05
1.904703095e-05
1.920844079e-05
1.907814294e-05
1.786675421e-05
1.680228161e-05
1.682099537e-05
1.680405694e-05
1.758220606e-05
1.748220529e-05
1.701968722e-05
1.619203249e-05
1.514135511e-05
1.560186502e-05
1.606639125e-05
1.513713505e-05
1.435700688e-05
1.371282269e-05
1.387126395e-05
1.389282988e-05
1.318359864e-05
1.297111157e-05
1.261386205e-05
1.239494304e-05
1.276950934e-05
1.280423021e-05
1.17609452e-05
1.064242679e-05
1.077895286e-05
1.109778532e-05
1.096716733e-05
1.088058343e-05
1.056818292e-05
1.063168747e-05
1.01889018e-05
9.188894182e-06
9.066337952e-06
9.413692169e-06
9.405164747e-06
9.137933375e-06
8.908275049e-06
8.6776854e-06
8.48408672e-06
8.547358448e-06
8.73231329e-06
8.928473108e-06
8.539558621e-06
8.012546459e-06
8.352042641e-06
8.578790585e-06
8.540373528e-06
8.751318092e-06
9.94768925e-06
2.487075108e-05
0.0001021561961
0.0001651572529
0.0001025218517
6.070407107e-05
)


100
(
0.0005495548248
0.0003305375576
0.0002199187875
0.000168222934
0.000123437494
0.0001178979874
9.522680193e-05
9.290874004e-05
7.919408381e-05
7.622409612e-05
7.13346526e-05
6.491970271e-05
6.180582568e-05
5.790055729e-05
5.391961895e-05
5.125068128e-05
4.827021621e-05
4.590139724e-05
4.353001714e-05
4.16826224e-05
3.95909301e-05
3.890489461e-05
3.761975677e-05
3.634454333e-05
3.484202898e-05
3.380308044e-05
3.368586476e-05
3.21656662e-05
3.208559428e-05
3.214633762e-05
3.085401113e-05
2.795529872e-05
2.635303645e-05
2.777099144e-05
2.685911022e-05
2.471524931e-05
2.33304454e-05
2.469649189e-05
2.348836279e-05
2.085525193e-05
1.969592995e-05
2.039675019e-05
2.039613901e-05
1.901519136e-05
1.856073504e-05
1.818637247e-05
1.843634527e-05
1.846492523e-05
1.78203627e-05
1.750647789e-05
1.669468475e-05
1.631249324e-05
1.68577244e-05
1.67923863e-05
1.574881026e-05
1.495325705e-05
1.416291343e-05
1.436288585e-05
1.479306957e-05
1.432266436e-05
1.406014781e-05
1.362882904e-05
1.321797026e-05
1.325955964e-05
1.309544314e-05
1.241642167e-05
1.169921597e-05
1.149153104e-05
1.170605537e-05
1.142563997e-05
1.116632484e-05
1.083331881e-05
1.085721306e-05
1.134519698e-05
1.050342689e-05
9.439798305e-06
9.488168871e-06
9.867595509e-06
9.814946679e-06
9.568117093e-06
9.334820788e-06
9.090290405e-06
8.913892088e-06
8.91846139e-06
8.98327562e-06
8.861272363e-06
8.702336345e-06
8.563132724e-06
8.506904123e-06
8.605158655e-06
8.600385627e-06
8.441391401e-06
8.404633263e-06
8.983595762e-06
1.081329538e-05
3.028732317e-05
0.0001275407849
0.0001618724782
8.691940457e-05
2.362579107e-05
)


100
(
0.0005060136318
0.0003414303064
0.0002151802182
0.0001495070755
0.0001253709197
0.0001127719879
9.422004223e-05
8.712243289e-05
8.053705096e-05
7.34012574e-05
6.991205737e-05
6.434228271e-05
6.043468602e-05
5.661416799e-05
5.309493281e-05
4.969618749e-05
4.699535202e-05
4.413502757e-05
4.249508493e-05
4.073436139e-05
3.930885578e-05
3.721850226e-05
3.659247886e-05
3.623749944e-05
3.442901652e-05
3.321806435e-05
3.16213409e-05
3.160960478e-05
3.073815242e-05
3.060208837e-05
3.076381108e-05
2.801902883e-05
2.511079538e-05
2.508090984e-05
2.640389721e-05
2.472806955e-05
2.225079515e-05
2.216317807e-05
2.230930841e-05
2.124925959e-05
1.945882104e-05
1.910942956e-05
1.91279687e-05
2.0106585e-05
1.971624442e-05
1.91515137e-05
1.832828275e-05
1.725714537e-05
1.742955646e-05
1.760374289e-05
1.67551043e-05
1.626854646e-05
1.561586396e-05
1.520616934e-05
1.561184763e-05
1.544953557e-05
1.448401599e-05
1.435968443e-05
1.394000719e-05
1.375016291e-05
1.419123146e-05
1.416463056e-05
1.325039193e-05
1.225451706e-05
1.199459075e-05
1.228498877e-05
1.208114554e-05
1.174103818e-05
1.159819658e-05
1.119534136e-05
1.12853013e-05
1.11173722e-05
1.03477505e-05
9.73144779e-06
9.956624126e-06
1.022795914e-05
1.005685772e-05
9.848328773e-06
9.656825569e-06
9.416777175e-06
9.209441487e-06
9.289651643e-06
9.424285963e-06
9.223120287e-06
8.949515177e-06
8.686911315e-06
8.385977708e-06
8.486036677e-06
8.664326742e-06
8.539500413e-06
8.459435776e-06
8.443515981e-06
8.603616152e-06
9.425624739e-06
1.195541699e-05
3.942017793e-05
0.0001564566337
0.0001611816697
5.250237882e-05
-8.79727304e-06
)


100
(
0.0004795789719
0.0003061443567
0.0001939311624
0.000139772892
0.0001320876181
0.0001037940383
9.728968143e-05
8.206069469e-05
8.009374142e-05
7.193954661e-05
6.788410246e-05
6.449175999e-05
5.873455666e-05
5.536619574e-05
5.167652853e-05
4.849536344e-05
4.584365524e-05
4.362803884e-05
4.1140127e-05
3.99700366e-05
3.858504351e-05
3.723078407e-05
3.584689694e-05
3.438000567e-05
3.418730921e-05
3.268443106e-05
3.155233571e-05
2.983174636e-05
2.962305734e-05
2.979649071e-05
2.92956247e-05
2.825463889e-05
2.590323857e-05
2.330264397e-05
2.392740862e-05
2.387425047e-05
2.251399565e-05
2.123304876e-05
2.094797674e-05
2.084698644e-05
2.084311564e-05
2.041869448e-05
2.010725439e-05
1.890110434e-05
1.859909389e-05
1.912849257e-05
1.858611358e-05
1.76486792e-05
1.679142588e-05
1.586138387e-05
1.625504228e-05
1.658289693e-05
1.575340866e-05
1.531280577e-05
1.503285603e-05
1.437182073e-05
1.464015804e-05
1.483986853e-05
1.421748311e-05
1.364317723e-05
1.28436368e-05
1.281211735e-05
1.32463465e-05
1.271339715e-05
1.199936378e-05
1.207800233e-05
1.20276236e-05
1.210611663e-05
1.207913738e-05
1.101716771e-05
9.823124856e-06
1.019707997e-05
1.052525477e-05
1.022015931e-05
1.009047264e-05
9.942101315e-06
9.869952919e-06
9.687471902e-06
9.558454622e-06
9.643321391e-06
9.643204976e-06
9.457347915e-06
9.238778148e-06
9.005540051e-06
8.798087947e-06
8.867296856e-06
8.835399058e-06
8.514558431e-06
8.462404367e-06
8.382136002e-06
8.293718565e-06
8.277245797e-06
8.678121958e-06
9.233423043e-06
1.461507054e-05
5.644662451e-05
0.0001797292498
0.000155669637
5.626026541e-05
2.949871123e-05
)


100
(
0.0004652440548
0.0002748891711
0.0001759678125
0.0001476109028
0.0001262910664
0.0001017786562
9.395554662e-05
8.284114301e-05
7.72094354e-05
7.318425924e-05
6.554927677e-05
6.248429418e-05
5.871104077e-05
5.395920016e-05
5.090842023e-05
4.77458816e-05
4.527298734e-05
4.332326353e-05
4.12047375e-05
3.888469655e-05
3.789283801e-05
3.740837565e-05
3.553146962e-05
3.426009789e-05
3.252341412e-05
3.243485116e-05
3.150165139e-05
3.024638863e-05
2.924454748e-05
2.790841972e-05
2.813144056e-05
2.870179014e-05
2.618118015e-05
2.316519385e-05
2.238551679e-05
2.236211731e-05
2.27218261e-05
2.215866698e-05
2.214583219e-05
2.117195982e-05
2.059980761e-05
2.071319614e-05
2.00891227e-05
1.934586908e-05
1.858561882e-05
1.743080793e-05
1.750013325e-05
1.809763489e-05
1.723197056e-05
1.625082223e-05
1.590896863e-05
1.532383612e-05
1.557462383e-05
1.6015867e-05
1.549517037e-05
1.514720498e-05
1.421972411e-05
1.313959365e-05
1.372231054e-05
1.403281931e-05
1.311482629e-05
1.262550359e-05
1.242294093e-05
1.253222581e-05
1.290193177e-05
1.280667493e-05
1.196592348e-05
1.087156124e-05
1.13324204e-05
1.125104609e-05
1.025712118e-05
1.025886741e-05
1.024064841e-05
1.016509486e-05
9.963696357e-06
9.858165868e-06
1.001229975e-05
1.01084006e-05
9.958457667e-06
9.67993401e-06
9.357871022e-06
9.13569238e-06
9.028473869e-06
9.178300388e-06
9.151524864e-06
8.971663192e-06
8.561473805e-06
8.435628843e-06
8.439121302e-06
8.10896745e-06
8.093134966e-06
8.16717511e-06
8.559669368e-06
9.16630961e-06
1.952485763e-05
8.696176155e-05
0.0001815824071
0.0001590196043
3.581913188e-05
5.9325248e-07
)


100
(
0.0004308819771
0.0002613887191
0.0001832172275
0.000155698508
0.0001164823771
0.0001063775271
8.990429342e-05
8.572824299e-05
7.429625839e-05
7.126200944e-05
6.677117199e-05
6.070686504e-05
5.761906505e-05
5.402322859e-05
5.03573101e-05
4.780734889e-05
4.504132085e-05
4.283059388e-05
4.143326078e-05
3.937399015e-05
3.787572496e-05
3.631168511e-05
3.595207818e-05
3.426912008e-05
3.305799328e-05
3.12817283e-05
3.093847772e-05
3.098457819e-05
2.929198672e-05
2.83671834e-05
2.711242996e-05
2.677831799e-05
2.629843948e-05
2.452849003e-05
2.302906796e-05
2.330813572e-05
2.251767364e-05
2.296604362e-05
2.297578612e-05
2.181214222e-05
2.092892828e-05
1.954731124e-05
1.934744068e-05
1.97585905e-05
1.89167622e-05
1.805255306e-05
1.742641325e-05
1.662102295e-05
1.654910739e-05
1.697181142e-05
1.670760685e-05
1.656988752e-05
1.609907486e-05
1.471210271e-05
1.475602039e-05
1.55250018e-05
1.455537858e-05
1.374841668e-05
1.307672937e-05
1.261453144e-05
1.325432095e-05
1.387845259e-05
1.362667535e-05
1.285763574e-05
1.161868568e-05
1.205707667e-05
1.237826655e-05
1.127645373e-05
1.075890032e-05
1.057013287e-05
1.073634485e-05
1.081675873e-05
1.068157144e-05
1.049466664e-05
1.038197661e-05
1.005627564e-05
9.646813851e-06
9.607465472e-06
9.594630683e-06
9.460141882e-06
9.545590729e-06
9.569921531e-06
9.28575173e-06
8.986156899e-06
8.772825822e-06
8.971197531e-06
8.938950486e-06
8.450471796e-06
8.058152162e-06
7.961585652e-06
8.035916835e-06
8.207571227e-06
8.541566785e-06
1.033261651e-05
2.674254938e-05
0.0001366701058
0.0001872592838
0.0001479056664
2.007326111e-05
-1.353304833e-05
)


100
(
0.0003961622715
0.0002744048834
0.0001934468746
0.0001435466111
0.0001156441867
0.0001063235104
8.885376155e-05
8.25561583e-05
7.648579776e-05
6.997957826e-05
6.61900267e-05
6.134901196e-05
5.736015737e-05
5.367211998e-05
5.054427311e-05
4.755053669e-05
4.525203258e-05
4.281639121e-05
4.069344141e-05
3.989425022e-05
3.800832201e-05
3.658933565e-05
3.482063767e-05
3.458303399e-05
3.319117241e-05
3.203260712e-05
3.096158616e-05
2.949038753e-05
2.962176222e-05
2.88693991e-05
2.764567034e-05
2.691766713e-05
2.529469202e-05
2.501123527e-05
2.54821789e-05
2.423566912e-05
2.358810161e-05
2.242540359e-05
2.143325401e-05
2.195730303e-05
2.16184053e-05
2.037122613e-05
1.944462929e-05
1.835957664e-05
1.841770427e-05
1.869047992e-05
1.782157051e-05
1.722961315e-05
1.717604755e-05
1.646549208e-05
1.644338772e-05
1.693039667e-05
1.648810576e-05
1.555451308e-05
1.454912126e-05
1.354442793e-05
1.426893868e-05
1.451617572e-05
1.361209434e-05
1.399562461e-05
1.372507541e-05
1.301171142e-05
1.340688323e-05
1.330528175e-05
1.212931238e-05
1.110995072e-05
1.101888483e-05
1.143108238e-05
1.149773016e-05
1.12647831e-05
1.098474604e-05
1.083273673e-05
1.067953417e-05
1.042918302e-05
1.0062824e-05
9.69087705e-06
9.74163413e-06
9.874172974e-06
9.889015928e-06
9.79876495e-06
9.462062735e-06
9.115523426e-06
8.824543329e-06
9.196315659e-06
9.453913663e-06
8.910807082e-06
8.425879059e-06
8.286326192e-06
8.383591194e-06
8.301518392e-06
8.202681784e-06
8.26845644e-06
9.026087355e-06
1.152342884e-05
3.514773562e-05
0.0001833298156
0.0002020106185
0.0001412355341
-8.932780474e-06
-5.952268839e-05
)


100
(
0.000372543931
0.000272706151
0.0001833662391
0.0001340731978
0.0001211166382
0.0001004133373
9.197182953e-05
7.974077016e-05
7.68667087e-05
6.979517639e-05
6.555765867e-05
6.197951734e-05
5.691219121e-05
5.355291069e-05
5.01666218e-05
4.737405106e-05
4.507927224e-05
4.278798588e-05
4.078936763e-05
3.878353164e-05
3.833277151e-05
3.662623931e-05
3.526289947e-05
3.317836672e-05
3.304134589e-05
3.284658305e-05
3.097055014e-05
2.997706179e-05
2.855609637e-05
2.80959066e-05
2.833409235e-05
2.704979852e-05
2.646498615e-05
2.558395499e-05
2.401208621e-05
2.419037628e-05
2.398034849e-05
2.289190888e-05
2.192729153e-05
2.056392259e-05
2.035940997e-05
2.098441837e-05
2.002008841e-05
1.886835798e-05
1.834992509e-05
1.755220512e-05
1.76393296e-05
1.817943121e-05
1.759198494e-05
1.718527346e-05
1.637270907e-05
1.512926974e-05
1.576071372e-05
1.644113217e-05
1.499145583e-05
1.400058682e-05
1.380580943e-05
1.351909305e-05
1.451147546e-05
1.49407424e-05
1.436166349e-05
1.303522731e-05
1.155739301e-05
1.240309211e-05
1.257719123e-05
1.150966273e-05
1.142127439e-05
1.133192563e-05
1.12548878e-05
1.111038728e-05
1.080048969e-05
1.065744436e-05
1.080619404e-05
1.079437789e-05
1.048043487e-05
1.015907037e-05
9.860261343e-06
9.661889635e-06
9.447830962e-06
9.182287613e-06
9.442504961e-06
9.604060324e-06
9.380775737e-06
9.100331226e-06
8.57951818e-06
8.660106687e-06
8.911767509e-06
8.777104085e-06
8.414353942e-06
8.127623005e-06
8.265575161e-06
8.43979069e-06
8.714705473e-06
1.206289744e-05
4.446714593e-05
0.0002194843255
0.0002213895787
0.0001537632197
-1.285923645e-05
-4.044361413e-05
)


100
(
0.000360712409
0.0002549812198
0.0001704394817
0.000135216862
0.0001207627356
9.71890986e-05
9.045563638e-05
7.99447298e-05
7.472932339e-05
7.08475709e-05
6.388034672e-05
6.054807454e-05
5.699135363e-05
5.278829485e-05
4.994310439e-05
4.696240649e-05
4.435284063e-05
4.26673796e-05
4.056864418e-05
3.888714127e-05
3.684661351e-05
3.657303751e-05
3.516324796e-05
3.382354043e-05
3.259815276e-05
3.129662946e-05
3.124237992e-05
2.982455771e-05
2.890138421e-05
2.81909015e-05
2.662546467e-05
2.693379065e-05
2.69235461e-05
2.562411828e-05
2.466660226e-05
2.311036224e-05
2.247473458e-05
2.310756827e-05
2.224023046e-05
2.112795482e-05
2.027317532e-05
1.922703814e-05
1.920259092e-05
1.949815487e-05
1.876390525e-05
1.849987893e-05
1.822823106e-05
1.670092388e-05
1.666763683e-05
1.749468356e-05
1.662741124e-05
1.581273682e-05
1.505584441e-05
1.444650843e-05
1.478967897e-05
1.517418423e-05
1.471202995e-05
1.480648643e-05
1.370713289e-05
1.320423326e-05
1.417056774e-05
1.331648673e-05
1.208523463e-05
1.151204924e-05
1.129481825e-05
1.166766742e-05
1.190026524e-05
1.175471698e-05
1.145564602e-05
1.135046477e-05
1.123829861e-05
1.074702595e-05
1.037807669e-05
1.022184733e-05
1.00483594e-05
9.777926607e-06
9.943876648e-06
1.011684071e-05
9.833252989e-06
9.474606486e-06
9.245763067e-06
9.077630239e-06
8.997129044e-06
9.094655979e-06
8.946517482e-06
8.575967513e-06
8.538801922e-06
8.553935913e-06
8.583097951e-06
8.173228707e-06
7.910392014e-06
8.361355867e-06
8.854171028e-06
1.391983824e-05
5.058213719e-05
0.000246819749
0.0002434926573
0.0001730048098
-2.077920362e-05
-5.852151662e-05
)


100
(
0.0003518164158
0.0002364218235
0.0001644417644
0.0001405365765
0.0001127012074
9.995698929e-05
8.69370997e-05
8.157454431e-05
7.193814963e-05
6.860401481e-05
6.435159594e-05
5.861464888e-05
5.580671132e-05
5.252752453e-05
4.907278344e-05
4.659220576e-05
4.396820441e-05
4.138657823e-05
4.035560414e-05
3.855954856e-05
3.707571886e-05
3.483961336e-05
3.463635221e-05
3.444612958e-05
3.234564792e-05
3.127288073e-05
2.943724394e-05
2.941454295e-05
2.962409053e-05
2.80336244e-05
2.731673885e-05
2.609391231e-05
2.514425432e-05
2.558442065e-05
2.475851215e-05
2.36723572e-05
2.256163862e-05
2.10586586e-05
2.122236765e-05
2.171599772e-05
2.039854007e-05
1.953178435e-05
1.919071656e-05
1.843462815e-05
1.854884613e-05
1.886972314e-05
1.812120718e-05
1.743042048e-05
1.647151657e-05
1.519336365e-05
1.600789255e-05
1.644802978e-05
1.521364175e-05
1.476327452e-05
1.503715248e-05
1.451100252e-05
1.456143218e-05
1.482223161e-05
1.397365122e-05
1.302469173e-05
1.21154153e-05
1.271847577e-05
1.276883995e-05
1.191921183e-05
1.184581197e-05
1.169249299e-05
1.163690467e-05
1.148605952e-05
1.122208778e-05
1.09107059e-05
1.047796104e-05
1.053130836e-05
1.068686834e-05
1.044181408e-05
1.027181861e-05
1.010147389e-05
1.001622877e-05
9.565643268e-06
9.033945389e-06
9.196199244e-06
9.654613677e-06
9.698938811e-06
9.053153917e-06
8.30704812e-06
8.153729141e-06
8.513481589e-06
8.83769826e-06
8.643895853e-06
8.461996913e-06
8.312839782e-06
8.027272997e-06
8.353847079e-06
9.344250429e-06
1.625920413e-05
6.479294098e-05
0.0002764890669
0.0002671176335
0.0001746919006
-4.663784057e-05
-8.063251153e-05
)


100
(
0.0003320127726
0.0002342611551
0.0001696199179
0.0001368373632
0.0001084245741
0.0001004859805
8.459948003e-05
7.855333388e-05
7.286667824e-05
6.671529263e-05
6.280373782e-05
5.903933197e-05
5.476083606e-05
5.161762238e-05
4.860432819e-05
4.590302706e-05
4.348671064e-05
4.132743925e-05
3.887154162e-05
3.8246857e-05
3.680447116e-05
3.537209705e-05
3.410340287e-05
3.267708234e-05
3.255880438e-05
3.094540443e-05
2.99855601e-05
2.932897769e-05
2.793606836e-05
2.79978849e-05
2.714223228e-05
2.629857045e-05
2.526759636e-05
2.34846957e-05
2.38000066e-05
2.445618156e-05
2.270628465e-05
2.162368037e-05
2.084422158e-05
1.956743654e-05
1.978481305e-05
2.050312469e-05
1.971420716e-05
1.949127181e-05
1.849097316e-05
1.667271135e-05
1.719062857e-05
1.818290184e-05
1.671321934e-05
1.578389492e-05
1.516490011e-05
1.456095924e-05
1.533228897e-05
1.598126983e-05
1.561037789e-05
1.477968181e-05
1.342199175e-05
1.339292794e-05
1.434063597e-05
1.321706804e-05
1.22179772e-05
1.207995228e-05
1.184696157e-05
1.185727888e-05
1.192785567e-05
1.192756463e-05
1.161196269e-05
1.153894118e-05
1.140660606e-05
1.087249257e-05
1.049390994e-05
1.037828042e-05
1.019294723e-05
9.954383131e-06
9.649054846e-06
9.903858881e-06
1.02656777e-05
9.936135029e-06
9.421957657e-06
9.141193004e-06
8.870498277e-06
8.932867786e-06
9.084236808e-06
8.659233572e-06
8.356553735e-06
8.44465103e-06
8.460861864e-06
8.375820471e-06
8.203845937e-06
8.244882338e-06
8.158618584e-06
8.320901543e-06
9.031355148e-06
1.777184661e-05
7.241959975e-05
0.0003212094307
0.0003020884469
0.0001726171467
-6.268406287e-05
-6.540166214e-05
)


100
(
0.0003155916929
0.0002390891314
0.0001701116562
0.0001282915473
0.0001112669706
9.602867067e-05
8.633174002e-05
7.611140609e-05
7.239356637e-05
6.648339331e-05
6.237346679e-05
5.847774446e-05
5.45559451e-05
5.129631609e-05
4.81037423e-05
4.518590868e-05
4.313653335e-05
4.097912461e-05
3.911275417e-05
3.672251478e-05
3.630854189e-05
3.596651368e-05
3.384239972e-05
3.267615102e-05
3.074808046e-05