/*--------------------------------*- C++ -*----------------------------------*\
| =========                 |                                                 |
| \\      /  F ield         | OpenFOAM: The Open Source CFD Toolbox           |
|  \\    /   O peration     | Version:  2.3.1                                 |
|   \\  /    A nd           | Web:      www.OpenFOAM.org                      |
|    \\/     M anipulation  |                                                 |
\*---------------------------------------------------------------------------*/
FoamFile
{
    version     2.0;
    format      ascii;
    class       dictionary;
    location    "constant";
    object      PM21;
}
// * * * * * * * * * * * * * * * * * * * * * * * * * * * * * * * * * * * * * //

PM21_table
100
(

100
(
1.192488315
-0.2231328695
-0.1587216555
-0.0703438369
-0.05695340625
-0.01307139188
-0.003026228745
0.01401695184
0.0161213356
0.02851386091
0.02751348592
0.03386301974
0.0373357819
0.03532839077
0.03566074259
0.03772971253
0.03727436316
0.03365511194
0.03511236312
0.03568864066
0.03270868245
0.03186213513
0.03254111458
0.03211298838
0.02924725852
0.02981056098
0.03023149974
0.02918722369
0.02612750281
0.02639398712
0.02668948997
0.0259074194
0.02435039005
0.02459199864
0.02479147089
0.02428502376
0.0221535778
0.02122187231
0.02139230617
0.0211248245
0.01984596634
0.01897665329
0.01909379821
0.0189285335
0.01818237984
0.01751187675
0.01757940136
0.0176602847
0.01657183793
0.01557409771
0.01522667119
0.01527839427
0.01472718283
0.01416659676
0.0139218548
0.01387818021
0.01363217137
0.01348637519
0.01396634287
0.01567732059
0.01818005082
0.01677668266
0.01444703667
0.01514225842
0.01689248487
0.01542817126
0.01367194845
0.01514433335
0.01548052379
0.01394421385
0.01327631432
0.01441349987
0.01360304436
0.01226943529
0.01378923557
0.01384712321
0.01171291239
0.01258089921
0.01261528487
0.01070530758
0.01165751115
0.01076181911
0.01018932173
0.01097616837
0.009141001318
0.009717648169
0.009037196628
0.00869602744
0.008791091255
0.008294878862
0.008388750742
0.008211135614
0.008367255449
0.008272796868
0.008531130292
0.008478395256
0.008737636632
0.009447896383
0.01053828818
0.01138800251
)


100
(
1.394308332
-0.2066709089
-0.1545130673
-0.09345263406
-0.07747319657
-0.03570192796
-0.02085467119
-0.005884502321
0.002078310388
0.01119396689
0.01378960867
0.02059709049
0.02318309786
0.02425175426
0.02570099054
0.02650987797
0.02688361585
0.02741604894
0.02655297445
0.02717672435
0.02723101448
0.02657011702
0.02616843427
0.02631568935
0.0260515284
0.02539427125
0.02526672367
0.02502865121
0.02435654455
0.02353778435
0.02306733088
0.02295760413
0.02268748437
0.02232059338
0.02203023658
0.0219002349
0.02119439494
0.0205318714
0.01984996932
0.01946829633
0.01910539605
0.01876936289
0.01843360785
0.01805771309
0.01791328508
0.01770840194
0.01747931587
0.01727963376
0.01676371102
0.01634219556
0.01597157716
0.01572955785
0.01547706824
0.01552536202
0.01559763013
0.01565476028
0.01557705185
0.01574806436
0.01589964584
0.01623848583
0.01732426621
0.01938824419
0.01921786476
0.01777389773
0.01746061315
0.01822320685
0.01747876281
0.01631367288
0.01666657479
0.01647532051
0.01537199881
0.0146384489
0.01499543096
0.01409409414
0.01333795781
0.01446829817
0.0148474144
0.0135549743
0.01364744566
0.01342528615
0.01264516014
0.01304719038
0.01205631271
0.01275787735
0.01248784194
0.01179927699
0.01220660427
0.01164642569
0.01160937939
0.01160279449
0.0113921676
0.01130879464
0.01128682363
0.0113386847
0.01137474628
0.01152695379
0.0113039559
0.01053253005
0.01196801781
-0.2141723104
)


100
(
0.5624494964
-0.242664495
-0.1961751661
-0.1671038341
-0.1317126635
-0.07974773213
-0.06759136575
-0.03979573011
-0.03021716289
-0.01545551897
-0.009250698128
-0.001419215744
0.003626577254
0.006732240934
0.01026990755
0.01229938898
0.01372486623
0.01583803579
0.01706856239
0.01722343031
0.01873387135
0.01956366164
0.0196293706
0.01959633014
0.02061133832
0.02061835433
0.02045477516
0.02044226339
0.02119639349
0.02080624854
0.0203178479
0.0199117448
0.02036908876
0.02031932392
0.02024219327
0.02022204877
0.02054850365
0.0205701849
0.02003407757
0.01958485442
0.01941841938
0.01960536542
0.01967996186
0.01983417026
0.02018011043
0.02058263373
0.02093018487
0.02124074832
0.02165148087
0.02188396518
0.02219834708
0.02203822634
0.02190795004
0.02164536609
0.02177273644
0.02184773318
0.02174762234
0.0210987059
0.02074385592
0.01973093767
0.01777059374
0.01884505278
0.02191391053
0.02129637699
0.01896591181
0.01910835761
0.02044845793
0.01855710618
0.01754143771
0.01841138547
0.01881034202
0.01751585566
0.0177125195
0.01847582487
0.01654946314
0.01564671255
0.01772802405
0.01750630502
0.01652145651
0.01784554762
0.01677393475
0.01704016948
0.01713172446
0.01598584695
0.01785756183
0.01671894746
0.01714707381
0.01762195488
0.0170679964
0.01755993316
0.01741519339
0.01762735983
0.01722065221
0.01748957337
0.01735959166
0.01739881038
0.01641975737
0.01323610767
-0.038379859
-0.06717462862
)


100
(
-0.1743724303
-0.3633171556
-0.2855861707
-0.2522379972
-0.1613520909
-0.1239380985
-0.09470107521
-0.07012165581
-0.05111225909
-0.03756160151
-0.02417033321
-0.01633021909
-0.008176582623
-0.003043175665
0.001103923248
0.005083989949
0.007610275189
0.009965137879
0.01250261566
0.01398438253
0.01494725692
0.01662522951
0.01784462684
0.01824673699
0.01849000449
0.01952018944
0.01997257088
0.02014004359
0.02045367851
0.02137498623
0.02181733137
0.02150794104
0.02136772807
0.02170674584
0.02256088123
0.02293743361
0.02352198085
0.02414513132
0.02542616003
0.02590104518
0.0258011979
0.02578028973
0.02601856941
0.02696485637
0.02712492228
0.02714263191
0.02666143046
0.02765139032
0.02835168251
0.02832245004
0.02764557276
0.02818763974
0.02876680502
0.02783462034
0.02646772003
0.02620427393
0.02696501298
0.02575802559
0.02421405507
0.02329386139
0.02214433874
0.01933913318
0.01911312263
0.0207055849
0.02122608291
0.02019164988
0.02039515698
0.02118144218
0.02069568627
0.02046718973
0.02082830806
0.02141669341
0.02115540939
0.02159571057
0.02176278043
0.02041301249
0.01916984193
0.02025148206
0.02053116179
0.01980013236
0.02058234069
0.02000061026
0.02030936147
0.01976964666
0.01976791767
0.01988208645
0.01945718326
0.01959543251
0.01952165021
0.0192543716
0.01907426762
0.01895835063
0.01870060624
0.01818759664
0.01803282568
0.0174919027
0.01550292634
5.229550248e-05
-0.1692496208
-0.2493645374
)


100
(
-0.4423891347
-0.4890890706
-0.3848454082
-0.2686241615
-0.1912838104
-0.1719032192
-0.1155315035
-0.09957865156
-0.06754145915
-0.05277363899
-0.03731716919
-0.02537703436
-0.01749033627
-0.009459224921
-0.004092588899
0.0003464528943
0.004326711348
0.007258668848
0.009961298061
0.01275309591
0.01441565052
0.01578790983
0.01761137655
0.01946338447
0.02013988365
0.02069108541
0.02159904662
0.02275176558
0.02335393618
0.02435172361
0.02560031943
0.02733340579
0.02763303256
0.0278056005
0.02787399633
0.02926819618
0.03024337924
0.03092369767
0.03049559389
0.0319649877
0.03327084864
0.03367151418
0.03229779953
0.03167921812
0.03225069341
0.03321087292
0.03130793771
0.02938265183
0.02990797247
0.03097280387
0.02963547831
0.02815526839
0.02810990569
0.02868927525
0.02770605337
0.02628434569
0.02611751761
0.02671330977
0.02616507259
0.0251248916
0.02470170939
0.02434633746
0.02299023085
0.0226243978
0.02301387805
0.02339234992
0.0233140566
0.02367948802
0.02399819706
0.02407369704
0.02368093312
0.02351113767
0.02323362662
0.02307329482
0.02311907379
0.02310873757
0.02215544302
0.02206826982
0.02217221696
0.02141484213
0.02134145221
0.02121147364
0.02059552762
0.02066955831
0.02039670366
0.02007278374
0.01989991632
0.01971995094
0.01923833957
0.0188787276
0.01860695718
0.01819962389
0.01791785281
0.01732692894
0.01659622449
0.01581204801
0.01340253329
-0.04046089306
-0.2469041827
-0.2757004217
)


100
(
0.06731459986
-0.439477731
-0.3842065651
-0.2853836212
-0.2441194307
-0.1913816117
-0.1437488986
-0.1139923345
-0.08832245706
-0.06318250235
-0.05050468148
-0.03389053683
-0.02358826727
-0.01565863653
-0.008166342947
-0.002855016856
0.001693961422
0.00579713454
0.009069451117
0.01215257131
0.01545281999
0.01756643409
0.01938360468
0.02156617581
0.02439365094
0.02559238319
0.02635452006
0.02747316236
0.02920761598
0.03028607928
0.03124200489
0.03209141399
0.03407776575
0.03551486644
0.03485390886
0.03378176847
0.03471664666
0.03630264669
0.03537798113
0.03355871942
0.03417887828
0.0350621641
0.03510831705
0.03311738553
0.03222967853
0.03330319351
0.03392747452
0.03169124505
0.02962629605
0.03040271034
0.03088012919
0.02962499146
0.02824760358
0.02813067645
0.02863183504
0.02809780006
0.0273622724
0.02746240449
0.0276718033
0.0277475507
0.02739604634
0.02705738136
0.02669699491
0.02617740673
0.02594053531
0.02562253576
0.02513822699
0.02490140815
0.02444878618
0.02428596284
0.02404796773
0.02375884302
0.02350747313
0.0232773477
0.02301165737
0.02301007181
0.02295769613
0.02231058424
0.02203052272
0.02172467891
0.02141200168
0.02121766224
0.02067772397
0.02016208138
0.01991835497
0.01940400666
0.01884047879
0.01876571619
0.01836755238
0.01769335464
0.017372315
0.01696714156
0.01647359245
0.01589255079
0.01492983977
0.01416588921
0.01020492543
-0.09746093242
-0.286538035
-0.2837316842
)


100
(
0.8561698076
-0.4084311384
-0.3849231337
-0.3294026329
-0.300738976
-0.2054088727
-0.1779867628
-0.1255143753
-0.1067921097
-0.0768329896
-0.05858160973
-0.04445136634
-0.02970246296
-0.02061312318
-0.01272793197
-0.005679852853
-0.0003010028466
0.004663116388
0.009206877952
0.01294896237
0.01660844338
0.02061378075
0.02332118084
0.02535694197
0.02750559883
0.03083941248
0.032803971
0.03308486286
0.03372722392
0.03485136032
0.03634475742
0.0353903236
0.03552785637
0.03682114853
0.03862250796
0.03662398183
0.03523469449
0.03599396405
0.03830244992
0.03624054831
0.03414480245
0.03439806182
0.03564098481
0.03495055122
0.03294556897
0.03230696808
0.03342116338
0.03370706998
0.03157551899
0.03020029962
0.03055575377
0.0310163776
0.03041296259
0.02969379478
0.02929217611
0.02907366489
0.0291347032
0.0292460752
0.02896585682
0.0287215555
0.02857577072
0.02857060991
0.02807194451
0.02731371437
0.02659942123
0.02612401723
0.02562812739
0.02532543945
0.02495213367
0.0243272243
0.02392131942
0.02367587816
0.02338549684
0.02295173519
0.0225842386
0.02216254853
0.02205830702
0.02166514699
0.02123226058
0.02099133031
0.02052164866
0.02013875723
0.01989647493
0.01933071207
0.0187168724
0.01836735907
0.017782148
0.01742515005
0.01742101224
0.01677359544
0.01605175988
0.01586530228
0.01525136979
0.0146381471
0.01382583336
0.01336414374
0.005005684025
-0.1523390836
-0.3036171205
-0.2676424675
)


100
(
0.6325596663
-0.4070509086
-0.4201682246
-0.3971705317
-0.3060612464
-0.2348987033
-0.192861771
-0.1478100129
-0.1166735107
-0.09461365401
-0.06695662864
-0.0527478107
-0.03827774661
-0.0253073275
-0.01683007758
-0.008938076195
-0.002030411836
0.003567429934
0.009337792207
0.01422887074
0.0181855837
0.02189737846
0.02606292718
0.02900092895
0.03062783705
0.03221653217
0.03495276991
0.03642338507
0.03589426459
0.03600319156
0.03694191167
0.03825123634
0.03620585941
0.03605429461
0.03752516753
0.03860910278
0.036356932
0.03498285966
0.03676146587
0.03779894784
0.03590461208
0.03384981341
0.03441903553
0.03492075057
0.03418780317
0.032411096
0.03236125802
0.03290489584
0.03326378411
0.03189635294
0.03139909416
0.03100259999
0.03108710842
0.03118076893
0.03086543961
0.03014750433
0.02945131556
0.02900883329
0.02890879122
0.02867193053
0.02825024237
0.02785055004
0.02743878056
0.02711838263
0.02653982499
0.02590406784
0.02521528253
0.02467595713
0.02460962758
0.02440204497
0.0237947305
0.02307909207
0.02241660864
0.02202955403
0.02162735862
0.02103587332
0.02064096342
0.0205248075
0.02016944252
0.01976831285
0.01937362762
0.01887522142
0.01848964809
0.01823901982
0.01786509791
0.01739283092
0.01707889359
0.01667491443
0.01654838307
0.01628884626
0.01576369509
0.01531236611
0.01489189083
0.01415665115
0.01340512935
0.01326994457
-0.003809881003
-0.180637509
-0.3069833924
-0.280343804
)


100
(
0.1977373595
-0.4762229652
-0.494503214
-0.4227861359
-0.3096116541
-0.2747956471
-0.2005719444
-0.1740915936
-0.1261709834
-0.1053708668
-0.08119282945
-0.05924328426
-0.04682845373
-0.0325473802
-0.02063746908
-0.0122625847
-0.004284283133
0.002677490564
0.008642373675
0.01424064041
0.01887200851
0.02240350485
0.02529899606
0.02889137102
0.03164137416
0.03259868508
0.03381488218
0.03565023472
0.03678012082
0.03596720286
0.03579672613
0.03778143479
0.03742145066
0.03545624816
0.03528379099
0.03753146902
0.03747030376
0.03532658113
0.03439853609
0.03602544714
0.03640309619
0.03469297922
0.03295804517
0.03305864683
0.03341887294
0.03296150854
0.03233132851
0.03212216705
0.03200210528
0.03229856037
0.03202575468
0.03142170899
0.03081871545
0.03029288629
0.03017178699
0.03046866052
0.02979807154
0.02895785324
0.02803442704
0.02719094181
0.02670178611
0.02630517718
0.02595074424
0.02542553983
0.02501101703
0.02485345337
0.02468230361
0.02416953636
0.02354035913
0.02296432488
0.02247226553
0.02198491412
0.02127827697
0.0206212223
0.02030826259
0.02018258624
0.01973934529
0.01930642597
0.01896425756
0.01852346683
0.01818888312
0.01794023068
0.01776177746
0.01748027057
0.01725859083
0.01701280908
0.0168037891
0.01650225314
0.01625811563
0.01601947942
0.01572788359
0.01536039924
0.01484076089
0.01438431289
0.0136860449
0.01360278343
-0.01732972973
-0.1942761374
-0.3010873194
-0.2725933461
)


100
(
-0.01683820962
-0.5114604912
-0.5182361998
-0.4117877171
-0.3410143132
-0.288691157
-0.2197843854
-0.1825139485
-0.1463852537
-0.1131058395
-0.09527445993
-0.07092003921
-0.05340037096
-0.04118867731
-0.02722755276
-0.01590591856
-0.007584607424
0.0002939411351
0.006671990402
0.01209621858
0.01700262905
0.0209404763
0.02377139055
0.02609814837
0.02855125024
0.03077642072
0.03180046474
0.03303659306
0.03446155905
0.03545436152
0.03468565548
0.03507941089
0.03676728063
0.03594650347
0.03404768812
0.03461163356
0.03581669008
0.03558643547
0.03352526792
0.03329883944
0.03373700146
0.03405726039
0.03282460805
0.03204820868
0.03126766972
0.03131180423
0.031475246
0.03134189296
0.03104463841
0.03076980205
0.03040867417
0.03062041953
0.0303953471
0.02980535909
0.02906059949
0.02843648934
0.02765221348
0.02733443464
0.02656338066
0.02567452062
0.0247848493
0.02413755154
0.02408198864
0.02414341985
0.02386662807
0.02342693107
0.02291889296
0.02235513282
0.0219482397
0.02140904706
0.02070694995
0.02020573808
0.02016071119
0.01986736358
0.0193753957
0.01892703818
0.01865387734
0.01825834153
0.01796554403
0.01779556262
0.01768807781
0.017432514
0.01723371414
0.01713402804
0.01701291593
0.01695346728
0.01681239416
0.01666805952
0.01637862646
0.01613864259
0.01581443915
0.01552778126
0.014881767
0.01432000162
0.01379853933
0.01376356592
-0.04145131148
-0.2051691967
-0.2888151999
-0.2576843215
)


100
(
0.07331598096
-0.4688718465
-0.4964841249
-0.4115565026
-0.3851811317
-0.289350373
-0.2504120599
-0.1889667798
-0.1662602702
-0.1274333892
-0.1038009449
-0.08632582385
-0.06336461757
-0.04819406477
-0.03629155812
-0.0228942632
-0.01239540477
-0.004712209734
0.002061664274
0.008115701609
0.01281898004
0.01689574585
0.02025216025
0.0226567721
0.02488101868
0.02657221617
0.02843890018
0.0298605255
0.03124660242
0.03305098125
0.033272691
0.0327309324
0.0344210109
0.03472854392
0.03385331576
0.03204317808
0.03255675762
0.03282660241
0.03259600249
0.0315710091
0.03112960989
0.03108589436
0.03134692726
0.0309542017
0.03034917214
0.02974146365
0.02922862202
0.02940957564
0.0298403073
0.02955922005
0.02926344038
0.02873607221
0.02804267333
0.0275295227
0.02697092146
0.02609726202
0.02535301527
0.02445527298
0.02391652428
0.02390570834
0.02370309974
0.02321795658
0.02268245599
0.02224120218
0.02188805761
0.02154936884
0.02107953599
0.02040253898
0.01979698645
0.01990741567
0.01982798805
0.01947703049
0.01905089807
0.01875340309
0.01848408587
0.01801554255
0.0176971814
0.01761295029
0.01754171321
0.01738466775
0.01727123121
0.01717375472
0.0169909288
0.01694201575
0.01687021916
0.01679560525
0.01669847554
0.01663392748
0.01647536145
0.01620824786
0.01593149478
0.01543052684
0.01473115282
0.01388936348
0.01369548508
0.01228813838
-0.07903907375
-0.2197159836
-0.2732305838
-0.2526405169
)


100
(
0.4004819089
-0.4311669817
-0.4765466715
-0.4566249691
-0.392409099
-0.3047614909
-0.2651049982
-0.2114190937
-0.1759370049
-0.1495537
-0.1148777492
-0.09670344878
-0.07827841765
-0.0579585281
-0.04442703532
-0.03347742765
-0.02100652922
-0.01136741262
-0.004612700452
0.001256755448
0.007016796909
0.01154286564
0.01497844608
0.01783659983
0.02036586964
0.02276883418
0.02418602251
0.02577728117
0.02747477313
0.02896148923
0.03092597763
0.03082978696
0.03079420534
0.03163341367
0.03143864588
0.03032259614
0.02952772886
0.02894167318
0.02923070598
0.02920869022
0.02900881895
0.02874668373
0.02847583247
0.02865336455
0.02902105636
0.02884738614
0.02847588523
0.02800973836
0.02749327594
0.02724410206
0.02699766438
0.02631922982
0.02554839413
0.02461293727
0.02348033211
0.02313441465
0.02308277282
0.02281699133
0.02255861621
0.02224183757
0.02185120094
0.02166235626
0.02123847455
0.0206660172
0.01993134847
0.01922927964
0.01922914663
0.0192356595
0.01897120462
0.0187203857
0.01867619278
0.01861140799
0.01830385684
0.01793689443
0.01775176203
0.01770923612
0.01746789719
0.0171876244
0.01711743031
0.0170745468
0.01697280915
0.01697924192
0.01688702388
0.01677667067
0.01666618498
0.01654472977
0.0165424279
0.0164168718
0.01623302853
0.01608755521
0.01565890866
0.01505179478
0.01422096552
0.01312152693
0.01352999104
0.007769052879
-0.117398062
-0.2316246953
-0.2544500579
-0.2288706416
)


100
(
0.3902869948
-0.4207928364
-0.5119102968
-0.5003876984
-0.3856924513
-0.3404631866
-0.2715819287
-0.2425478892
-0.1885213304
-0.1654342563
-0.1364298615
-0.1070478523
-0.09158619765
-0.07336925619
-0.05518781166
-0.0432087786
-0.03350838561
-0.02187019463
-0.01284771293
-0.00671283434
-0.001524953968
0.00422489807
0.008950503042
0.01218185943
0.01480030905
0.01742935167
0.01995628034
0.02168419791
0.02263769985
0.02404371729
0.02572349083
0.02731238505
0.02725164597
0.02694132278
0.02690225129
0.02674448782
0.02612214991
0.02581739785
0.02534494796
0.02536780104
0.02594638212
0.0263062839
0.0264944104
0.0267408846
0.02662538023
0.02676896696
0.02679742996
0.02628896202
0.025427601
0.02455507198
0.02333738964
0.02261206654
0.02219395863
0.021861135
0.02151769277
0.02124881989
0.02088625799
0.02110007283
0.02097043697
0.0205928969
0.02020361185
0.01946584905
0.01885620911
0.01867736665
0.0185740428
0.01827086207
0.01799626776
0.01797803483
0.01803013285
0.01779695478
0.01760773596
0.01741645256
0.01739843693
0.01731241077
0.01716025384
0.01709815752
0.01709682473
0.01693044771
0.01670824488
0.01669438497
0.01662508708
0.01653678609
0.01651708653
0.01634917201
0.01630237829
0.01617164459
0.01607241754
0.01595980993
0.01581513129
0.01537784482
0.01495952581
0.01421277777
0.0132741454
0.01226773807
0.01287649141
-0.00437994909
-0.1354341314
-0.2486567456
-0.2400715576
-0.2109657776
)


100
(
0.1801312276
-0.4422800894
-0.5528926777
-0.4818596062
-0.399990244
-0.3615820205
-0.2886125832
-0.2549443703
-0.2169139443
-0.1782943261
-0.1584560369
-0.1279197489
-0.1037484648
-0.0891355048
-0.07177397533
-0.05498336881
-0.04414155513
-0.03565656226
-0.02479179101
-0.01600371648
-0.01007182553
-0.005252060922
0.0003848154457
0.005434788569
0.008680620586
0.01117364519
0.0136055836
0.01596722822
0.01771060985
0.0183147537
0.01899001318
0.02004618048
0.02103923233
0.02143833868
0.02148318291
0.02120472199
0.02141299526
0.02165942661
0.02183679354
0.0222671176
0.02256287317
0.02306924062
0.02380161741
0.02399451921
0.02411991787
0.02387799775
0.02309263961
0.02231980335
0.02163017661
0.02071523406
0.0200190373
0.01947093962
0.01908707551
0.01926384426
0.0196138928
0.01947976879
0.019348585
0.01896478887
0.01838555451
0.01805523432
0.01775817112
0.01747819755
0.01713472016
0.01686497733
0.01715032682
0.01727521828
0.01709876943
0.01688489437
0.0166172867
0.01650907877
0.01643587334
0.01629451166
0.0162106806
0.01626863105
0.01627001493
0.01619712992
0.01620015225
0.0162053335
0.01601271979
0.01583589247
0.0158199095
0.01572166063
0.01564431966
0.0154910068
0.01534240318
0.01526077893
0.01516003126
0.01495793723
0.01463957276
0.01407700121
0.01334288361
0.01269430861
0.01148904878
0.0105628349
0.0116254032
-0.02102937492
-0.1454849199
-0.2471511591
-0.2145234217
-0.1670945577
)


100
(
0.04888456233
-0.436351243
-0.5333631654
-0.4650863133
-0.4348386536
-0.3595528997
-0.3204976926
-0.2631354742
-0.2434529848
-0.2007835413
-0.1725394006
-0.1536488726
-0.1232321917
-0.1022515537
-0.08900847547
-0.0725763685
-0.05676605192
-0.04646420049
-0.03904184242
-0.02896385444
-0.02013151043
-0.01405565564
-0.009604000919
-0.004417465652
0.0007529844118
0.004269689823
0.006375931398
0.008129540863
0.009869128895
0.01123235849
0.01190468074
0.01201402194
0.01275584393
0.01362313535
0.01449100551
0.0154518325
0.01622694723
0.01701197314
0.01779437829
0.01849693642
0.01920513472
0.01979850052
0.0197987584
0.01977119272
0.01955308641
0.01903150288
0.01837171365
0.01766977554
0.01673609055
0.01650412775
0.01643409673
0.01647297844
0.01671327559
0.01691345743
0.01684883324
0.01675734101
0.01653078254
0.01606106473
0.01573856689
0.01526646151
0.01517693151
0.01539486715
0.01554448319
0.01560194965
0.01554979586
0.01547323921
0.01542056366
0.01533575048
0.01514709127
0.0149979462
0.01504163368
0.01509481365
0.01495385636
0.01481772517
0.01483824864
0.01483218998
0.01471221149
0.01466702137
0.01465173271
0.01448194429
0.01440531629
0.01427154905
0.01395051229
0.0138903389
0.01374353859
0.01364394804
0.01331559346
0.01296930289
0.01244079908
0.01187227796
0.01093587468
0.01027565191
0.008594270435
0.007815740874
0.009763086759
-0.03461433719
-0.1418051392
-0.2342605875
-0.1983149266
-0.1541983789
)


100
(
0.1191661842
-0.4006114925
-0.5046521376
-0.4773370885
-0.4475002314
-0.3636660248
-0.3365905139
-0.2855211088
-0.2537535001
-0.2301506281
-0.1895369516
-0.1678484722
-0.1481334303
-0.1206840589
-0.1021636728
-0.09058531969
-0.07515256152
-0.05991106989
-0.04981334406
-0.04318414048
-0.03405342232
-0.02508938675
-0.01872071624
-0.01473218284
-0.01062857174
-0.005713171621
-0.002289156597
-0.0005379005872
0.0004992032027
0.001302137581
0.002389379308
0.003592250328
0.004799611421
0.006044541488
0.007195268342
0.00848464784
0.0102335916
0.01208784897
0.01317624077
0.0139121484
0.01442150578
0.01475968902
0.01485854816
0.01451077826
0.01360812195
0.01284811434
0.01230804663
0.01201433499
0.01220601803
0.01269351927
0.01296857939
0.01332595105
0.013541034
0.01360480807
0.01355234895
0.01334948103
0.01275828491
0.01248874294
0.01239915455
0.01252458958
0.0129150469
0.01312445229
0.01346765568
0.01357056659
0.01348011548
0.01333661675
0.01314729917
0.01314411731
0.01318763698
0.01310971953
0.01298824231
0.01294724857
0.01301431615
0.0129380264
0.01287273733
0.01289024546
0.0127316613
0.01247104022
0.01243486903
0.01235283307
0.01207858944
0.01195175589
0.011590351
0.01152712596
0.01129878179
0.01089922381
0.01045873048
0.009939754298
0.009348357442
0.008558533034
0.007492832935
0.006210977812
0.005000422281
0.004074292079
0.007091163525
-0.03999236089
-0.1285825579
-0.216711989
-0.1804452713
-0.1270163792
)


100
(
0.2764159231
-0.3664451343
-0.4891546741
-0.5012036557
-0.4312880829
-0.3897150099
-0.3373992273
-0.3148292331
-0.2651185727
-0.2453609964
-0.2172194223
-0.1814581545
-0.1645254846
-0.1451775039
-0.1198750007
-0.1031500844
-0.09311090441
-0.07881117707
-0.06412580776
-0.05391851543
-0.04803012809
-0.04024372598
-0.03135159868
-0.02509023837
-0.0212885038
-0.01839679185
-0.01488152159
-0.01185166141
-0.009890508604
-0.0086747053
-0.007833455908
-0.006798122615
-0.004482552524
-0.001724203503
0.0006480406434
0.002218379144
0.003416819432
0.005108168497
0.007079885901
0.008378965403
0.008460318273
0.008112199399
0.007563137806
0.007065199901
0.00673371777
0.00666057007
0.006695156194
0.007006377708
0.007353584238
0.008048675771
0.009025323399
0.009577092868
0.009434718026
0.009146880621
0.008863215427
0.008706587688
0.008804004421
0.00904839217
0.009370227953
0.009688660991
0.01004483778
0.01047897693
0.01065041102
0.010583203
0.01052132092
0.01048744693
0.01036922812
0.01030059656
0.01040628355
0.01047488965
0.0103180169
0.01015449277
0.0102290845
0.01033366768
0.01017998719
0.009908013585
0.009777424718
0.009593247032
0.00945500205
0.009372260113
0.00886612984
0.008618000936
0.008482934555
0.008212173215
0.007920131229
0.007237778812
0.006648532362
0.006029188295
0.005238615778
0.00434454896
0.002970254841
0.001112832379
7.935069657e-05
-0.0003631582945
0.004425539625
-0.04120485956
-0.1172126278
-0.2049990201
-0.159954434
-0.09889774546
)


100
(
0.2385977966
-0.3558696042
-0.5022069484
-0.4920514872
-0.4217932714
-0.4062585114
-0.3450425533
-0.323012686
-0.2927659331
-0.2558824588
-0.2391824759
-0.2091390518
-0.1778040751
-0.1632231896
-0.1446513876
-0.1210541973
-0.1051455361
-0.09656907601
-0.08386552257
-0.06960175686
-0.05905994364
-0.05391332188
-0.04843559503
-0.03983772845
-0.03398440862
-0.03026261436
-0.02849716251
-0.02693559257
-0.0236478191
-0.02054917498
-0.01745758509
-0.01548960675
-0.01408149611
-0.01150351973
-0.007810273479
-0.004518799537
-0.002698342767
-0.001907402378
-0.001267072803
-0.000223164706
0.0004025013557
0.0003193509638
-0.0003139822791
-0.0008157461624
-0.001153123307
-0.0006635360571
0.0006734681608
0.002153246721
0.002928486666
0.003255189409
0.003486290018
0.003890382582
0.00413012585
0.004017072633
0.003882355092
0.003925443699
0.004202127364
0.005059537942
0.006072837947
0.006527858858
0.006618149923
0.006672702854
0.006755527408
0.006714649145
0.006707933308
0.006850476327
0.006970559153
0.006947128169
0.006833641116
0.006811379456
0.006801132165
0.006653249119
0.006557817838
0.006589675191
0.006441398933
0.006053352141
0.005927262582
0.006018115041
0.00556883697
0.00500968277
0.004627479974
0.004373734769
0.00455084705
0.003905571981
0.003161020557
0.00224143788
0.001491662156
0.0007625101845
-9.903252113e-05
-0.001061816343
-0.00248865622
-0.004408585368
-0.005918008281
-0.006038453599
0.0009326284653
-0.05789689111
-0.1065393829
-0.1938435922
-0.1403182677
-0.07446579741
)


100
(
0.1328961051
-0.3492464058
-0.4993127212
-0.4664412673
-0.438733674
-0.3972990019
-0.3689469456
-0.3264811942
-0.3159885383
-0.2798895575
-0.2526156151
-0.2370664997
-0.2044557078
-0.1769071892
-0.1640135896
-0.1464934188
-0.1242332168
-0.1087953156
-0.1012622301
-0.09070589977
-0.07695352051
-0.06711852994
-0.06162032321
-0.05767726459
-0.05161961665
-0.04632826839
-0.04257043511
-0.03994464437
-0.03814340794
-0.03522192672
-0.03048852059
-0.02546961745
-0.0216636561
-0.0199305952
-0.01820313898
-0.01452971898
-0.01121704419
-0.009459750388
-0.00923319688
-0.009783890498
-0.01050529953
-0.01031273517
-0.009621647299
-0.008368798279
-0.007308008718
-0.006911997542
-0.006412979025
-0.004632502144
-0.002916904108
-0.002157220847
-0.002326730079
-0.002754560661
-0.003056053872
-0.00262562644
-0.0015681616
-0.0004334823493
0.0001312389258
0.0004781051749
0.001297597531
0.002054778854
0.002190885313
0.002070552624
0.002074011382
0.002110708262
0.002100755997
0.002157452575
0.00230221187
0.002370309442
0.002279380233
0.002170779964
0.002283274178
0.002379344531
0.002184480794
0.001784304356
0.001489793915
0.001129245892
0.0009303352846
0.0009849668815
0.0005008637838
-0.0002438895909
-0.0002435748023
-0.0007312016602
-0.001014882905
-0.00169253706
-0.002661870942
-0.003703808685
-0.004697626179
-0.005752339592
-0.006758847791
-0.007865666021
-0.009167407039
-0.0110755505
-0.01284338532
-0.01232981649
-0.001713128105
-0.07906426844
-0.09037731867
-0.1845660547
-0.122895739
-0.04885888244
)


100
(
0.05552125879
-0.3251056411
-0.468561746
-0.4535043282
-0.4511280986
-0.3882709662
-0.3802261719
-0.3442420666
-0.3228772262
-0.3090198068
-0.2715221008
-0.2496128932
-0.2345522443
-0.2018121509
-0.1771392757
-0.1662055545
-0.150142246
-0.1294747273
-0.1139555391
-0.107535009
-0.1004452964
-0.0870769333
-0.07802846932
-0.07214372255
-0.06970088606
-0.06723708285
-0.06132778573
-0.0558102674
-0.05019513324
-0.04732974458
-0.04527103595
-0.03949642759
-0.03331143968
-0.02829311882
-0.02603696176
-0.02501475126
-0.02346886267
-0.02095853981
-0.01988824139
-0.0196258354
-0.01984986213
-0.02010079447
-0.02004809645
-0.01786330712
-0.01493699853
-0.01246102168
-0.01172617036
-0.01164255116
-0.01130687502
-0.01035346171
-0.01003444905
-0.009676129778
-0.009257218157
-0.009101713054
-0.008287852111
-0.006312597414
-0.004619665203
-0.004172287534
-0.004244585596
-0.004225835637
-0.003984441703
-0.003901066701
-0.003754346716
-0.003501268811
-0.003306835335
-0.003265034785
-0.003338678735
-0.003298215152
-0.003244523736
-0.003451409404
-0.003608187334
-0.003641380234
-0.00380868725
-0.004306116778
-0.004573987466
-0.004508741357
-0.004803764128
-0.00548681054
-0.006205194385
-0.006742767007
-0.006618556445
-0.006843984145
-0.007816036882
-0.008957282767
-0.01000925956
-0.01091762123
-0.01203534111
-0.01335259406
-0.01467514499
-0.01583662521
-0.01744296228
-0.01922001743
-0.02111974103
-0.01979297407
-0.005057113924
-0.0920404558
-0.06952073891
-0.1741839307
-0.1069946611
-0.02688167565
)


100
(
0.158798192
-0.2962777785
-0.4410322704
-0.4590503343
-0.4318855912
-0.4027669628
-0.3767678505
-0.3675473783
-0.3322682794
-0.3193913507
-0.2997019803
-0.2647135663
-0.247070218
-0.2320250239
-0.2018303998
-0.1785882957
-0.1696540253
-0.1560902704
-0.1368921182
-0.1227921315
-0.1156508074
-0.1103589833
-0.1006855661
-0.09262532064
-0.08676425507
-0.0836044864
-0.08108764671
-0.07574738713
-0.06815621153
-0.06031265398
-0.05501492523
-0.05276488321
-0.04886395206
-0.04241633216
-0.03736986887
-0.03470782395
-0.03431274302
-0.03468825948
-0.03436162214