/*--------------------------------*- C++ -*----------------------------------*\
| =========                 |                                                 |
| \\      /  F ield         | OpenFOAM: The Open Source CFD Toolbox           |
|  \\    /   O peration     | Version:  2.3.1                                 |
|   \\  /    A nd           | Web:      www.OpenFOAM.org                      |
|    \\/     M anipulation  |                                                 |
\*---------------------------------------------------------------------------*/
FoamFile
{
    version     2.0;
    format      ascii;
    class       dictionary;
    location    "constant";
    object      PM22;
}
// * * * * * * * * * * * * * * * * * * * * * * * * * * * * * * * * * * * * * //

PM22_table
100
(

100
(
0.1352318494
-0.02850894241
-0.02582402882
-0.01234995738
-0.01115020272
-0.002776741613
-0.0005970205962
0.003156927295
0.003486387815
0.006418724085
0.00679655942
0.007422788295
0.008928246276
0.008654631244
0.007862783192
0.008992508478
0.009589226299
0.007077450372
0.008015075564
0.009050805854
0.007239709811
0.006782792429
0.007628636806
0.007807250689
0.005742607198
0.006433673248
0.007239145289
0.006902579019
0.004820248473
0.005362737294
0.006079688063
0.005640202251
0.00441979343
0.004969691602
0.005586893511
0.00559338465
0.003986892786
0.003478171192
0.003988887303
0.004083259247
0.003081025249
0.002497809949
0.002934614211
0.003077022625
0.002514398331
0.002039716954
0.002428627771
0.002851779418
0.002024303621
0.00123397797
0.001092710281
0.001319608234
0.0008916996402
0.0004671549275
0.0003882035166
0.0005100379808
0.0003637018117
0.0002233459347
0.0003156101983
0.0004627807709
0.0002893889211
-0.0005336767243
-0.0005771281157
-0.0003779519704
-0.0006550772137
-0.001483156425
-0.001402951502
-0.001361093515
-0.002058174727
-0.002468563555
-0.002384977189
-0.002682315941
-0.0035053542
-0.003341696286
-0.003673411706
-0.004171260458
-0.004367272159
-0.004670434361
-0.005038544811
-0.00520564638
-0.0055813266
-0.005883332229
-0.006083679402
-0.006482698167
-0.006600467439
-0.006985663426
-0.007057891251
-0.007396530901
-0.0076324907
-0.007899051783
-0.008151813817
-0.008446588437
-0.008702756815
-0.008916613574
-0.009130367629
-0.009255179577
-0.009314942078
-0.00889978083
-0.001142387873
0.008168624019
)


100
(
0.1560372015
-0.02537330086
-0.02405863307
-0.01571859107
-0.01523545484
-0.007084820445
-0.004308033726
-0.001233272843
0.000449003374
0.002298712106
0.003107590612
0.004216849426
0.00491716081
0.005371946749
0.00518525704
0.005417203101
0.005852055064
0.005495521993
0.004948836604
0.005532690034
0.005333925434
0.004809982333
0.004689635682
0.004931556738
0.004592180269
0.004191514154
0.004320919673
0.004336387529
0.003903311138
0.003468428482
0.003360763461
0.003350370755
0.003168770396
0.002979750333
0.002920938986
0.003053124955
0.002626294378
0.002280996547
0.001907633289
0.00174432454
0.001509472358
0.001323229538
0.001136084095
0.0008400225913
0.0007662692187
0.0007199787062
0.0006832771116
0.0006171045564
0.0002643118455
8.297096515e-05
-8.316661157e-05
-0.0003116320311
-0.0008120734389
-0.0009107518908
-0.0009575646329
-0.001093129176
-0.001577344465
-0.001517698328
-0.001439059916
-0.001509586166
-0.002117203855
-0.002295133922
-0.002745757851
-0.002977581118
-0.002941383516
-0.003112814549
-0.003603910216
-0.003952837438
-0.003878696102
-0.00425824474
-0.004639260773
-0.004812993916
-0.005006730263
-0.005312091078
-0.005531159988
-0.005905005977
-0.006342187352
-0.006442039827
-0.006757435983
-0.007060746427
-0.007080550242
-0.007420582389
-0.007628721243
-0.007896276628
-0.008128826472
-0.008384290429
-0.008632458815
-0.008761012342
-0.009052073433
-0.009247333361
-0.009400950491
-0.009569768494
-0.009799005374
-0.009951206668
-0.01016805273
-0.0104019953
-0.01078957673
-0.01335097925
-0.008134701394
-0.4980298544
)


100
(
0.06118444736
-0.02844490057
-0.0284969363
-0.0290860839
-0.02532773949
-0.01418606078
-0.01391049985
-0.007254787468
-0.006105414457
-0.002866535971
-0.001740029646
-0.0002673412771
0.0005940510402
0.001194479285
0.001797646385
0.001867422367
0.002122968534
0.002581993583
0.002420531294
0.002079721502
0.002531230446
0.002486687589
0.00210477895
0.001818154793
0.002220789015
0.001860043904
0.001507222893
0.001293106327
0.001667947635
0.001236669582
0.0008237453136
0.000417280813
0.0006190663379
0.000360341249
0.0001187351826
-0.0001158409197
-6.881205308e-05
-0.0001061670682
-0.0004856953447
-0.0008528552012
-0.001189079436
-0.001350848913
-0.001575100157
-0.001829653024
-0.002084310981
-0.002486620446
-0.002626893643
-0.002762587844
-0.002920754802
-0.003550196448
-0.003544903042
-0.003764724476
-0.004064773742
-0.004856897945
-0.005028508341
-0.005066894533
-0.005357428772
-0.006354179601
-0.006418426039
-0.00592672257
-0.005803206546
-0.006486430579
-0.007313188898
-0.007941020525
-0.007755505712
-0.007450730106
-0.007881920853
-0.008230539738
-0.008159666228
-0.008402621954
-0.00886999952
-0.00895545767
-0.008945612966
-0.009658942579
-0.009501623728
-0.009235048825
-0.01013196787
-0.01052721479
-0.01036528173
-0.01118889006
-0.01099426324
-0.01115962699
-0.01161370904
-0.01138559836
-0.01203690481
-0.01196061928
-0.01236368339
-0.01239949979
-0.01243245288
-0.01259036936
-0.01273661269
-0.01274416362
-0.01271263634
-0.012916306
-0.01303343175
-0.01331286615
-0.01603769637
-0.02377085669
-0.1352432674
-0.2079661813
)


100
(
-0.01847320526
-0.04474663311
-0.04379414856
-0.04594827243
-0.02849722435
-0.02259625663
-0.01771572003
-0.0129847766
-0.009134356629
-0.006974578227
-0.003832394547
-0.002784490587
-0.001288473024
-0.0004188112652
0.0001649457004
0.0007094050895
0.0008706568841
0.001147020867
0.001531635558
0.001380988282
0.001115644265
0.001349514369
0.001375291343
0.0009871602431
0.0005622153338
0.0007404745625
0.000579811332
0.0001863788907
-0.0002170821764
-0.0001469561274
-0.0002120145072
-0.0006907041953
-0.001169315268
-0.001534590857
-0.001449491561
-0.001769344885
-0.002127271484
-0.002790925524
-0.002576881011
-0.002718650753
-0.003206491843
-0.003849660076
-0.004509942509
-0.004337988643
-0.004635337307
-0.005339619942
-0.006702840044
-0.006524107108
-0.006431472879
-0.007120823888
-0.008523526999
-0.008459987529
-0.007991865234
-0.008615096568
-0.00978810517
-0.009945247908
-0.009182890022
-0.009963005885
-0.011135379
-0.01122011669
-0.01009689722
-0.009645203711
-0.009910133349
-0.01064490574
-0.01132290853
-0.0113298371
-0.01126009827
-0.0116257671
-0.01195733577
-0.01208755986
-0.01235479127
-0.01273375019
-0.01288287547
-0.01301913673
-0.01346311039
-0.01323700514
-0.01279207336
-0.01366059691
-0.01374888205
-0.01381827818
-0.01461327964
-0.01429263753
-0.0145387938
-0.01448748509
-0.01452957981
-0.01458453545
-0.01470217118
-0.01484980657
-0.01466127066
-0.01450234043
-0.01438535671
-0.01462782711
-0.01433513291
-0.01430617737
-0.01444362266
-0.01468179139
-0.02079714196
-0.05238452967
-0.3676883983
-0.4861932301
)


100
(
-0.04631612005
-0.06242198879
-0.06171356554
-0.04622298286
-0.03196212516
-0.03304343391
-0.01985401554
-0.01912123132
-0.0113511223
-0.009255274066
-0.006181250827
-0.003773397817
-0.002808710769
-0.001290765938
-0.0004953709531
4.544585528e-05
0.0005068870946
0.0006638342426
0.0008891692612
0.001263680445
0.001065127104
0.0007658960367
0.0008058326642
0.000964094741
0.0005067726885
1.103336309e-05
-0.0001566170862
-7.804032903e-05
-0.0005297620724
-0.001014086841
-0.001452680376
-0.001217642809
-0.001649097623
-0.002266263105
-0.003342613896
-0.003151393348
-0.003186837261
-0.003675028437
-0.005461234577
-0.005370722988
-0.005124407853
-0.005210053029
-0.006756849259
-0.007636721453
-0.007336859094
-0.006665891068
-0.008245300335
-0.009997113051
-0.009614408943
-0.008696866188
-0.009853583343
-0.01127858281
-0.01127577931
-0.01060850085
-0.01127823726
-0.01239742469
-0.01250253086
-0.01186429511
-0.01231068376
-0.01322121912
-0.0135109528
-0.01306775019
-0.01283158266
-0.01298984863
-0.01349877307
-0.01412243977
-0.01430563211
-0.01451341862
-0.01487771653
-0.01499211277
-0.01508469035
-0.01518733183
-0.01527902957
-0.01500981832
-0.01506144521
-0.01550889545
-0.01490010757
-0.01523524675
-0.0155794239
-0.01505505418
-0.01526376329
-0.01543449986
-0.01532033674
-0.01539678357
-0.01525261899
-0.01506600782
-0.01497865984
-0.01497984265
-0.01495867671
-0.01465939506
-0.01435219896
-0.01433981496
-0.01426360873
-0.01392947485
-0.0137243212
-0.01449761758
-0.02415606486
-0.1178615179
-0.4534041595
-0.4699112924
)


100
(
0.00708599415
-0.05425958316
-0.05930739601
-0.04641148189
-0.04341774106
-0.03535470954
-0.02585233878
-0.02080795021
-0.01610026283
-0.01039847613
-0.009023641744
-0.005252530829
-0.00348057209
-0.002402068587
-0.001043068595
-0.0003299599237
0.0002121267151
0.0006415748382
0.0007783703379
0.0009690931656
0.001384801096
0.001223228134
0.0008702320623
0.0006725217433
0.0009722727152
0.0004714378547
-0.0001998519726
-0.0004048285965
-9.576663164e-05
-0.0003949374283
-0.001211406394
-0.002201349173
-0.001951381452
-0.001736232576
-0.002895306082
-0.004542540288
-0.00432250131
-0.003477282468
-0.004675477173
-0.006833210499
-0.006763905643
-0.006191165328
-0.006199892207
-0.008039210064
-0.008899160027
-0.008043214552
-0.007451846604
-0.009218268163
-0.01093226816
-0.0102200581
-0.009644184479
-0.01068517319
-0.01187454289
-0.01195016436
-0.01148606087
-0.01192392757
-0.01265246709
-0.01275682317
-0.01265885453
-0.01265329609
-0.01300661653
-0.01342616384
-0.01378792536
-0.01401779413
-0.01407548222
-0.01431003939
-0.01456556239
-0.01454858444
-0.01469059725
-0.0147636183
-0.01479603376
-0.01484638806
-0.01507706658
-0.01514345566
-0.01482037545
-0.01499411265
-0.01493608228
-0.01442464797
-0.0145473034
-0.01454466363
-0.01444484231
-0.01416820044
-0.01420976007
-0.01420715843
-0.0140716897
-0.01388771494
-0.01366315483
-0.01350528246
-0.01341462679
-0.01321994239
-0.0129889344
-0.0126379105
-0.01259114044
-0.01222394561
-0.01187276173
-0.01429623036
-0.02925350976
-0.1989744651
-0.4818672822
-0.4556550873
)


100
(
0.09144035888
-0.04873327272
-0.05698218792
-0.05460595261
-0.05693551781
-0.03632810559
-0.03480059542
-0.02192450277
-0.02043146616
-0.0134820361
-0.01008824599
-0.00783823687
-0.004494457063
-0.003117646896
-0.001935038765
-0.0007272845677
-3.538785645e-05
0.000593553559
0.001058906534
0.001187876526
0.00132107028
0.001807843488
0.001715550538
0.001209390449
0.00057757951
0.0009090675543
0.0007280426973
-8.611262494e-05
-0.000215178301
0.0001001920581
0.0003839312719
-0.001487128057
-0.00246333992
-0.002164339391
-0.001198013568
-0.003283265823
-0.004908363226
-0.004541954227
-0.002867062674
-0.004820345522
-0.006987265168
-0.006922378866
-0.005708162014
-0.006338718141
-0.008193861486
-0.008859086373
-0.007814816901
-0.007396726052
-0.009063950653
-0.01018310916
-0.009845727608
-0.009380040113
-0.009906219352
-0.0105542903
-0.01094635926
-0.01117489569
-0.01119981564
-0.01124333696
-0.01161252418
-0.01196052809
-0.01204760807
-0.01183012834
-0.01201279253
-0.01236268152
-0.01259286352
-0.01257764298
-0.01273370921
-0.01276225977
-0.01281773507
-0.01305227907
-0.0132264088
-0.01317911664
-0.01326441462
-0.01341005305
-0.01334713968
-0.01305519731
-0.01307584695
-0.01289767348
-0.01284231773
-0.01254450617
-0.01263971527
-0.01257633407
-0.01225211329
-0.01208637002
-0.01184396365
-0.01186330529
-0.01162784857
-0.01151081676
-0.01141029253
-0.01127399821
-0.01106393072
-0.01095849112
-0.01061858945
-0.01030027365
-0.01010239528
-0.01421569165
-0.03947572176
-0.2717555626
-0.4899558563
-0.3985190725
)


100
(
0.06688237876
-0.04776622632
-0.06258401174
-0.06997453453
-0.05582208104
-0.04306392346
-0.03720770707
-0.02777308528
-0.02168428171
-0.01831063053
-0.0113923021
-0.009334283129
-0.00660300811
-0.003766896153
-0.002587424187
-0.001356123512
-0.0002623850881
0.0004212906915
0.001182488569
0.001647844529
0.001648923562
0.001509539949
0.002004962667
0.002115961323
0.001528213925
0.0007019730147
0.000779797403
0.000522909154
-0.0004047176548
-0.0004009285134
0.000216953249
0.0006079057234
-0.001908989191
-0.00277763336
-0.001947851059
-0.001326352596
-0.003656782182
-0.005190859431
-0.003937323187
-0.003065671459
-0.004943959531
-0.007012668718
-0.006468352713
-0.005879677924
-0.006520845579
-0.008137580098
-0.008316623162
-0.007659181029
-0.00713481859
-0.008134969656
-0.008479491605
-0.008925832781
-0.008939941809
-0.008802346218
-0.009012110206
-0.009631390409
-0.01028238886
-0.01050102125
-0.01038024494
-0.01054466932
-0.01081394678
-0.01098088317
-0.01092726793
-0.01078203114
-0.01078679386
-0.01078407888
-0.01109660996
-0.01142158246
-0.0113271617
-0.01127760639
-0.01146126644
-0.01161965527
-0.01154269459
-0.01147532457
-0.01134413645
-0.01142462715
-0.0114548727
-0.01122765884
-0.01138137173
-0.01133003651
-0.01100323429
-0.01088194911
-0.010613906
-0.01068873757
-0.01048884741
-0.0102839104
-0.0102555929
-0.01023994047
-0.01021458759
-0.01008380276
-0.009950190926
-0.009784584466
-0.009741022717
-0.009359351789
-0.009085864338
-0.01495930083
-0.05630229203
-0.3089631853
-0.4779731961
-0.4244275371
)


100
(
0.02051973002
-0.05830513883
-0.07718570516
-0.07480311051
-0.05402213159
-0.05367371781
-0.03706403117
-0.03520974219
-0.02279367619
-0.02007385385
-0.01511475166
-0.0098791102
-0.008340227111
-0.005436846689
-0.002978572955
-0.001860293815
-0.0006320417107
0.0003295689577
0.0009086809775
0.001601597131
0.002029749704
0.001902532822
0.001420588057
0.001890638907
0.0023578703
0.001683859649
0.0008052202705
0.0002986773624
-0.0001598588926
-0.001096439317
-0.0009929282745
0.0006373761579
-0.0001584201435
-0.002649117219
-0.003408283814
-0.001747305387
-0.002110855145
-0.00439953664
-0.005572777665
-0.004268197367
-0.003832696832
-0.005438042037
-0.006946389967
-0.006689614962
-0.006180634989
-0.006458565866
-0.007136374827
-0.007464652399
-0.007643596012
-0.007295946178
-0.00724499584
-0.007642652024
-0.008370315729
-0.008966116883
-0.008984927557
-0.008570220038
-0.00891860779
-0.009396579595
-0.009733706824
-0.009843518363
-0.009802515719
-0.009844717206
-0.009836565132
-0.01011993077
-0.01045152442
-0.01035315872
-0.01006565924
-0.01028438038
-0.01055841583
-0.01055677133
-0.01035788334
-0.01018558945
-0.01018282043
-0.01047770618
-0.01052498411
-0.01038511285
-0.01061760985
-0.01058761272
-0.01033527649
-0.01027461987
-0.01008986468
-0.01018412798
-0.01010097232
-0.009938688001
-0.009920467832
-0.009820545753
-0.00983599671
-0.009817302976
-0.009801841368
-0.009761335548
-0.009641678224
-0.00960125294
-0.009186811523
-0.009245674818
-0.009478505147
-0.01659797639
-0.07880283294
-0.3229192729
-0.4495588176
-0.3896033949
)


100
(
-0.001730460767
-0.06394521514
-0.08134986367
-0.06999614649
-0.06126418793
-0.05584611934
-0.04137757812
-0.03558393786
-0.02833631379
-0.02044654319
-0.01837695954
-0.01261359037
-0.008879928836
-0.007243549356
-0.004345364119
-0.002123442147
-0.001054246711
3.939914292e-05
0.0007416668962
0.001082113768
0.001683079881
0.002150503058
0.001903326051
0.001345722979
0.001380718435
0.001890465056
0.001496936986
0.0006373269074
-0.0003423043059
-0.001113216895
-0.002037593499
-0.001431912771
6.189643415e-05
-0.00119119513
-0.003611843714
-0.003621050078
-0.002722950324
-0.003159725251
-0.005242920928
-0.005641722246
-0.005033199414
-0.004481477059
-0.005485662651
-0.005982234593
-0.006516736407
-0.006410572883
-0.006193182309
-0.006452763311
-0.007058278536
-0.00776128954
-0.008255572439
-0.007727860587
-0.007648473125
-0.00814923539
-0.008693427717
-0.008906220446
-0.008998141902
-0.008687036705
-0.008727891792
-0.008820595084
-0.00926893272
-0.009691085218
-0.009580693253
-0.009403400828
-0.009698018906
-0.01004290711
-0.0100477456
-0.009839347791
-0.009610911036
-0.009535763554
-0.00980233667
-0.01004057856
-0.009771136273
-0.009834382784
-0.01022395913
-0.01019202154
-0.01005377636
-0.01008162373
-0.009971310021
-0.0100342112
-0.01007651803
-0.01000503182
-0.01011083151
-0.009942255946
-0.01000716212
-0.01009633889
-0.01008302483
-0.01019339521
-0.01014850633
-0.01007666187
-0.01001073354
-0.01000198686
-0.009692475654
-0.00939691552
-0.01012179643
-0.02029396793
-0.1109667293
-0.328384505
-0.4021217462
-0.3440910529
)


100
(
0.007541333758
-0.05747462996
-0.07585070704
-0.06811342531
-0.07304525977
-0.05370547935
-0.05010706817
-0.03519449749
-0.03357704446
-0.02375405757
-0.01911789195
-0.01666783906
-0.01088764695
-0.007860314197
-0.006152418588
-0.003392665836
-0.001508198855
-0.0006096187815
0.0002684725217
0.000880329624
0.001020347834
0.001487726167
0.002047918611
0.001759171408
0.001242620936
0.0008714276479
0.001316066134
0.001366412795
0.0005843288968
-0.0003210964744
-0.001835320792
-0.002729233785
-0.001151378349
-0.0007056587772
-0.001965675373
-0.004071119077
-0.003760241898
-0.003349364005
-0.003525502151
-0.004605532996
-0.005052143636
-0.004947570382
-0.004511648195
-0.004589725296
-0.005104778282
-0.005945896705
-0.006641064947
-0.006506452552
-0.006125870502
-0.006591055168
-0.007261715106
-0.007798384898
-0.007811128837
-0.007621834992
-0.007488198251
-0.007664258584
-0.007843367365
-0.00835208942
-0.008638129914
-0.008331283445
-0.008143946492
-0.008601088006
-0.0090922213
-0.009128891653
-0.008965227043
-0.008873054702
-0.008874775444
-0.009101871684
-0.009393428822
-0.009076140721
-0.0089174632
-0.009305395287
-0.009659258578
-0.009513359381
-0.009496552549
-0.009591740991
-0.00950664379
-0.009541304945
-0.00974826864
-0.009804572043
-0.00994954898
-0.009910060162
-0.009949388568
-0.01012669084
-0.01010856613
-0.01020668444
-0.01017702555
-0.01024033211
-0.01026454047
-0.0102786507
-0.01029290947
-0.01007920054
-0.00975577447
-0.009421171595
-0.01118101173
-0.02507600093
-0.1521601966
-0.3386567619
-0.3644642163
-0.3304696828
)


100
(
0.0416963227
-0.05168615681
-0.07063917998
-0.07922541151
-0.07399715298
-0.05711092549
-0.05332106689
-0.04158107725
-0.03470331243
-0.03046881229
-0.02111197522
-0.01834960038
-0.01491277177
-0.009692869598
-0.007113621191
-0.005683618331
-0.003157453013
-0.001417010709
-0.0005989663302
0.0001713205968
0.0008032731261
0.001013952786
0.001297058153
0.001788779546
0.001773779671
0.001393088279
0.0008123334718
0.001110042509
0.00152328053
0.0009538607647
0.0001998049263
-0.00163468926
-0.00216922987
-0.00116708965
-0.0008449702316
-0.00185396878
-0.002704227
-0.003071993313
-0.002666404493
-0.002576312872
-0.00296832132
-0.003640547959
-0.004369956765
-0.00438116161
-0.003907214266
-0.004086905561
-0.004820807712
-0.005577119352
-0.005916304934
-0.005658664776
-0.005303687849
-0.005705255384
-0.006003279008
-0.006280628452
-0.006701642963
-0.006540814426
-0.006139303567
-0.006336118582
-0.006952308969
-0.007533698916
-0.007491296437
-0.007144631689
-0.00720525456
-0.007354694383
-0.007557302485
-0.007878576322
-0.007638100567
-0.00748233641
-0.007951224194
-0.008371677393
-0.008420185876
-0.008304837823
-0.008441403958
-0.00846492448
-0.008369690148
-0.008358354205
-0.008582787286
-0.008651853705
-0.008860123656
-0.00903637333
-0.009027771603
-0.00922867898
-0.009303403038
-0.009537321694
-0.009494984027
-0.009544291808
-0.009616335065
-0.009553429064
-0.009559524778
-0.009776470685
-0.009626340124
-0.00925791283
-0.008787967627
-0.008210833658
-0.01218966441
-0.03411176403
-0.1923447784
-0.3541306484
-0.3265795997
-0.2867248156
)


100
(
0.04051481155
-0.05039621381
-0.07848214732
-0.09086993113
-0.07092786329
-0.06822179522
-0.05382731236
-0.05180287622
-0.03729096549
-0.03442516655
-0.02807139505
-0.01993112191
-0.0178944928
-0.01411813588
-0.009486400418
-0.007310585283
-0.00606572349
-0.003563785913
-0.001773197929
-0.000932962654
-0.0002343371429
0.0005577766537
0.0009635703363
0.001179555601
0.001639565141
0.001922945666
0.001725453005
0.001359989376
0.00121971469
0.001591831688
0.001632608753
0.001083650486
-0.0004860907294
-0.000867955864
-0.0004403123611
-6.5226826e-06
-0.0003746429922
-0.0007507951564
-0.001491298612
-0.00179360317
-0.001447885028
-0.001476294328
-0.00208246101
-0.00281087911
-0.003411938992
-0.003110389596
-0.002757523914
-0.003035450331
-0.003526461716
-0.003832124792
-0.004150867715
-0.004067177252
-0.003831062023
-0.003784063423
-0.004217236971
-0.004870205423
-0.005306276901
-0.004856940281
-0.004632881642
-0.004946084662
-0.005302509016
-0.005503510792
-0.005562164774
-0.005366738065
-0.005250643814
-0.005742947579
-0.006278865754
-0.006156494082
-0.006130175493
-0.00646554678
-0.006650864889
-0.00676526664
-0.006706230085
-0.006647918879
-0.006701852546
-0.006938348
-0.007192133719
-0.00735635166
-0.007230521897
-0.007320651498
-0.007588648059
-0.007745739277
-0.007936850098
-0.007827151264
-0.008026702855
-0.008120490575
-0.008205093568
-0.008234803082
-0.008509209925
-0.008076761994
-0.008250713699
-0.007765861085
-0.007463713585
-0.007129502155
-0.01178906302
-0.05427151882
-0.2185805053
-0.3720437585
-0.311955926
-0.2676689409
)


100
(
0.01849641807
-0.0548740027
-0.08831520013
-0.08591694925
-0.07477664225
-0.07474294151
-0.05875069486
-0.0547357283
-0.04695067174
-0.03710385276
-0.03495177931
-0.02666487995
-0.02030899981
-0.01840269505
-0.01459582359
-0.01006061123
-0.008011989654
-0.006959773538
-0.004452393404
-0.002512064517
-0.001541711318
-0.0008821787345
5.964137937e-05
0.0007246023098
0.0009675420671
0.001405582182
0.001866516404
0.001879021472
0.001727044009
0.001452697627
0.001577640666
0.001866095874
0.001589090302
0.0009499014106
0.0006613765229
0.0003829275766
0.0005822312212
0.0008031920159
0.0004381466906
-0.0001602206736
-0.0007913497465
-0.0007418442363
-0.0002672601129
-0.0005845409052
-0.001126998404
-0.001575832802
-0.001775801286
-0.001726284113
-0.00150873781
-0.001615108374
-0.001825819098
-0.002320128056
-0.002835157356
-0.002589068644
-0.002141556883
-0.002491006694
-0.003018613905
-0.003311631954
-0.003436984404
-0.003181905026
-0.002974851836
-0.003083530319
-0.00359345669
-0.004105518952
-0.003866304531
-0.003685908147
-0.004139785786
-0.004532724051
-0.004620884154
-0.004692603136
-0.004640463915
-0.004688823821
-0.004739520084
-0.004921089071
-0.005094764885
-0.00530545085
-0.005392491829
-0.005448569444
-0.005418284954
-0.005590304681
-0.005878476512
-0.00589690312
-0.005873159128
-0.00603878684
-0.006234758062
-0.006271557102
-0.00634694042
-0.006376353188
-0.00622284535
-0.006180040147
-0.005772480412
-0.005724371677
-0.005418943348
-0.005687971741
-0.01065085359
-0.07635868119
-0.237576371
-0.3747274678
-0.2781327435
-0.2071250832
)


100
(
0.004991749426
-0.05486552121
-0.08462379096
-0.08123028868
-0.08561295377
-0.07318377435
-0.0697257699
-0.05585666133
-0.05579202265
-0.04428071132
-0.03773227336
-0.0353652491
-0.02644175156
-0.02109313591
-0.01941041614
-0.01556211247
-0.01103823524
-0.008886834445
-0.008068102767
-0.005647159553
-0.003510910608
-0.002298422016
-0.001715356463
-0.0007742268426
0.000117335686
0.0005872644351
0.0008687454411
0.001200201375
0.001437967909
0.001429386699
0.001326458738
0.001075803013
0.001225772315
0.001431977186
0.001297373857
0.001095052268
0.0007095250636
0.0006583461996
0.001030206291
0.001099156361
0.000669889081
0.0002008193386
-0.0001287002506
5.603402202e-05
0.0002764484887
6.514146017e-06
-0.0002989777201
-0.0005310921093
-0.001059299135
-0.0009501546428
-0.0006322025795
-0.0006608431989
-0.001146931254
-0.001667506989
-0.001828460371
-0.001482329583
-0.001276580836
-0.001543891896
-0.001645951193
-0.002169662265
-0.002260483276
-0.001939090519
-0.001933652797
-0.002429985331
-0.002815295385
-0.002944992335
-0.002953462077
-0.003097504321
-0.003133323476
-0.003158675918
-0.0031535106
-0.003144561324
-0.003426076945
-0.003646526943
-0.003846880213
-0.003808400652
-0.003770427882
-0.003838164016
-0.004090161879
-0.004213668854
-0.004248566449
-0.004232143631
-0.004294052091
-0.00451316527
-0.004466101605
-0.004572185656
-0.004695601441
-0.004703982273
-0.004469828327
-0.004207123399
-0.003967485181
-0.003712456539
-0.002994849535
-0.003161807979
-0.008630584861
-0.09053862874
-0.2359307466
-0.3627496498
-0.2616822058
-0.200019325
)


100
(
0.01223143707
-0.04987979038
-0.07866884483
-0.08507528652
-0.08974324549
-0.07382230662
-0.07465754626
-0.06314482082
-0.05748222977
-0.05436991736
-0.04194148556
-0.03805836802
-0.03485758321
-0.02652579191
-0.02183004313
-0.02057376533
-0.0167892841
-0.0121973481
-0.009833439435
-0.009197910257
-0.007034146756
-0.004705108203
-0.003145896309
-0.002688846403
-0.002051000096
-0.0009837868877
-0.0003577177635
-7.471048785e-05
7.484735335e-05
0.0002053413105
0.0003394260028
0.0004507703575
0.0004928503031
0.0005747487273
0.0007758260439
0.0009826097593
0.0009805158082
0.0008686468912
0.000601335071
0.0008155669111
0.001081545423
0.00094027305
0.0006149575283
0.0004208668414
0.0001400670538
0.0001185145439
0.0002052940005
0.0001769423903
-7.746556573e-06
-0.000384553648
-0.0007725465453
-0.0004439851335
-0.0001992366746
-0.0005291057375
-0.0008448863895
-0.0009352575296
-0.001089798282
-0.0009451862095
-0.0006995553294
-0.0009293899483
-0.001450629818
-0.001874500388
-0.001533098906
-0.001409679589
-0.001804980002
-0.002017116177
-0.002110373002
-0.002088331906
-0.00209672813
-0.002134087851
-0.002206068217
-0.002452274609
-0.002625503493
-0.002698864342
-0.002693162984
-0.002703604763
-0.002773069025
-0.002919817976
-0.003122755127
-0.003135489748
-0.002979414959
-0.0031172144
-0.003144428148
-0.003203173615
-0.003201900267
-0.003498274806
-0.003413978145
-0.003132189586
-0.003180599801
-0.002902170508
-0.00261636746
-0.002402805276
-0.00176001899
-0.001689255145
-0.005326330322
-0.09425302762
-0.2190349549
-0.3395641664
-0.2362604551
-0.1627010493
)


100
(
0.02866917139
-0.0449754993
-0.07590939877
-0.09274909232
-0.08468704327
-0.08267892287
-0.07360982662
-0.0735694648
-0.05953329983
-0.0575941437
-0.05149146516
-0.04042187885
-0.03846517601
-0.03483100346
-0.02680883645
-0.02249282562
-0.02166499267
-0.01805537818
-0.01351812761
-0.01076148985
-0.01032073278
-0.008656240259
-0.006178438985
-0.004550115616
-0.00385758066
-0.003533907824
-0.002735593641
-0.002011102265
-0.001514391398
-0.001198843526
-0.001144130948
-0.001057765093
-0.0006316605731
-0.0002042218357
5.840254964e-05
0.0002256439464
0.0004185479717
0.0005755480361
0.0006366888598
0.0005759351889
0.0004566183459
0.0005293915912
0.0005653194648
0.0004320774941
0.000325709219
0.0001768512078
-3.307714715e-05
3.912895046e-05
0.0002552914643
0.000135959735
-9.81121726e-05
-0.0003552907514
-0.0003827124908
-0.0002505183541
-0.0001683118289
-0.000278424214
-0.0004504478095
-0.0008026973979
-0.0008321606143
-0.0004954821885
-0.000665708631
-0.001052030458
-0.001292372907
-0.001362820005
-0.00144598787
-0.001361832478
-0.00134515467
-0.001373653968
-0.001373596725
-0.001440557608
-0.001621007195
-0.0018072335
-0.001863953019
-0.001920104525
-0.00191526165
-0.002011470553
-0.002089160464
-0.002113020535
-0.002057399191
-0.002096729368
-0.002062065907
-0.002258693857
-0.00222196861
-0.002081360609
-0.002182517023
-0.002050508112
-0.001969111397
-0.00182212141
-0.001511783156
-0.001392412137
-0.0009008334822
-0.0003726701317
-2.913836575e-05
0.0001559842707
-0.004344685606
-0.09231899996
-0.2015572827
-0.3125760166
-0.201369026
-0.1216647095
)


100
(
0.02470284048
-0.04430318224
-0.08050653057
-0.09120965339
-0.08184999121
-0.0885688499
-0.07548756748
-0.07517529353
-0.06939977114
-0.05872713016
-0.05805058308
-0.05044408539
-0.04058014749
-0.03936289978
-0.03553257439
-0.02773044272
-0.02327266496
-0.02291211891
-0.01979968008
-0.01523530533
-0.01188745629
-0.01162701607
-0.01098452158
-0.008254895093
-0.006561048115
-0.005413312559
-0.005393614988
-0.005281884083
-0.004154355126
-0.003347287721
-0.002348081704
-0.002170704951
-0.00220941086
-0.001793364912
-0.001038589417
-0.0004910238294
-0.0002536894036
-0.0002185363333
-0.0001592841126
-2.406033352e-05
3.617743046e-05
2.492999322e-05
-1.637325629e-05
-4.887169387e-05
-8.506693038e-05
-4.700661207e-05
3.091154176e-05
3.293052437e-05
-8.25796694e-06
8.288662132e-05
0.0001217975249
3.239289846e-05
-2.602534093e-05
-9.113686544e-05
-0.0001410649462
-0.0001043469901
-2.133853966e-05
-0.0001875573139
-0.0004612542099
-0.000588177351
-0.0004447160676
-0.0004371220781
-0.0006399109495
-0.0007197962827
-0.000733805861
-0.0007546197233
-0.0007735287255
-0.0007955828304
-0.0008860128399
-0.001041827869
-0.0011044139
-0.001015197338
-0.001002778655
-0.001026497427
-0.001082429188
-0.001119179271
-0.001203067716
-0.001278959653
-0.001193207509
-0.001061961671
-0.00103331667
-0.0009841509507
-0.001108733973
-0.001006993406
-0.0008501223088
-0.0005426190812
-0.0003742634115
-0.0002173779982
3.079351982e-05
0.0003093891647
0.0007500422738
0.001163800191
0.001703568085
0.002373227946
-0.0009015109106
-0.1029700957
-0.1844393467
-0.2876560546
-0.1701614358
-0.09086083197
)


100
(
0.01372423012
-0.04461103653
-0.08163894548
-0.08494379621
-0.08835834903
-0.08553638306
-0.08444774169
-0.0749814768
-0.07750470445
-0.06721767936
-0.06076163215
-0.06044036864
-0.05062949273
-0.04186705322
-0.0410410048
-0.03719534309
-0.02950319199
-0.02472755386
-0.0245944986
-0.02232179897
-0.01768473679
-0.01450081056
-0.01346298603
-0.01321208121
-0.01138341932
-0.00963790375
-0.008191859197
-0.007276025614
-0.007318914575
-0.006793552751
-0.005472768992
-0.003978591174
-0.002967578537
-0.003101168533
-0.003191023231
-0.002203000961
-0.00145411383
-0.001071090349
-0.001024924474
-0.001182651332
-0.001358039699
-0.001156022818
-0.000986599085
-0.0005938607449
-0.0003970625118
-0.0005077542147
-0.0006309376746
-0.0003211200581
-0.0001201361009
-5.169917094e-05
-4.792410024e-05
-9.10297324e-05
-0.0001242225149
-8.804932098e-05
-3.968596276e-06
1.643723704e-05
-2.805522401e-06
2.991179418e-06
-2.297291494e-05
-0.0001071273521
-0.0001421139975
-0.0001499075623
-0.0001559155659
-0.0001599085712
-0.0001486216162
-0.0001614439531
-0.0001699508497
-0.0002083534052
-0.0002477772924
-0.00026574266