/*--------------------------------*- C++ -*----------------------------------*\
| =========                 |                                                 |
| \\      /  F ield         | OpenFOAM: The Open Source CFD Toolbox           |
|  \\    /   O peration     | Version:  2.3.1                                 |
|   \\  /    A nd           | Web:      www.OpenFOAM.org                      |
|    \\/     M anipulation  |                                                 |
\*---------------------------------------------------------------------------*/
FoamFile
{
    version     2.0;
    format      ascii;
    class       dictionary;
    location    "constant";
    object      PM24;
}
// * * * * * * * * * * * * * * * * * * * * * * * * * * * * * * * * * * * * * //

PM24_table
100
(

100
(
-18.18640999
-6.302307132
-3.152998773
-1.526190818
-1.203888498
-0.6735927
-0.2880416231
-0.1168831389
0.02041327815
0.2049777213
0.2316003425
0.3455929468
0.4295810342
0.4395326437
0.4380079174
0.5087835449
0.5503004391
0.4411150974
0.50815057
0.5763788277
0.4842164174
0.4672096663
0.5299830013
0.550426977
0.421174203
0.4781407966
0.5408517961
0.5238511288
0.3766054539
0.423395988
0.4820812797
0.4539543512
0.3625421884
0.411079861
0.4643404898
0.4682367712
0.3381378573
0.2973769637
0.3421655644
0.3519061884
0.2680193537
0.2187142516
0.2577973103
0.2717050337
0.2241930669
0.18321222
0.2190555124
0.257887494
0.1841576969
0.1126406482
0.0996128831
0.1197379137
0.08093716892
0.04246633035
0.03525838608
0.0462817283
0.03301417816
0.0201266321
0.02727702773
0.03532863208
0.0186412557
-0.0353551112
-0.04316673047
-0.02694747323
-0.04092768791
-0.09551566717
-0.09908306651
-0.08696542027
-0.1223688359
-0.1550909747
-0.1540867958
-0.1566540244
-0.2032467911
-0.2079400502
-0.2027903584
-0.2202998091
-0.2536986142
-0.2501410412
-0.2595851952
-0.2917502531
-0.2857150614
-0.3061578403
-0.3171037422
-0.3112163916
-0.3436117073
-0.337467887
-0.3466897768
-0.3546227789
-0.3530815605
-0.3605847888
-0.357561566
-0.3586938614
-0.3541857903
-0.3511775891
-0.3437927996
-0.3379051143
-0.3280751445
-0.3078326632
-0.04319266879
0.3257525283
)


100
(
-27.7434286
-4.331851715
-2.47546568
-1.32856206
-1.19127566
-0.5784861915
-0.3365339783
-0.1146590799
0.01380694929
0.1512845728
0.208301716
0.2904453087
0.3418417238
0.381095498
0.3766513058
0.398333337
0.4354203674
0.4145690932
0.3814780553
0.4284457731
0.4172250407
0.38139021
0.3755045369
0.3976092077
0.3745427586
0.3457517841
0.358583137
0.3621172089
0.3287391348
0.2945238373
0.2868310264
0.2875307496
0.2737123108
0.2587703632
0.2544680988
0.2665193727
0.2300551606
0.2005622445
0.1680397719
0.1535926186
0.1328541076
0.1163204581
0.09961042604
0.07330464674
0.06679793682
0.06288005233
0.05981841794
0.05391975053
0.02308190454
0.007258350334
-0.007268373606
-0.02691707403
-0.06846430873
-0.0753417674
-0.07779347168
-0.08700109776
-0.1219042187
-0.1154671361
-0.1079108562
-0.1094837576
-0.1392802186
-0.1341204394
-0.1571603073
-0.1783332862
-0.1765609305
-0.1767992855
-0.2048760306
-0.2308496742
-0.2204207023
-0.2368240759
-0.2641776339
-0.2779635985
-0.2775797854
-0.2991481198
-0.3154581229
-0.3091610485
-0.3176747603
-0.3348374748
-0.3399961869
-0.3486383332
-0.3560579656
-0.3572704153
-0.3717573894
-0.3653833439
-0.369305576
-0.3808899933
-0.3763155375
-0.3811239895
-0.3823665585
-0.3817079254
-0.3818203757
-0.3795839774
-0.378066153
-0.3749160602
-0.3710708179
-0.366674715
-0.3669166328
-0.448438036
-0.2821522175
-15.21889444
)


100
(
-29.01788429
-3.582559938
-2.107781941
-1.660666581
-1.264061823
-0.5765093201
-0.4550011739
-0.1638057705
-0.05654262764
0.06817059607
0.1260719089
0.2050436595
0.2087883925
0.2600996462
0.2874536021
0.2548240189
0.2702368233
0.3059659732
0.2664064232
0.2219235923
0.2617689484
0.2487460745
0.2059223613
0.1754525506
0.211762871
0.1751445437
0.1408392195
0.1196768342
0.1528524955
0.1124097701
0.07460802856
0.03753867256
0.05519148384
0.03185738076
0.01041972362
-0.01005008377
-0.005883736845
-0.008996424152
-0.04099691655
-0.07152652448
-0.09804428458
-0.1088363665
-0.1243969636
-0.1409579929
-0.1555373675
-0.178130493
-0.1837540104
-0.1889228014
-0.1945052023
-0.2274385333
-0.2226288825
-0.2333992279
-0.2479021843
-0.2884137302
-0.2933977435
-0.2922585482
-0.3041849743
-0.3536468055
-0.3582844732
-0.3477040483
-0.3671391228
-0.3801018049
-0.3706430744
-0.3991545688
-0.4221778251
-0.4044873281
-0.3994309047
-0.4335231868
-0.4437620299
-0.4349784578
-0.4413790081
-0.4604391419
-0.453093285
-0.4618972495
-0.4791291667
-0.4783734959
-0.4757114716
-0.483344593
-0.483036655
-0.4913984442
-0.4904351347
-0.4860086504
-0.4939064868
-0.4943359028
-0.4830455368
-0.4892735321
-0.4880229467
-0.4819899903
-0.4807807866
-0.4757077412
-0.4776677725
-0.4719314423
-0.4687027837
-0.4666576094
-0.4681275836
-0.4671750935
-0.5157667298
-0.7557405677
-3.95792321
-6.276331865
)


100
(
-19.99869994
-4.626865206
-2.699689958
-2.143334983
-1.132440086
-0.7312137232
-0.4705521146
-0.2529148506
-0.1082074084
0.00384815432
0.06411750026
0.1338943299
0.1686844493
0.1664189657
0.2123461608
0.2154362625
0.1783625408
0.189778138
0.2162088236
0.173379318
0.1293779354
0.146718528
0.141882035
0.09784854657
0.05388838677
0.06911969254
0.05302786056
0.01667528891
-0.01884074076
-0.01236948085
-0.01749328394
-0.05632088911
-0.09364692996
-0.1191036945
-0.1097015309
-0.1307348904
-0.1522279709
-0.190387844
-0.1694003435
-0.1739616854
-0.2008631263
-0.2347205318
-0.2663112829
-0.2499308931
-0.2622967449
-0.2941790737
-0.3570245805
-0.3389880237
-0.3277549152
-0.3553515203
-0.4159593229
-0.4060412275
-0.3804093534
-0.4101275655
-0.4657180363
-0.47252905
-0.4348265571
-0.4725154757
-0.5288445465
-0.5412928554
-0.5180427218
-0.5453365185
-0.5566270629
-0.552508573
-0.5653845089
-0.5812581964
-0.5747833184
-0.5717668295
-0.585225472
-0.5893109381
-0.5879272646
-0.5868021772
-0.5904666814
-0.5896308613
-0.6043850304
-0.6006437161
-0.5968623002
-0.6203595247
-0.6001848843
-0.6038089481
-0.6206402967
-0.60464656
-0.6124544537
-0.6144542775
-0.6119993067
-0.6099887735
-0.6101500672
-0.6148190247
-0.6102759882
-0.6129380828
-0.6049675591
-0.6084623694
-0.6065448253
-0.6029392667
-0.6072408953
-0.6153071896
-0.7374117296
-1.494358272
-10.26079947
-13.47975656
)


100
(
-15.29313866
-5.689304206
-3.377760811
-1.954048457
-1.108031315
-0.9664825935
-0.4869678728
-0.3735692625
-0.1581718523
-0.05987013107
0.02555372087
0.07422713513
0.1352365901
0.142140944
0.1437020706
0.1809237538
0.1724782166
0.1369650299
0.1409512831
0.1677963338
0.1247152008
0.0812315608
0.07867855424
0.08805261747
0.04405251614
0.0009172349558
-0.01252142405
-0.006041066301
-0.03962564018
-0.07224201835
-0.09777794996
-0.07857876777
-0.1038494817
-0.1391303629
-0.1975163232
-0.1810338004
-0.1787895452
-0.2008812788
-0.2866149651
-0.2725634845
-0.252982707
-0.2533390006
-0.3255424496
-0.3649889061
-0.3486060673
-0.3151917018
-0.3894276444
-0.4705073126
-0.450726102
-0.4062492569
-0.4607245991
-0.5272283712
-0.5262182186
-0.4944132346
-0.5267315631
-0.5807316459
-0.5860293606
-0.5553265296
-0.5753954151
-0.6161892789
-0.6291466491
-0.6193499352
-0.6324967295
-0.6415868627
-0.6478067226
-0.657958341
-0.6634529913
-0.6639858941
-0.6679960344
-0.6673953307
-0.6715923404
-0.6765041295
-0.6799850519
-0.668590284
-0.6782779715
-0.7071401048
-0.6730082972
-0.683947698
-0.7038797841
-0.6857276742
-0.6998032249
-0.7062277953
-0.6979839762
-0.705773457
-0.7089471577
-0.7133160162
-0.7114477486
-0.7088907051
-0.7167112678
-0.7130255199
-0.7171692083
-0.7185395454
-0.7149445355
-0.7204147159
-0.7159844863
-0.7448768756
-0.9813339379
-2.850787962
-11.97181625
-13.10631614
)


100
(
-15.29524995
-4.746170848
-3.044385503
-1.809432192
-1.411289874
-0.9974938801
-0.6242836823
-0.4247723271
-0.2579184799
-0.1109997094
-0.03077038213
0.03972622458
0.08396649427
0.1321185832
0.1318341437
0.1357476319
0.168908758
0.1590179088
0.1261950545
0.1227369445
0.147794224
0.1158367953
0.0744030676
0.05221687021
0.06972515065
0.03198114619
-0.01293090324
-0.02522332759
-0.0057768445
-0.0230796253
-0.0677287972
-0.1170599014
-0.09995137405
-0.08683976339
-0.1428942868
-0.220689824
-0.2077688402
-0.1658334083
-0.2221055833
-0.3218545885
-0.3155972016
-0.2867333556
-0.286229656
-0.3714891958
-0.411392699
-0.3714991139
-0.3441108795
-0.4269176142
-0.5074476603
-0.4742187531
-0.4477938921
-0.4976362476
-0.5546106648
-0.5584852412
-0.5365572295
-0.5579333273
-0.5932147545
-0.5975068183
-0.5913652897
-0.589829086
-0.604252046
-0.6190030487
-0.6323166849
-0.6437870448
-0.64736129
-0.6551821204
-0.6653744667
-0.6690537975
-0.6815888757
-0.6886769897
-0.6931725832
-0.6972396616
-0.7077644548
-0.7096622126
-0.6908137549
-0.7076176704
-0.7253091523
-0.7090006821
-0.7184860122
-0.7224664437
-0.7278993359
-0.7299103824
-0.7382016837
-0.7433107044
-0.7423919809
-0.7431269568
-0.7537963786
-0.7480992788
-0.7637304931
-0.7638480333
-0.7587481818
-0.7610230688
-0.7688981727
-0.7706632886
-0.7682790802
-0.8400811208
-1.256583837
-4.53744413
-12.36617637
-12.64994143
)


100
(
-16.78016764
-4.091264613
-2.762361696
-2.034224526
-1.803058162
-1.011607895
-0.8546451207
-0.4707306557
-0.3701799144
-0.186593087
-0.08618921549
-0.005814598119
0.04967810317
0.09316785344
0.1327728435
0.1320141282
0.1372181527
0.1694824975
0.1637332709
0.134417971
0.1209286699
0.142504243
0.1220792475
0.07902369082
0.03461320013
0.05083105295
0.03885482304
-0.004472297405
-0.01099639906
0.005055987858
0.01908455372
-0.07239697322
-0.1173340218
-0.1014525425
-0.05562458116
-0.1519506262
-0.226352236
-0.2089443002
-0.1317179736
-0.2220970163
-0.3222040559
-0.3188508021
-0.2626476201
-0.2920799227
-0.3787811331
-0.4105659938
-0.3626649503
-0.3440224943
-0.4234264296
-0.4778387998
-0.4634272745
-0.442714702
-0.469215715
-0.5009518352
-0.5187995812
-0.5283022644
-0.529486963
-0.5322151817
-0.5489344666
-0.5639769731
-0.5691070974
-0.5607641483
-0.5691733378
-0.5861835748
-0.6037606952
-0.6123218073
-0.6250761961
-0.6306416946
-0.6399494704
-0.6560433665
-0.6688156623
-0.6701449428
-0.6743250131
-0.6862347458
-0.6965320626
-0.6848671346
-0.6982632451
-0.7034710581
-0.7132968031
-0.704802286
-0.7186753103
-0.7247290308
-0.7229660498
-0.7275897725
-0.7325765705
-0.7415331573
-0.7411107735
-0.7394560036
-0.7375952319
-0.7628556062
-0.7691607921
-0.7645651779
-0.7667611609
-0.7680027593
-0.7778169119
-0.9089782341
-1.60166132
-6.093126848
-12.43170049
-10.57755285
)


100
(
-14.02374855
-3.880472169
-2.922774161
-2.556389316
-1.761418475
-1.205750174
-0.9412250121
-0.6284083729
-0.4324762183
-0.3040584673
-0.1411383712
-0.06372090055
0.01158536207
0.05630866951
0.09957044299
0.1335964224
0.1331502179
0.1369849513
0.1665071244
0.1634016547
0.1319583824
0.1028230848
0.122351535
0.1203620793
0.08248700149
0.03584472059
0.03801133235
0.02483652715
-0.01908103101
-0.01892929587
0.01025688709
0.02860852568
-0.08911126812
-0.1285295151
-0.08965868262
-0.0609339548
-0.1680139179
-0.2385072926
-0.1808873717
-0.1410954886
-0.2283045494
-0.3249213308
-0.3002447533
-0.2736260138
-0.3047217875
-0.3826262753
-0.3937745521
-0.3650571458
-0.3424311556
-0.3930757317
-0.4118672949
-0.4343240338
-0.4353612386
-0.4296908611
-0.440385936
-0.4687851282
-0.4980870717
-0.5094536141
-0.505982416
-0.5150749792
-0.5305800648
-0.5470905983
-0.5558147853
-0.556715718
-0.5636879005
-0.5733409522
-0.5967009
-0.6158675731
-0.6146968741
-0.6145558157
-0.6258909116
-0.6455489871
-0.6558240436
-0.6615004731
-0.6685373508
-0.6848215983
-0.690477318
-0.6862628131
-0.7046269854
-0.7111151313
-0.7074373635
-0.7179464338
-0.7150506273
-0.7305893445
-0.7317195567
-0.7355696589
-0.742237275
-0.7482265361
-0.7444162098
-0.7540321785
-0.7673858228
-0.7671734204
-0.7801584669
-0.7774117686
-0.7795429424
-0.9920951914
-2.076359464
-7.294725929
-12.20636903
-12.06074357
)


100
(
-10.81256943
-4.67140764
-3.543580874
-2.73325978
-1.710535117
-1.531797155
-0.9685669442
-0.8407305105
-0.4908152835
-0.3793309643
-0.2339708489
-0.1112529413
-0.04453686093
0.02291875772
0.05983678658
0.1011541681
0.1299349217
0.1260308488
0.1196817146
0.1441180632
0.1490676549
0.1219507895
0.08168053006
0.101246028
0.1215109437
0.08442811374
0.03893683789
0.01395865593
-0.007345607466
-0.05046742249
-0.04616833522
0.02986210918
-0.007417748529
-0.1233682875
-0.1580000578
-0.08086371701
-0.09774802718
-0.2040165734
-0.2590389307
-0.1990118692
-0.1797037457
-0.2566601853
-0.3306396821
-0.3213855558
-0.299722469
-0.3162493464
-0.3526489694
-0.3716322118
-0.3823206059
-0.3664656359
-0.3658295449
-0.3864598024
-0.4214289985
-0.4500632842
-0.4530315939
-0.4348365795
-0.4534735008
-0.4797857821
-0.5049321304
-0.5222678464
-0.529465288
-0.5400368203
-0.5513168569
-0.5757459102
-0.5965021404
-0.5945522172
-0.5832167675
-0.5968577008
-0.6189903003
-0.6361259743
-0.639661491
-0.6424135954
-0.6581766341
-0.6812811424
-0.6883734788
-0.6885287137
-0.7099057682
-0.7201377845
-0.7208989996
-0.7345764451
-0.7308379122
-0.7459209445
-0.7492899332
-0.7515337933
-0.7605021362
-0.765969288
-0.7733376332
-0.7776264507
-0.7805201136
-0.7891742745
-0.7965180533
-0.8052519375
-0.7910190158
-0.809721898
-0.8515301413
-1.101314734
-2.639720751
-8.225769373
-11.83514266
-10.92109768
)


100
(
-9.117355166
-5.148406566
-3.741415715
-2.570811553
-1.965835561
-1.635094355
-1.118112686
-0.8915184571
-0.650404529
-0.4237074875
-0.3318936284
-0.1841091373
-0.09163894458
-0.02923619187
0.02982967063
0.05849574048
0.09307295903
0.116255528
0.1120242822
0.09916899797
0.1229372461
0.1391302221
0.1124860067
0.07362118963
0.07195085073
0.09663089994
0.07522151724
0.0310055707
-0.01609529382
-0.05139882754
-0.09450072615
-0.06726060355
0.002932661
-0.05642593198
-0.1704692709
-0.1706998031
-0.1287015143
-0.1500944307
-0.2506781168
-0.2725209638
-0.2463816543
-0.2228280327
-0.2764422959
-0.3053001888
-0.3360372931
-0.333112778
-0.3242583403
-0.3394050338
-0.3703721553
-0.4046080896
-0.4299755573
-0.4051310562
-0.4034312407
-0.430490363
-0.4616769419
-0.4816694863
-0.5002147293
-0.4943322203
-0.5074653963
-0.5254319779
-0.5611169932
-0.5889777376
-0.5860881505
-0.5798831445
-0.597556829
-0.6205994566
-0.6363261319
-0.6420089408
-0.6420808013
-0.6540932437
-0.6847615205
-0.7038673142
-0.6933536401
-0.7017534981
-0.7330412566
-0.7454195005
-0.751760504
-0.7687092072
-0.7683639857
-0.7789735064
-0.7887952287
-0.7939386184
-0.8114809071
-0.8045220956
-0.8170716471
-0.8248910819
-0.836631435
-0.8466107613
-0.8518867564
-0.8551956355
-0.8613754102
-0.871271353
-0.8704024317
-0.8675882033
-0.9178126047
-1.292484836
-3.341536983
-9.182648617
-10.83598107
-9.729662565
)


100
(
-8.771832218
-4.716203171
-3.510705646
-2.525943184
-2.395528481
-1.61674843
-1.402368214
-0.9198892938
-0.8147435173
-0.5272814153
-0.3821976359
-0.2884453829
-0.1509149414
-0.07494265283
-0.01779142599
0.03238922652
0.05438010851
0.08525606195
0.110501644
0.1070386699
0.08527047298
0.1050325561
0.1330453833
0.1058766629
0.06959614735
0.0467486734
0.06968257168
0.07137657309
0.02945903585
-0.0155573967
-0.08705230734
-0.1296993529
-0.05550405946
-0.03444977274
-0.0962648801
-0.2000417193
-0.1864306521
-0.1684603277
-0.1802235622
-0.239059043
-0.2670266767
-0.2657899343
-0.2462461667
-0.2534443226
-0.2828179152
-0.3277698706
-0.3645459566
-0.3585358888
-0.339676568
-0.3651469203
-0.4005902307
-0.4322244619
-0.4416223508
-0.4429667954
-0.4472769917
-0.4697654183
-0.4942260459
-0.5372472714
-0.5617013768
-0.5477391778
-0.5403557346
-0.568862693
-0.6001902765
-0.6132373038
-0.6197094579
-0.6263257673
-0.6400042341
-0.6726549452
-0.7035623089
-0.6890095688
-0.6822516013
-0.7090233565
-0.7431767202
-0.7467123645
-0.7572460456
-0.7768018907
-0.7772494094
-0.7835851797
-0.8050838177
-0.8165377285
-0.8337769014
-0.8354026965
-0.8436241002
-0.8572067579
-0.8634783745
-0.8749028568
-0.8811791526
-0.8917000794
-0.8990675775
-0.9101034817
-0.9204373528
-0.9227490778
-0.9189778004
-0.9281883548
-1.003256831
-1.497757806
-4.227565551
-10.35266051
-10.4106102
-10.05633242
)


100
(
-9.42562789
-4.340665935
-3.296120321
-2.991909835
-2.491496858
-1.770456001
-1.545163959
-1.127967608
-0.8805969913
-0.715196963
-0.4527687514
-0.3533317163
-0.2469795765
-0.1278132624
-0.06301843415
-0.01193012336
0.03448687595
0.05499203684
0.08227325302
0.1114447398
0.1091463919
0.09166664857
0.0990616496
0.1263245824
0.1155385227
0.08347038511
0.04634909271
0.06243210338
0.08467571473
0.05110931362
0.01023923542
-0.08187405889
-0.1093759987
-0.06008887969
-0.04461483784
-0.09965324188
-0.1478754932
-0.1716861916
-0.151965948
-0.1496630234
-0.1744231337
-0.2141374866
-0.2559891959
-0.2568290363
-0.2307934181
-0.2416976592
-0.282562869
-0.3249431605
-0.34823689
-0.3401931975
-0.3264013458
-0.3591055656
-0.3883687651
-0.4191450306
-0.4611582573
-0.4608708742
-0.4410752616
-0.457297558
-0.4968207051
-0.5349502155
-0.5392692046
-0.5264781785
-0.5421681576
-0.5647187672
-0.5961224659
-0.6357705131
-0.6241490611
-0.6153711166
-0.6476076839
-0.6801210931
-0.6968063214
-0.6979915925
-0.7175163484
-0.7334819555
-0.7311716967
-0.7307224512
-0.753274696
-0.7644033931
-0.7845955507
-0.8016042643
-0.8025605037
-0.8205352807
-0.8310454991
-0.8533460148
-0.8514335381
-0.8623723572
-0.8727964578
-0.8753675815
-0.8811896169
-0.9067867481
-0.910583136
-0.9030087297
-0.8939887629
-0.8832035572
-1.101533128
-1.81010013
-5.355502925
-11.73913906
-9.636382399
-9.100061353
)


100
(
-8.806061679
-4.336287808
-3.724280557
-3.523590492
-2.457201197
-2.182318584
-1.612488176
-1.455910697
-0.9814484136
-0.844508683
-0.6349465414
-0.4115132694
-0.3308032035
-0.2235914056
-0.119193329
-0.06114887906
-0.011886069
0.03525662481
0.05776256967
0.08273019831
0.1197262338
0.1206957208
0.1090270343
0.1063866528
0.1339584405
0.1429872494
0.1157707377
0.08581411915
0.07571107147
0.09802279678
0.097873733
0.06268493722
-0.02753637032
-0.05035816614
-0.02650349465
-0.0004083535642
-0.02409039655
-0.04899662032
-0.09748545163
-0.1170605267
-0.09482682348
-0.09661500628
-0.1342880427
-0.1776728691
-0.2143032231
-0.1974230152
-0.1776989194
-0.1977536445
-0.233651141
-0.2627418692
-0.297858803
-0.3045826122
-0.2980301044
-0.3004957393
-0.3346807817
-0.3818048181
-0.4153426147
-0.3854919921
-0.3728924767
-0.4006780271
-0.435823491
-0.4655536163
-0.4856013103
-0.4811573579
-0.4758452994
-0.5147217675
-0.5559071801
-0.548706764
-0.5523831332
-0.5832202841
-0.6083684941
-0.6282919724
-0.6254135173
-0.6238573283
-0.634295293
-0.6592787127
-0.6814160627
-0.6989030418
-0.6895676229
-0.6965174129
-0.7231478049
-0.7405526872
-0.7578025246
-0.7524216318
-0.7744164877
-0.7893008018
-0.7957007966
-0.809673399
-0.8428709488
-0.8233637844
-0.861093613
-0.8469273938
-0.8615748131
-0.866798275
-1.128843983
-2.497368615
-6.685496895
-12.56214203
-9.698014253
-9.069607305
)


100
(
-7.633310621
-4.914358399
-4.311762516
-3.433887894
-2.671313924
-2.471539952
-1.816542299
-1.589371386
-1.275426935
-0.9416195543
-0.8242471468
-0.5791478543
-0.4026356893
-0.3263256956
-0.2214052895
-0.1212140116
-0.06496062399
-0.01675407912
0.03263720842
0.06001494122
0.08408389107
0.1217447319
0.1344407295
0.1300897827
0.1169419357
0.1457396448
0.1730876931
0.154359093
0.1319540029
0.1095356832
0.1197768815
0.1416139333
0.1183308728
0.07010713919
0.04974603104
0.02939436379
0.04535594411
0.06331241399
0.03405340828
-0.01205694018
-0.05788736736
-0.05382589615
-0.01940312051
-0.04204800328
-0.08006581587
-0.1125687048
-0.1311315475
-0.1336905363
-0.1229376294
-0.1378496267
-0.1613566501
-0.2074231415
-0.2538060459
-0.2335825051
-0.195099734
-0.2246738083
-0.2682092251
-0.2965432692
-0.3185868949
-0.306461965
-0.2971165563
-0.3128576264
-0.3616037081
-0.4083778804
-0.3859931713
-0.3693272208
-0.4106637684
-0.4506368497
-0.4669240002
-0.479475991
-0.475941318
-0.4822901605
-0.4879609342
-0.5068075407
-0.5267256628
-0.5524495214
-0.5615359118
-0.5659091855
-0.5663234275
-0.5877397528
-0.6161814974
-0.6226457922
-0.6217824941
-0.643892432
-0.6676059615
-0.6739680777
-0.6862587481
-0.6997154048
-0.7005332165
-0.7224236067
-0.7114953814
-0.7419169035
-0.7656840799
-0.8417605725
-1.142930493
-3.263259004
-7.900141364
-13.0797686
-8.787540924
-7.098141432
)


100
(
-6.887706445
-5.119810205
-4.27911401
-3.350191457
-3.163395452
-2.502653602
-2.225352676
-1.670764534
-1.561384394
-1.155834126
-0.9184559873
-0.7993390941
-0.551302613
-0.401998838
-0.3309409538
-0.227331773
-0.1289981851
-0.0718675489
-0.02574079025
0.02538668986
0.05814307043
0.08070539731
0.1179548211
0.1415890623
0.143982098
0.1393366427
0.1501219136
0.1774516863
0.1867554707
0.1692856244
0.1534463536
0.1260433545
0.1428810901
0.1647696009
0.1429295081
0.1143264126
0.07007587947
0.0627575428
0.09705731889
0.1010313433
0.05866783549
0.01689896668
-0.01079416975
0.004804846349
0.02447480663
0.0005948077094
-0.02844781072
-0.05298151114
-0.1102944768
-0.1015704244
-0.06923434523
-0.07223451637
-0.1214309975
-0.1713977994
-0.1887414251
-0.1571031705
-0.139442402
-0.1721632311
-0.1883120808
-0.2521294115
-0.2637833792
-0.2281810183
-0.2257006713
-0.2748954323
-0.3133906038
-0.3317614563
-0.3377571733
-0.3576689147
-0.3647945603
-0.3695772433
-0.3678994902
-0.3655064967
-0.399616926
-0.4274662507
-0.4500471088
-0.4460979678
-0.4459452463
-0.4567933227
-0.488473675
-0.5082104209
-0.5109541393
-0.5108506887
-0.5309983545
-0.5616547091
-0.5606606055
-0.5728919312
-0.6020207965
-0.6201592451
-0.6175132659
-0.6107592994
-0.6190075452
-0.6140642762
-0.5891304231
-0.6565667934
-1.136576521
-3.898388413
-8.677353094
-13.53409144
-9.051904364
-8.612198048
)


100
(
-6.859805892
-4.896431242
-4.114866152
-3.632394927
-3.438503057
-2.611622327
-2.461827107
-1.941858176
-1.652352504
-1.456907604
-1.047994713
-0.8876155662
-0.7563534821
-0.5325816765
-0.4014833085
-0.3390294467
-0.2382743022
-0.1401815789
-0.08120528637
-0.0378531179
0.01317112192
0.05083904201
0.07174644311
0.1070526775
0.1428192936
0.1477947713
0.1503533925
0.1442418369
0.1710780496
0.1956406198
0.1851303201
0.1707594013
0.1430013618
0.136700348
0.1627294207
0.1821507829
0.1518298626
0.1141196455
0.07199521169
0.0951315258
0.1254559849
0.1068828346
0.06897106751
0.04864751897
0.01734353215
0.01584407489
0.02940601659
0.02621663136
-0.001128975163
-0.05323854788
-0.1031173457
-0.0591372531
-0.0266092395
-0.0692550978
-0.1098105333
-0.125069761
-0.152975103
-0.1384158135
-0.1049016264
-0.1361750148
-0.2015568271
-0.2519351911
-0.206631518
-0.1910091745
-0.2426121097
-0.2741517168
-0.2910485685
-0.2884754112
-0.2886998005
-0.2946123736
-0.3066025491
-0.3415312897
-0.3654127512
-0.3764972598
-0.3762567807
-0.3767464166
-0.3912794191
-0.4217625983
-0.4512840781
-0.4545142747
-0.4440640579
-0.4696131633
-0.4909609913
-0.496434972
-0.5025794588
-0.5707572592
-0.5793949224
-0.5580678094
-0.6003935504
-0.6029897246
-0.6218994242
-0.676991189
-0.6151598272
-0.6965469758
-1.051029226
-4.370465247
-9.118796698
-13.75383647
-8.929502409
-8.181422643
)


100
(
-7.127095985
-4.639766883
-4.11805824
-4.116861496
-3.369141089
-3.028201875
-2.506939484
-2.328585368
-1.75320935
-1.58158558
-1.318976093
-0.9681830099
-0.8625319332
-0.7290951057
-0.5210198866
-0.4013738943
-0.3475146754
-0.251488999
-0.1547661077
-0.09208432436
-0.05223249873
-0.003656075975
0.03826555397
0.06559934454
0.092184294
0.1259439607
0.144380302
0.1528059487
0.1533312879
0.1495489767
0.1719433319
0.1971711829
0.185938771
0.1609841907
0.1239281632
0.1466710285
0.1862345431
0.1742576775
0.1398149134
0.107396882
0.08463766137
0.1052291917
0.1243330764
0.1028814341
0.0826285156
0.04537534697
-0.00830661159
0.009590151507
0.06171963672
0.02987303244
-0.01903374192
-0.06432519022
-0.07051299361
-0.04860895731
-0.03441222151
-0.05827834364
-0.09330177617
-0.1588154402
-0.159976762
-0.09477231523
-0.1218953198
-0.1811172301
-0.2187671883
-0.2347576243
-0.2531213601
-0.2412633496
-0.2409326278
-0.2467056705
-0.2447767895
-0.2556466771
-0.2912356367
-0.328550342
-0.3359453187
-0.3422067071
-0.3455141994
-0.3718955231
-0.3953868158
-0.4094563236
-0.405104077
-0.4135585996
-0.4281616014
-0.4805830201
-0.4839001784
-0.4713954006
-0.5079312814
-0.519507651
-0.540932659
-0.5513837319
-0.5262452332
-0.5816098805
-0.5561861604
-0.6090212008
-0.6615484558
-0.732940964
-1.280201465
-4.761916856
-9.507012834
-13.51377892
-7.914243976
-7.04883087
)


100
(
-6.75310849
-4.833553746
-4.548677045
-4.219889214
-3.385911468
-3.367190273
-2.653908136
-2.450738669
-2.094956436
-1.649190458
-1.523154308
-1.240347534
-0.9371545903
-0.8537535731
-0.7216502355
-0.5244582417
-0.4051213568
-0.3601081342
-0.2729097951
-0.1752708144
-0.1057526449
-0.06848947613
-0.02486706168
0.02188440768
0.05511494254
0.07702705509
0.1089562731
0.1411182028
0.1472836417
0.1548119084
0.1368929995
0.1549320859
0.1876454641
0.1970375056
0.1736804063
0.1454840626
0.1287089206
0.1655473726
0.1888162412
0.1634893274
0.1378371502
0.1224237277
0.08229307114
0.09786895165
0.1241788272
0.1209565945
0.07789667139
0.0256677218
-0.004707372142
0.04398303736
0.06138171042
0.01446907963
-0.01106350529
-0.04003838183
-0.06436815525
-0.04783004201
-0.009372523887
-0.06745563437
-0.1360100069
-0.1608200973
-0.1223990436
-0.1211172424
-0.1737400517
-0.1977136619
-0.2021081992
-0.2043302945
-0.2066114534
-0.2133334115
-0.2414423647
-0.28504545
-0.3046250179
-0.2884358873
-0.2884588326
-0.2938526133
-0.3168891807
-0.3473708289
-0.37970288
-0.3966859293
-0.4020312296
-0.4025752023
-0.4245438866
-0.4248644959
-0.4553306111
-0.4836239042
-0.5084036873
-0.459551261
-0.4732630695
-0.5331648025
-0.5800400648
-0.5426999637
-0.5592585085
-0.4909712205
-0.530158695
-0.6856213624
-1.265195408
-5.322880272
-9.92364995
-13.19584945
-7.242288971
-7.445545008
)


100
(
-6.270023829
-5.209926966
-4.840024349
-4.102398318
-3.805537653
-3.378862757
-3.06918597
-2.515942244
-2.403348114
-1.932468272
-1.632055768
-1.525066843
-1.203991665
-0.9387797711
-0.8662280369
-0.7367981583
-0.5453939384
-0.421547352
-0.3802405027
-0.3055113417
-0.2043548893
-0.132307675
-0.08673886971
-0.04546320682
0.002075620844
0.04177071466
0.07021646036
0.09166691685
0.1224023953
0.1473694893
0.1574475878
0.1503464564
0.1403606954
0.1731603774
0.2108605452
0.1884570782
0.1667295526
0.1502385049
0.1525148345
0.1728979651
0.1936423742
0.1713371212
0.1604720808
0.1110579547
0.0856187161
0.1198953866
0.1671395946
0.1162699987
0.06858561247
0.0398747691
0.0345706454
0.05727692684
0.07250336939
0.06047165649
0.004500347806
-0.06593380622
-0.03802085753
0.01145548817
-0.03216752106
-0.09371588454
-0.1174997451
-0.1322379967
-0.1382087711
-0.1396277358
-0.1310974838
-0.1386666202
-0.1377894858
-0.1650583191
-0.2042680331
-0.2302276711
-0.2392983402
-0.2488750553
-0.2528543019
-0.2808979683
-0.3176391549
-0.3090800012
-0.2971005126
-0.319661856
-0.3456112429
-0.3806219211
-0.416502943
-0.3861645203
-0.4064407524
-0.4564516591
-0.4475154595
-0.4639322447
-0.5031142624
-0.4888740747
-0.5392887586
-0.5434132194
-0.5852486802
-0.5471095747
-0.5761525166
-0.7056203709
-1.50947591
-5.479297238
-10.32843468
-12.71029689
-6.397552611
-7.142513413
)


100
(
-5.886998076
-5.138322877
-4.715356356
-4.169044942
-4.222932372
-3.389536198
-3.349896243
-2.8178496
-2.500570862
-2.327137834
-1.847905667
-1.625882152
-1.5280326
-1.192598911
-0.9518091147
-0.8925089352
-0.7682627728
-0.5843288071
-0.4467099251
-0.4075437667
-0.3538358192
-0.2434654246
-0.165361237
-0.1072143536
-0.06704314066
-0.02234779842
0.0234807938
0.05914877742
0.07735012572
0.1062407777
0.1455499941
0.1573725113
0.1581977362
0.1469579563
0.1617928156
0.1954921659
0.2109848599
0.1894730262
0.1838365896
0.1689190539
0.1631973574
0.1827291861
0.2174478765
0.1962856687
0.1534431701
0.1023383605
0.1223678558
0.1588543698
0.1660001189
0.1218645693
0.1177348335
0.06866533262
0.06503400513
0.1010325645
0.1160362544
0.05393927021
-0.01435258829
-0.01328168994
0.005543613967
0.0004349896954
-0.0407485122
-0.05106354903
-0.05728259406
-0.05851009181
-0.06098881645
-0.06524841323
-0.1034308924
-0.1465346543
-0.1679524298
-0.1468545263
-0.1419538597
-0.1484211151
-0.1780662346
-0.2118360315
-0.2336164083
-0.2584038419
-0.2633403694
-0.2761192272
-0.2836559805
-0.2879337827
-0.3125246545
-0.3423668625
-0.3717349355
-0.3694828491
-0.3535373519
-0.4078856267
-0.4223014018
-0.4534869802
-0.4138159979
-0.4694982699
-0.4583876912
-0.4595971723
-0.505014772
-0.6499245736
-1.561770566
-5.313415474
-10.46615457
-12.44611493
-6.011814324
-6.560238888
)


100
(
-6.145617888
-5.009168777
-4.606703056
-4.570043798
-4.178944248
-3.800518997
-3.429600575
-3.259008362
-2.659912423
-2.478071122
-2.237535126
-1.794678858
-1.634006781
-1.532399785
-1.214280584
-0.9749500501
-0.928708509
-0.8204707113
-0.6386726601
-0.5033832868
-0.4402053031
-0.3876901255
-0.2911746684
-0.2066890965
-0.1368061219
-0.08838203385
-0.04734707034
-0.001279618347
0.04101828342
0.06829472221
0.08939913124
0.1249864525
0.1549922023
0.1595894603
0.1603968953
0.159989768
0.181468735
0.2070468318
0.2158243465
0.2140516544
0.2034468079
0.1623326723
0.1741158741
0.224678864
0.232542351
0.192376423
0.15477457
0.13744356
0.1582850533
0.1873863346
0.1998456659
0.1894553853
0.1202611287
0.0642074181
0.1248802379
0.1588860289
0.1060987832
0.05961720877
0.03731441341
0.02326061489
0.02210248582
0.01406965968
0.02209658465
0.0296574269
0.03287618112
-0.003438776084
-0.04662943612
-0.05888930807
-0.06566038437
-0.07451839867
-0.0749547618
-0.0940538667
-0.1440634033
-0.1402433737
-0.1208413693
-0.1368088305
-0.1723858749
-0.1893227078
-0.2302764376
-0.2563066225
-0.2280815347
-0.2925494646
-0.3064314358
-0.2879463604
-0.3234331272
-0.3551802351
-0.3265189916
-0.3411824113
-0.3708499497
-0.367887923
-0.3845405349
-0.4484450121
-0.398561719
-0.5699451596
-1.766017181
-5.124687568
-10.22387366
-12.26482474
-4.586214551
-4.661284474
)


100
(
-6.289438613
-4.99663097
-4.887660569
-4.883915692
-4.162151335
-4.238462082
-3.543919735
-3.409958054
-3.075692374
-2.578111822
-2.474740417
-2.19676488
-1.785469283
-1.669990009
-1.563799788
-1.258183604
-1.019899335