/*--------------------------------*- C++ -*----------------------------------*\
| =========                 |                                                 |
| \\      /  F ield         | OpenFOAM: The Open Source CFD Toolbox           |
|  \\    /   O peration     | Version:  2.3.1                                 |
|   \\  /    A nd           | Web:      www.OpenFOAM.org                      |
|    \\/     M anipulation  |                                                 |
\*---------------------------------------------------------------------------*/
FoamFile
{
    version     2.0;
    format      ascii;
    class       dictionary;
    location    "constant";
    object      PM29;
}
// * * * * * * * * * * * * * * * * * * * * * * * * * * * * * * * * * * * * * //

PM29_table
100
(

100
(
0.2262892254
-0.08273190352
-0.03999891845
-0.02135529745
-0.01686737984
-0.01122000122
-0.00691182817
-0.005463795543
-0.003804401433
-0.00213195748
-0.002171734135
-0.0004813985494
-0.0001389204683
-9.026654053e-05
0.0004980771007
0.0006781756607
0.0006054464074
0.0008664430325
0.001003444394
0.0009870006008
0.001015629733
0.001070737494
0.001107222279
0.001099559952
0.001081033524
0.001131910746
0.0011479099
0.001113684321
0.001029155419
0.001048493501
0.001062303643
0.001029487205
0.0009735758721
0.0009834967948
0.0009891355595
0.0009688222245
0.0008950801992
0.0008681625584
0.0008826546853
0.0008727361005
0.0008103615476
0.0007758621448
0.0007824760912
0.0007692829488
0.0007201359406
0.0006861368825
0.0006854272311
0.0006877057802
0.0006281948264
0.0005871074981
0.0005834201623
0.0005984898408
0.0005695293829
0.0005416567871
0.0005317321876
0.0005217256694
0.0004991825601
0.0005008836599
0.000579400702
0.0008189938519
0.001148772466
0.0009947620561
0.0007200356513
0.0007751585939
0.0009611133143
0.0008181873498
0.0006439834926
0.0007627854278
0.00078766429
0.0006452079706
0.0005791360083
0.0006546622549
0.0005810897859
0.000497500269
0.0006576361758
0.0007086744755
0.0004657432907
0.000527015293
0.0005541238092
0.0003602971287
0.0004440267344
0.0003667989586
0.0003132958364
0.0003856119942
0.0002530606504
0.0002847242413
0.0002789810407
0.0002175894465
0.0002566842034
0.0002012482661
0.0002145447533
0.0001946909502
0.0002169479407
0.0002054912954
0.0002271164228
0.0002102306558
0.0002167022338
0.0002272040825
0.0002216063902
0.0001924546208
)


100
(
0.2550671132
-0.06434647925
-0.03418735643
-0.01990611032
-0.01723216349
-0.01065550797
-0.007911884584
-0.005557502492
-0.004241314028
-0.002510907425
-0.002233551662
-0.0009036012544
-0.0004926947122
-0.0002798830806
0.0002198853956
0.0004136340023
0.0004759228789
0.0007416471046
0.0008423117296
0.0009004484863
0.0009901749311
0.001040381017
0.001067676014
0.001101213482
0.001136844067
0.001147940229
0.001171517801
0.001179305944
0.001156928696
0.001126742191
0.001118398447
0.001117299946
0.00110657887
0.001097313016
0.001098218397
0.001098220925
0.001057976525
0.001020466253
0.0009960970416
0.0009881300545
0.0009703489403
0.0009605091729
0.0009599078267
0.0009624929352
0.0009525014475
0.0009318055701
0.0009135919075
0.0009079998167
0.0008664323885
0.0008283031233
0.0008087792753
0.0008190052607
0.0008427630258
0.0008691798541
0.0008990627283
0.0009217961269
0.0009359802894
0.000950777248
0.0009726285869
0.001021486749
0.001173709101
0.001414100649
0.001374624
0.001184557976
0.001129079565
0.001185420738
0.001091753767
0.0009656161711
0.0009794456032
0.0009428195461
0.0008276280101
0.0007541303169
0.0007552179883
0.0006542876891
0.0005964408257
0.0007849814545
0.0009102976479
0.000752472263
0.0007596467462
0.0007186294381
0.0006392275361
0.000742330739
0.0005805847278
0.0007241542287
0.0006863558349
0.0005687049448
0.0006480196157
0.0005813734106
0.0005690149675
0.000611163534
0.0006094864877
0.0006078403355
0.0006208252647
0.000702459773
0.0006774424344
0.0006960049756
0.0006732708092
0.000502756333
0.0004606621792
-0.002801383837
)


100
(
0.1351424353
-0.05249630229
-0.03005563674
-0.02338756617
-0.0183871599
-0.01107900369
-0.009667454127
-0.006114679299
-0.005144480851
-0.003345907339
-0.00259264635
-0.00167921883
-0.0009394005222
-0.0006031779762
-0.0001820667788
0.0001461849725
0.0003370198347
0.0005763229216
0.0007545759979
0.0008659328599
0.001021183814
0.001116593771
0.001161442969
0.00121095969
0.001312274217
0.001326484019
0.001354203378
0.001416046714
0.001511240529
0.001471579483
0.001427894897
0.00142323421
0.001488080574
0.001503322284
0.001528555773
0.001578550926
0.001656835081
0.001669762862
0.001618772148
0.001590629569
0.001617814958
0.001686429366
0.001734230868
0.001812216581
0.001914329356
0.002034410737
0.002105661988
0.002178125525
0.00224585003
0.002297699498
0.002330202541
0.002312462324
0.002284893094
0.002232574449
0.00221968926
0.002209090167
0.002161658962
0.002037931718
0.001943291916
0.001765977405
0.001480683163
0.001592858907
0.001934233418
0.001827708756
0.00152376194
0.001506284092
0.001595423011
0.001372366944
0.00127707313
0.001412528853
0.001505582494
0.001465175885
0.001608937125
0.001757598061
0.001415327505
0.001312267469
0.001951238135
0.001819660933
0.001542125407
0.002022130029
0.001752217312
0.001772692994
0.001853979367
0.001603992954
0.0019250121
0.001809954772
0.001893896201
0.002179561057
0.002062102158
0.002305567756
0.002460506705
0.00263420899
0.002644535254
0.002796907842
0.003029044577
0.003124236137
0.002733597003
0.001624247206
-0.002010061656
-0.003874490452
)


100
(
0.01928450294
-0.06180847686
-0.03500393711
-0.02752656684
-0.01719986417
-0.0127741171
-0.00972283643
-0.00721654322
-0.005359512709
-0.004087030726
-0.002734820468
-0.002001250527
-0.001206766953
-0.0006524637418
-0.0002446899502
0.0001411977872
0.0004258739466
0.0006918490494
0.0009618318538
0.001116132707
0.001268360981
0.001477325419
0.001623136212
0.00168384778
0.001774010804
0.001930989682
0.00200838915
0.002085376056
0.002240739167
0.002455210753
0.002545789229
0.002504343338
0.002518528312
0.002656052347
0.002832417238
0.002953080547
0.003123646436
0.00334639562
0.003628197116
0.003772968784
0.003788749553
0.003789279402
0.003830898402
0.00398680063
0.004000446622
0.003967062636
0.00385923795
0.003997848401
0.004094785348
0.004023379616
0.003829871217
0.003856285257
0.003906267446
0.003677882272
0.003365855739
0.003253581348
0.003321295331
0.00308893236
0.002804564704
0.002627863737
0.002421225965
0.002006131576
0.001997614334
0.002294189104
0.002452922602
0.002443175394
0.002598356074
0.002745230643
0.002671508975
0.002682881547
0.002765455702
0.002843249673
0.002925446051
0.00359985054
0.00416216533
0.003305443185
0.003027166134
0.003951660967
0.003583890045
0.003330995764
0.003830977273
0.003539427468
0.004114492095
0.00431614917
0.004465315412
0.004667684191
0.004541677126
0.005068915961
0.005574236246
0.006276820974
0.006342478135
0.006491856606
0.007203708609
0.007223550419
0.007693638462
0.008080862832
0.005888216083
1.068136748e-05
-0.01190049801
-0.02542965927
)


100
(
-0.01971238456
-0.07091124387
-0.03993079889
-0.02515985502
-0.01687866694
-0.01478571034
-0.00975509377
-0.008321701866
-0.005636101694
-0.004401306499
-0.003102745003
-0.002049823277
-0.001332224285
-0.000630793736
-0.0001052442182
0.000354505583
0.0007438675157
0.00108314858
0.001455353554
0.001852611366
0.002042609365
0.002282308196
0.002633595015
0.002980722121
0.003116404939
0.003311380715
0.003601186608
0.003905816143
0.004086574562
0.004391441647
0.004791226837
0.005237863089
0.005307426188
0.005314447523
0.005345991299
0.005634320076
0.005838199197
0.005926642667
0.005813535602
0.006105265434
0.006400310605
0.006430243794
0.005999632904
0.005737140875
0.005772338883
0.005873903991
0.005335010516
0.004830702584
0.004853494854
0.00499244124
0.004617811059
0.004230205822
0.004174716138
0.00427216333
0.004050080007
0.00373777829
0.003695580549
0.003919534727
0.0040241841
0.00406058324
0.004223334001
0.004369125219
0.004222501381
0.004231308617
0.004345694889
0.004447933084
0.004579966624
0.004780694091
0.004824095937
0.004811666883
0.004783546975
0.004868325515
0.004727531528
0.004706265882
0.005740772725
0.00681301902
0.005588929056
0.005721255772
0.006622962223
0.006569017447
0.007279298367
0.007646372861
0.007367292417
0.008230675919
0.00913359878
0.01006642581
0.0103724451
0.01051318632
0.01139832067
0.01226893217
0.01350659758
0.01401029148
0.01436355925
0.01570721735
0.01597803994
0.01617339524
0.01005919641
-0.01131820542
-0.02454011379
-0.05811492497
)


100
(
0.0008127029047
-0.0579802263
-0.03553174868
-0.02333058056
-0.0190961482
-0.01469030847
-0.01079982605
-0.00844318208
-0.006442716224
-0.004487245736
-0.003436300489
-0.002114167855
-0.001191661656
-0.0004144946981
0.0002610964663
0.0008617018907
0.001493347786
0.002025317888
0.002533261333
0.003143654897
0.003842480115
0.004184980344
0.004562156052
0.005117493183
0.00582613996
0.006114891928
0.006409256657
0.006835862863
0.007380434356
0.007620091204
0.007777046786
0.007960920709
0.00846722836
0.008776195123
0.008384073195
0.007911510586
0.008017633645
0.008304187972
0.007832872224
0.007156012477
0.007156290827
0.007303181175
0.007190609864
0.006532452849
0.006185242261
0.006349049093
0.006413813467
0.005795186887
0.005308954837
0.005475937943
0.005618404938
0.005331458132
0.00511025177
0.005355629986
0.005846552975
0.006046716801
0.006083504703
0.006319580937
0.006606588934
0.006925254846
0.007145074171
0.007279841547
0.007289285818
0.007237635347
0.007247671323
0.007090544994
0.006966361007
0.007342720779
0.007774821163
0.008154280533
0.00837965413
0.00851597664
0.008551062061
0.00829424475
0.007823902975
0.008966900033
0.01079465373
0.01101306993
0.01153706019
0.01211768637
0.01302343609
0.01440162812
0.01499096762
0.01549584355
0.01626601817
0.01711105352
0.01864461593
0.01907166612
0.02054863633
0.02126212371
0.02179883587
0.02306328715
0.02357127157
0.0245618041
0.02476184636
0.02304207254
0.01172549376
-0.03551581701
-0.05029825418
-0.1487530122
)


100
(
0.04177947072
-0.04853849863
-0.03190288745
-0.02433687416
-0.02151576587
-0.01443798405
-0.01233824083
-0.008511200009
-0.007050472977
-0.004819741132
-0.00334877895
-0.002086536934
-0.0008276093913
0.0001752981807
0.001128950892
0.001903844172
0.002731798725
0.003757090762
0.004628169409
0.0053501057
0.006244372258
0.007306419902
0.007856308985
0.008204820124
0.008650486117
0.009460208066
0.009899278977
0.009956065596
0.01022696554
0.01059095509
0.01084055948
0.01014315522
0.009883149088
0.01010917016
0.01045564534
0.009521308113
0.008835986481
0.008885145336
0.009363574947
0.008505318938
0.007688986041
0.007611158638
0.007867351739
0.007582222662
0.006956377438
0.006783247686
0.007177363603
0.007433788695
0.007066983609
0.007082373989
0.007769442571
0.008480163222
0.008680847165
0.008778049706
0.009060008399
0.009448591799
0.009877231002
0.01023005865
0.01010205606
0.009888989697
0.009959691821
0.01022774551
0.01018366613
0.01014209292
0.01064876498
0.01150079601
0.01195270509
0.01237885286
0.01301233497
0.01343187308
0.01397266882
0.01443247451
0.01456224538
0.0149226409
0.01592640106
0.01604936718
0.01743484783
0.01870389474
0.0198344661
0.02078000291
0.02142083428
0.02211203482
0.02358335095
0.02447720495
0.02553819575
0.02603964183
0.02655894067
0.02663197027
0.02677619264
0.02835403024
0.02869215749
0.02836282346
0.02877411129
0.02886126848
0.02883334067
0.02490823345
0.006077150026
-0.06734183402
-0.1417818145
-0.3760860509
)


100
(
0.02240838974
-0.04347765221
-0.03171086889
-0.02717200053
-0.02045815298
-0.01548641206
-0.01257964371
-0.009385191112
-0.00706888705
-0.005230489664
-0.003088918231
-0.001642530232
-0.0001453298352
0.001215196805
0.002553157946
0.003820251677
0.004776274625
0.005812982507
0.007472113347
0.00857352894
0.009288563787
0.01009173349
0.01121821329
0.01184159459
0.01181658153
0.01172984995
0.01206787091
0.01210992516
0.01176386649
0.01185806159
0.01218707843
0.01228532739
0.0110140689
0.01057193706
0.01084617723
0.0109350253
0.009851722937
0.009182109655
0.009591340626
0.009808026386
0.00904738313
0.008377316759
0.008606741384
0.008969988754
0.008938529608
0.008669404172
0.009279418993
0.01030520943
0.01134600278
0.01144230181
0.01199269655
0.01254678014
0.01319115969
0.01362755825
0.01362228203
0.01320300835
0.01281558368
0.01289987429
0.01325086496
0.01334308916
0.01348426364
0.01429982988
0.01553964357
0.01664213642
0.01737633852
0.01839793756
0.01906136456
0.01930675744
0.02014342594
0.02072220325
0.02091703271
0.02185584832
0.02309504141
0.02403675684
0.02531490865
0.02606011291
0.02628113516
0.02729691685
0.02775963467
0.02812942344
0.02907937953
0.02974835246
0.0300475911
0.03029551035
0.03058308186
0.03092844255
0.03085588299
0.03066922026
0.02967723839
0.03005838564
0.03053637353
0.03037899458
0.03058153805
0.03045358482
0.03029596134
0.02525795186
-0.004208698641
-0.0819403508
-0.2906928996
-0.7193871398
)


100
(
-0.005256231194
-0.0467594463
-0.03454812192
-0.02722286135
-0.01947739621
-0.01721333929
-0.01239810292
-0.01040622609
-0.00698088763
-0.005052177525
-0.00283490742
-0.0007962808803
0.001029437934
0.002775770678
0.00438189839
0.006208728839
0.007811636135
0.008893959783
0.01011461195
0.01169437891
0.01271876858
0.01302143078
0.01318685084
0.01400231868
0.01458882607
0.01408527289
0.0135041207
0.01316922908
0.01283746572
0.01229807234
0.01233476404
0.01312483717
0.01255257173
0.01125975889
0.01086445158
0.0114808404
0.01126765049
0.01030051237
0.009962244481
0.01068735347
0.01115198513
0.01082716981
0.01074916519
0.01170276232
0.01287293913
0.01353211054
0.01401278848
0.01485725896
0.01572455402
0.01663648213
0.01702018327
0.01691413421
0.01654841865
0.01633035957
0.01677754323
0.01761655738
0.01764110804
0.01778682322
0.01859800222
0.01989079127
0.02116690633
0.02220493109
0.02365451412
0.02461345505
0.02501527199
0.02591159291
0.02696243292
0.02710562435
0.02756864071
0.02916661397
0.03065682235
0.03179845672
0.03266748049
0.03216815413
0.03206281393
0.03272787659
0.03234168028
0.03237502056
0.03294944412
0.03314263788
0.03270079864
0.03246695008
0.03242078494
0.03251430036
0.03250267446
0.03276164119
0.03266771046
0.03260978548
0.03267229027
0.03296108283
0.03361232344
0.03388090881
0.03417143593
0.03455162102
0.03445527774
0.02758747495
-0.01881872592
-0.09985471052
-0.4021102854
-0.8218619578
)


100
(
-0.01810537723
-0.04740710423
-0.03399515024
-0.02502163159
-0.02043641216
-0.01729077403
-0.01294616911
-0.01028354448
-0.007358644032
-0.004527396737
-0.00219427194
0.0002710698658
0.002470446182
0.004843719222
0.006716582648
0.00841453735
0.01054507013
0.0123459527
0.01296598812
0.01367798726
0.01491673621
0.01569954642
0.01540948035
0.01499514679
0.01515909791
0.01558792026
0.01510476853
0.01429000684
0.01351374713
0.01292678122
0.01235365189
0.01273486241
0.01350935521
0.01284504726
0.01172824458
0.01187771699
0.01255968316
0.01271925669
0.01215871445
0.01280905685
0.01419379784
0.01575719662
0.01616994575
0.01692743324
0.01779326725
0.01896679543
0.01989749849
0.02021587403
0.02007936994
0.01985298383
0.01996339184
0.02090184911
0.02151571797
0.02160836936
0.02185403595
0.02311269878
0.02496729322
0.02707142443
0.0284676079
0.02983035395
0.03061143988
0.03078930484
0.03182389892
0.03300467976
0.03302193786
0.03301341209
0.03430404574
0.03574556091
0.03684898392
0.03765022803
0.03727161219
0.03610449164
0.03652668451
0.03596899317
0.0349347648
0.03481262508
0.03512858814
0.03495726785
0.03446293299
0.03427923632
0.03444960356
0.03462311983
0.03483996201
0.03496523726
0.0355773579
0.03561321375
0.03687086341
0.0367814405
0.03740595678
0.03805428158
0.03846724711
0.03906961641
0.03951644214
0.04016273591
0.03961933074
0.02968558076
-0.04438119213
-0.1166285402
-0.4237411504
-0.7557503154
)


100
(
-0.01500063607
-0.04147828843
-0.03067189102
-0.02365516801
-0.02211578866
-0.01660474441
-0.01407855538
-0.009946244374
-0.007516151216
-0.004078306015
-0.001248075806
0.001733022115
0.004219781832
0.006634235528
0.009309072323
0.01094874441
0.01229313737
0.01422941845
0.01554601323
0.01578521542
0.01571924796
0.01648128209
0.01716096159
0.01648390388
0.01578696411
0.01544054095
0.01580688252
0.01570908993
0.01489987954
0.01417108248
0.01323941814
0.01280307266
0.01379034044
0.01461156921
0.01435434846
0.01377701229
0.01485563775
0.01626613155
0.01741786534
0.01793063308
0.01929138591
0.02103342802
0.02294662875
0.02376216291
0.02381742904
0.02352931759
0.02342943805
0.02429832201
0.02546732229
0.02558276815
0.02563796917
0.02617555264
0.02769108843
0.02998839423
0.03219023194
0.03364660628
0.03539121514
0.03643961527
0.03728304151
0.03885043914
0.03978912238
0.03912551582
0.03831809919
0.03890767393
0.04026633936
0.04090029483
0.04104083943
0.04059052827
0.03926546786
0.03971224963
0.03926839065
0.03752459297
0.03675165601
0.03699195456
0.03710684875
0.03682629556
0.03663404366
0.03685074283
0.03737231838
0.03783973927
0.03831426611
0.03886704585
0.03937990127
0.03947945382
0.04050365765
0.04091768021
0.04217244282
0.04316287457
0.04376128893
0.04445631381
0.04481892739
0.04517665811
0.04553027772
0.04607683074
0.04386437631
0.02775589373
-0.08143784331
-0.1260656655
-0.4053785718
-0.7165987487
)


100
(
-7.113448863e-06
-0.03609817834
-0.02766027263
-0.02505278771
-0.02164603629
-0.01679369098
-0.01421722817
-0.01033929654
-0.007104691438
-0.003691354764
-0.0001496681972
0.003030634175
0.006286613087
0.008575228285
0.01089178027
0.01346116343
0.01456083397
0.01520104972
0.01644830513
0.01743167225
0.01719373575
0.01676294717
0.01699486169
0.01751699168
0.01708690047
0.01637053521
0.01579451797
0.01618529087
0.01665211975
0.01620162847
0.01582099535
0.0148979975
0.01524304049
0.01693831231
0.01854923869
0.01911955936
0.01998721718
0.02158404271
0.02382967848
0.02559751829
0.02653458595
0.02691063033
0.0271850684
0.02815297764
0.02965807577
0.03011768575
0.02984649635
0.02979624899
0.03086733622
0.03304158091
0.03549562993
0.03711218123
0.03887863858
0.04065565496
0.04199318217
0.04400670299
0.04604535333
0.04612039021
0.04496570404
0.04383888101
0.04387416115
0.04496940986
0.04511428686
0.04459846699
0.04383019165
0.04261184268
0.04262635881
0.04215738981
0.03987578902
0.03837128177
0.03908978066
0.03979042629
0.0398112165
0.04032553055
0.04055605122
0.0408244098
0.04124853998
0.04188357281
0.04262162462
0.0432251947
0.04357004703
0.04434100198
0.04531708598
0.04589185468
0.04611223574
0.04717822736
0.04836519607
0.04963834509
0.05032753242
0.05138900816
0.05200880749
0.05216770514
0.0523783912
0.05247590548
0.04818470319
0.0173421738
-0.1157011413
-0.136923487
-0.380091719
-0.6839631867
)


100
(
-0.000124147246
-0.033113613
-0.02810756604
-0.02629298252
-0.02044436786
-0.01805043799
-0.01386007304
-0.01100674983
-0.006619880095
-0.003138979841
0.0008690864206
0.004299303373
0.007737240667
0.01069660946
0.01244420378
0.01428402928
0.01634449648
0.01678922873
0.01674216198
0.01736487847
0.01830340749
0.01783289697
0.01732808354
0.01724803221
0.01782360962
0.01793442843
0.01741622135
0.01716959354
0.01754983055
0.01864042091
0.01947271696
0.01988268065
0.01962127275
0.02111755982
0.02383365247
0.02677575254
0.02833061949
0.02962065774
0.03015807761
0.03116309163
0.03296572083
0.0339896176
0.0339839171
0.03397345509
0.03453595655
0.03663146893
0.03906342657
0.04036308151
0.04139072094
0.04362438989
0.04593540708
0.04881798011
0.05174571782
0.0530202232
0.05223762819
0.05053749724
0.04915702549
0.05033807683
0.05030466618
0.04886540221
0.04791037428
0.04687426958
0.04637124833
0.04683587646
0.04634381029
0.04373111485
0.04150372657
0.04167609597
0.04273951995
0.04236339602
0.04305886105
0.043859781
0.04433914885
0.04491657218
0.04570898105
0.04668004623
0.04741045976
0.04822761273
0.04871028537
0.04916044504
0.05000342906
0.05097425162
0.05167085101
0.05249095871
0.0534655599
0.05458109981
0.05447784136
0.056300429
0.05738700331
0.05860787453
0.05965165895
0.06009219117
0.06032957027
0.060107765
0.05231024263
-0.009224655677
-0.1362146244
-0.1460606954
-0.3942935224
-0.7313410529
)


100
(
-0.009282978015
-0.03319779998
-0.02888262387
-0.02425840444
-0.02039968496
-0.01844668696
-0.01397427678
-0.01079651398
-0.006615338909
-0.00244633518
0.001668967797
0.005556306091
0.008656439938
0.01183666195
0.01405160874
0.01496091166
0.01612852448
0.01764722811
0.01769124245
0.01735319583
0.01759692742
0.01844406046
0.01828633411
0.01794425869
0.01774536931
0.0186695132
0.01966974677
0.019819986
0.02032592835
0.02135266341
0.02339247177
0.0259326554
0.02758221575
0.02869486467
0.03101060075
0.03314875823
0.03564496447
0.03783866331
0.03815015344
0.03808041557
0.03817231049
0.03985194732
0.04247065197
0.04342356341
0.04415000688
0.04556929975
0.04802341501
0.05151724969
0.0552699836
0.05741248914
0.05867142233
0.05798758918
0.05660526856
0.05728570361
0.05832477444
0.05573690248
0.05269862085
0.05061911554
0.0499472883
0.05051009187
0.05113305124
0.05034622138
0.0476348735
0.0453061439
0.04616922796
0.0468559944
0.04591517988
0.0460162239
0.0471368872
0.04834420315
0.04885129013
0.04900641122
0.04932642799
0.05036988814
0.05163163635
0.05285391845
0.05347533724
0.05395843048
0.05495280486
0.05615799917
0.05701381387
0.05812722703
0.05869869068
0.05975314232
0.06065073551
0.06141918536
0.06202909114
0.06321474196
0.06445896094
0.06546137464
0.06671309391
0.0676650578
0.06808975022
0.06690355344
0.05603862821
-0.04357799659
-0.1510961001
-0.1469340032
-0.3748894338
-0.7055239312
)


100
(
-0.01474236303
-0.03161606291
-0.02661165187
-0.02237797889
-0.02135353249
-0.01763336772
-0.01475226323
-0.01033051718
-0.006610034001
-0.001914081089
0.002135099642
0.006415781276
0.009498492722
0.01190115573
0.01439448307
0.01575390046
0.0159994564
0.01661140909
0.0178265253
0.01785665714
0.01755112521
0.017608182
0.01860263733
0.01906044738
0.01915542881
0.01960414023
0.02091332298
0.02301029821
0.0250229102
0.02660935313
0.02879085028
0.03120526704
0.03470010153
0.03806557364
0.03944773983
0.04059031922
0.04122548997
0.04285119172
0.04566691464
0.04727854191
0.04734198123
0.04780756128
0.04944377063
0.05280409264
0.05639620804
0.05855243327
0.06065699733
0.06274133471
0.06303738892
0.064262087
0.06541136426
0.06409835705
0.06059454158
0.05698531593
0.05501407299
0.05483209372
0.05461886478
0.05308760653
0.05253325162
0.05083500466
0.05016477891
0.05122057465
0.05098340444
0.0489191346
0.04797151324
0.04942471774
0.0513910558
0.05275760891
0.05336503234
0.05374800225
0.0542890431
0.05497680783
0.05576796641
0.05678237874
0.05771937518
0.05846686507
0.05931609125
0.06037913136
0.06187033158
0.06342453367
0.06361619863
0.06402383997
0.06575161123
0.06737087454
0.06814788493
0.06798803236
0.06923368405
0.07041773055
0.07146619189
0.07228534076
0.07253109963
0.07309713913
0.07366119781
0.0722530729
0.05972625759
-0.07401556051
-0.1589395956
-0.1539696061
-0.4381170898
-0.9413543308
)


100
(
-0.01190780859
-0.02819011201
-0.02397518172
-0.021993568
-0.02113055185
-0.01709301554
-0.01478172166
-0.01036916958
-0.006293222435
-0.001701195456
0.002569029123
0.006251834543
0.009839395935
0.01191457351
0.01348585946
0.01529070341
0.01608676072
0.01604737613
0.01638388285
0.01751223661
0.01785094434
0.01782794777
0.01795163679
0.01944021132
0.02113128122
0.02200098343
0.02357717478
0.02570864815
0.02931234719
0.03336592579
0.03612414269
0.03869565839
0.0406932911
0.04318153813
0.04647483317
0.04923450424
0.04972199925
0.05019030684
0.05092028581
0.05420349905
0.0579273275
0.05968447065
0.06066977688
0.06298112266
0.0653552578
0.06837220816
0.07116437598
0.07142829706
0.06965376294
0.06617065961
0.06239219148
0.06179448934
0.06057153743
0.05705571447
0.05428430528
0.05378380846
0.05340811011
0.05455196846
0.05542452526
0.05398293377
0.05180977212
0.05051943829
0.05271036032
0.05438536685
0.05430969376
0.05553083773
0.05668202693
0.05754261365
0.05816090166
0.05873600672
0.05966436433
0.0608960637
0.06245976119
0.06323632792
0.06376520427
0.06431401098
0.06530757927
0.06679573135
0.06762290608
0.068393185
0.07018808218
0.07132145616
0.07340990366
0.07293195919
0.07321295645
0.07506679684
0.07615663308
0.07678462796
0.07707547298
0.07809462342
0.078649062
0.07866411778
0.07840707121
0.07674302862
0.06625392758
-0.09213518549
-0.1617375144
-0.1607990856
-0.4964364682
-1.056672195
)


100
(
-0.00535773564
-0.02479551275
-0.02213064065
-0.02213654477
-0.01954508099
-0.01754208206
-0.01411925188
-0.01072324164
-0.005923711618
-0.00176990262
0.002704311622
0.005998267434
0.008973218425
0.01153770101
0.01272708284
0.01368383906
0.01505255243
0.01566596998
0.01572271879
0.01600017102
0.01729273752
0.01829411029
0.0188736823
0.01992754649
0.02200838557
0.02508910585
0.02787938409
0.03078870623
0.03425694117
0.03803250264
0.04263505621
0.04687157329
0.04862886713
0.04995233098
0.05091983094
0.05437396256
0.05865391303
0.06035932651
0.06113124927
0.0624888779
0.06474108123
0.06887234145
0.07307371786
0.074667325
0.07573473889
0.07458338869
0.07126924467
0.0705807871
0.07028635708
0.06606923489
0.06139963753
0.05753359543
0.05564542527
0.05585593978
0.05656950645
0.0564311247
0.05595610756
0.05433728164
0.05461199149
0.0565630238
0.05602212338
0.05475042805
0.0554123407
0.05749126631
0.05950458498
0.06111249368
0.06184098829
0.06217115255
0.06301099788
0.0642209585
0.06546323812
0.06651270046
0.06725215384
0.06780510429
0.06854799433
0.06964554083
0.07183337135
0.07328426919
0.07407387573
0.07404761859
0.07522023696
0.07625760985
0.07791991978
0.07925320158
0.07926327609
0.08027989306
0.08095982669
0.08164391608
0.08220276848
0.0820567206
0.08292712046
0.08288875052
0.08238460657
0.07878275639
0.0626909548
-0.1045042165
-0.1627399146
-0.1552892155
-0.5131696669
-1.107645512
)


100
(
-0.006113458694
-0.02317143977
-0.02169163164
-0.02081605959
-0.01830747452
-0.01751242291
-0.01365170174
-0.01045522481
-0.006037447733
-0.001793650938
0.002167221501
0.005697624701
0.00787701361
0.01003655448
0.01177766435
0.01249831041
0.01313131464
0.01438142573
0.01519418488
0.0155942736
0.01606211926
0.01792210507
0.02025729423
0.02182645897
0.02429024683
0.02742138626
0.03218077561
0.03749324971
0.04095715507
0.04463030113
0.04723489684
0.05138740873
0.05600283827
0.05870198147
0.0597044609
0.06088977507
0.06323069668
0.06841772393
0.07286045194
0.0741747322
0.0753425672
0.07734945945
0.0777007232
0.07971151901
0.08026876159
0.07798529254
0.07271774689
0.06697984017
0.06245742022
0.06159821516
0.05997428056
0.05718107111
0.05656681758
0.05647105506
0.05685469726
0.05802336198
0.05962171998
0.05797330277
0.05629049402
0.05625962918
0.05850660803
0.06070744305
0.06113897283
0.06260104999
0.06349364979
0.06429440166
0.06512076424
0.06595027285
0.0670438856
0.0684021394
0.07021058367
0.07194066716
0.07247811772
0.0731330996
0.074223047
0.07533523869
0.07598827082
0.07630233253
0.07758269721
0.0798622272
0.08132584002
0.0816686218
0.08087623972
0.08218557971
0.0840393965
0.08542059652
0.08549220453
0.08518444058
0.08521066631
0.08516571837
0.08436563656
0.08395394664
0.08320129385
0.07941749726
0.06225419152
-0.1419828926
-0.1638173748
-0.1444835178
-0.5466078678
-1.265999457
)


100
(
-0.009693362024
-0.02219422147
-0.0206710287
-0.01886703596
-0.018230228
-0.01638787126
-0.01382012682
-0.009947704495
-0.006313917545
-0.002003887328
0.00141247857
0.004606994729
0.006974477245
0.008307554937
0.009849128822
0.01116576618
0.01181555848
0.01243269135
0.01384082982
0.01526423572
0.01622841746
0.0177603665
0.0204204254
0.02426689651
0.02794704478
0.03199953904
0.03660307031
0.04163036562
0.0473091063
0.05198057108
0.05502986951
0.05733454493
0.05977270726
0.0648854634
0.07017699635
0.07119635559
0.07260164393
0.07491274161
0.07835222215
0.08228402963
0.085889785
0.08524353036
0.08359996347
0.07876162445
0.07450454399
0.07273034724
0.07094215708
0.06491808896
0.0602063528
0.05738211145
0.05669697326
0.05843531845
0.06038297204
0.06092619814
0.05959621029
0.05777543484
0.05927704504
0.06140560403
0.06079641598
0.0602610736
0.06179064306
0.06375778349
0.06538665691
0.06633686726
0.06727902838
0.06772092934
0.06893635351
0.07045933833
0.07173323675
0.07283528461
0.07372249277
0.07448633724
0.07546483187
0.07673072813
0.07832303789
0.0804051776
0.08078105907
0.08079044286
0.08168437755
0.08305138877
0.08311893306
0.08439116604
0.08486477859
0.08533970501
0.08587336087
0.08617102171
0.08688022894
0.08712673219
0.08654771171
0.08620325581
0.08481417844
0.08335611973
0.08168083338
0.07746890766
0.05546152524
-0.1682086241
-0.1612703459
-0.1296838179
-0.5692000828
-1.374200749
)


100
(
-0.01209926983
-0.02021744276
-0.01858554172
-0.01753408651
-0.01792039159
-0.01523941993
-0.01357375819
-0.009822313038
-0.006328664483
-0.002601616168
0.0007179338811
0.003084914477
0.005352147721
0.006867790871
0.007747064369
0.008994802198
0.01022766818
0.01113509384
0.01198296611
0.01384179515
0.01642883712
0.01864877249
0.021752253
0.02572784124
0.03136263278
0.03771508889
0.04246196158
0.04725137272
0.05097442739
0.05650487433
0.06295583906
0.06565656524
0.06798986559
0.07006961693
0.07447848312
0.08013444837
0.08403613766
0.084165409
0.08563813073
0.08613146454
0.08597470236
0.08530143209
0.08361246223
0.07775559166
0.0710231536
0.0646013505
0.06228524995
0.06130628464
0.06022633456
0.05840507754
0.05922336734
0.05932792896
0.06037037204
0.06254233559
0.0636011694
0.06167464413
0.0600043031
0.06112338941
0.06366779223
0.06616438005
0.06718301136
0.06822657937
0.06894917972
0.06968036846
0.07045331853
0.07129991595
0.07228731421
0.0734740963
0.07465677493
0.0762988325
0.0770902824
0.0778910329
0.07919725008
0.08064581781
0.08162456453
0.08193202539
0.08227509077
0.08300641199
0.08532861742
0.08682881222
0.08629208561
0.08584957617
0.08631870334
0.087546158
0.0880288324
0.08709290894
0.08650592044
0.0860320592
0.08519298816
0.08378770864
0.08239060523
0.07968248742
0.07713660141
0.07168946124
0.0511762658
-0.17083619
-0.1525687929
-0.1213984009
-0.6207548579
-1.478045206
)


100
(
-0.008364392063
-0.01808245275
-0.01674055782
-0.01699920738
-0.01637869592
-0.01498656903
-0.01280791565