/*--------------------------------*- C++ -*----------------------------------*\
| =========                 |                                                 |
| \\      /  F ield         | OpenFOAM: The Open Source CFD Toolbox           |
|  \\    /   O peration     | Version:  2.3.1                                 |
|   \\  /    A nd           | Web:      www.OpenFOAM.org                      |
|    \\/     M anipulation  |                                                 |
\*---------------------------------------------------------------------------*/
FoamFile
{
    version     2.0;
    format      ascii;
    class       dictionary;
    location    "constant";
    object      PM30;
}
// * * * * * * * * * * * * * * * * * * * * * * * * * * * * * * * * * * * * * //

PM30_table
100
(

100
(
0.02566189545
-0.01057037934
-0.006507827933
-0.003749255443
-0.003302255597
-0.002383452701
-0.001363579598
-0.001230567493
-0.0008227369698
-0.0004799226196
-0.0005364758263
-0.0001055227663
-3.322057529e-05
-2.211319579e-05
0.0001098202665
0.000161636545
0.0001557575266
0.0001822073144
0.0002290555784
0.0002503079593
0.0002247985548
0.0002279379627
0.0002595669121
0.0002673229938
0.0002122575315
0.0002442873815
0.0002748751009
0.0002633787341
0.0001898683113
0.0002130331873
0.000241985695
0.0002241256052
0.0001767119226
0.0001987506519
0.0002229071064
0.0002231414477
0.0001610840841
0.000142288011
0.0001645830066
0.0001686928927
0.0001258061384
0.0001021231802
0.0001202623717
0.0001250546451
9.958589704e-05
7.991862049e-05
9.469307708e-05
0.0001110505987
7.673603057e-05
4.651811825e-05
4.186793038e-05
5.169208934e-05
3.448379447e-05
1.78615684e-05
1.482706925e-05
1.917397692e-05
1.331802517e-05
8.29506281e-06
1.309324655e-05
2.417598111e-05
1.828608887e-05
-3.164400054e-05
-2.876387927e-05
-1.934801992e-05
-3.727121477e-05
-7.865480647e-05
-6.608257863e-05
-6.855516681e-05
-0.0001047219562
-0.0001142220636
-0.0001040368686
-0.000121830993
-0.000149740416
-0.000135498885
-0.0001751923386
-0.0002134786968
-0.0001736568701
-0.0001956450244
-0.0002213170509
-0.0001752008927
-0.0002125889645
-0.0002005237324
-0.0001870577332
-0.000227748526
-0.0001827281853
-0.0002046778896
-0.0002178792746
-0.0001850738254
-0.0002228551312
-0.000191644809
-0.0002084850221
-0.0002002736779
-0.00022564689
-0.0002214833149
-0.0002430693664
-0.0002294918335
-0.0002310199933
-0.0002140229376
-2.402291988e-05
0.0001380478655
)


100
(
0.02854458918
-0.007899914825
-0.005323181258
-0.003348177514
-0.003388782963
-0.00211451776
-0.00163438998
-0.001164740283
-0.0009163040895
-0.0005156217942
-0.0005033474368
-0.0001849945959
-0.0001045010958
-6.19962164e-05
4.43625818e-05
8.452469686e-05
0.0001035994157
0.0001486624853
0.0001569866731
0.000183315042
0.0001939523499
0.0001883399425
0.0001913378339
0.0002063672624
0.0002003948794
0.0001894761093
0.0002003439139
0.0002043229396
0.0001854061299
0.0001660319701
0.0001629435437
0.0001630557371
0.0001545563319
0.0001464888846
0.0001456102807
0.0001531036415
0.0001310987084
0.0001133691106
9.572749685e-05
8.853468603e-05
7.666498504e-05
6.771535706e-05
5.916020473e-05
4.477398691e-05
4.074476217e-05
3.7884851e-05
3.571286453e-05
3.242723961e-05
1.366095749e-05
4.205377999e-06
-4.21144581e-06
-1.622602969e-05
-4.421932228e-05
-5.098800238e-05
-5.519496641e-05
-6.436650722e-05
-9.477809685e-05
-9.162986676e-05
-8.80315716e-05
-9.496096374e-05
-0.000143439347
-0.0001673978488
-0.000196399792
-0.0001984436681
-0.0001902027146
-0.0002024887799
-0.0002251064676
-0.0002339708402
-0.0002279395672
-0.0002436830512
-0.0002497776776
-0.0002479514498
-0.000252154991
-0.0002466022832
-0.0002473399358
-0.0003203777063
-0.0003888406476
-0.0003576145685
-0.0003761337018
-0.0003779480141
-0.0003579300409
-0.0004222002016
-0.0003673692904
-0.0004482032516
-0.0004467759526
-0.0004041084406
-0.0004582767263
-0.0004373375797
-0.0004436727491
-0.0004870923934
-0.0005029554074
-0.0005143688145
-0.0005389886743
-0.0006165020511
-0.0006055757396
-0.0006280792499
-0.0006426340586
-0.0006372912621
-0.0003131136093
-0.00651425379
)


100
(
0.01470108032
-0.006153566466
-0.00436596325
-0.004070838443
-0.003535766293
-0.001970807388
-0.001989590205
-0.001114710011
-0.001039448603
-0.0006205656222
-0.0004876693032
-0.0003163187194
-0.0001538783868
-0.0001070198771
-3.186900033e-05
2.219533731e-05
5.213038087e-05
9.395496419e-05
0.0001070081225
0.0001045610053
0.0001379774374
0.0001419274124
0.0001245368872
0.0001123532901
0.0001413922823
0.0001196661225
9.978532239e-05
8.957417924e-05
0.0001189197618
8.746687711e-05
5.78910589e-05
2.982603155e-05
4.522640175e-05
2.665979595e-05
8.966091105e-06
-9.042644136e-06
-5.54834674e-06
-8.617998728e-06
-3.924463671e-05
-6.926662165e-05
-9.906627618e-05
-0.0001161983583
-0.0001388004373
-0.0001671724858
-0.0001977222926
-0.0002457803699
-0.0002642762176
-0.0002832886585
-0.0003029620606
-0.0003727516713
-0.000372115187
-0.0003950310417
-0.0004239362165
-0.000500956473
-0.0005126469055
-0.0005123289815
-0.000532514945
-0.0006137525311
-0.0006012804696
-0.000530459237
-0.0004835353477
-0.000548258943
-0.0006454993206
-0.0006815183988
-0.0006230939251
-0.0005873302386
-0.0006149606949
-0.0006086789912
-0.0005940499666
-0.0006446525149
-0.0007099560436
-0.000749111027
-0.0008125850649
-0.000918851465
-0.0008125888612
-0.0007745303754
-0.001115176853
-0.001094232134
-0.0009675033371
-0.001267845126
-0.001148468661
-0.001160938722
-0.001256824845
-0.00114241176
-0.001297556051
-0.001294829115
-0.0013655702
-0.001533624791
-0.00150205023
-0.001653078595
-0.001799493133
-0.001904470703
-0.001952249807
-0.002065557392
-0.002274180553
-0.002390539157
-0.002669990655
-0.002917001622
-0.007083072065
-0.01199504938
)


100
(
0.002043021254
-0.00761241575
-0.00536779361
-0.005014304769
-0.003037756656
-0.002328962858
-0.001818849973
-0.001336323286
-0.0009578074089
-0.0007588951049
-0.0004336270814
-0.0003412362825
-0.0001901633893
-8.979408199e-05
-3.656101572e-05
1.970232629e-05
4.872229639e-05
7.963415121e-05
0.0001178294133
0.0001102205397
9.466885206e-05
0.0001199184576
0.0001250956493
9.10972512e-05
5.394136476e-05
7.324973691e-05
5.830430121e-05
1.929837314e-05
-2.378176299e-05
-1.687992965e-05
-2.473924237e-05
-8.042426964e-05
-0.0001378224956
-0.0001877735924
-0.0001819771508
-0.0002277943578
-0.0002824950853
-0.0003868084553
-0.000367709172
-0.0003960220275
-0.0004708538953
-0.0005658368381
-0.0006640308034
-0.0006413791201
-0.0006836303263
-0.0007804183039
-0.000970235063
-0.0009432578566
-0.0009288867038
-0.001011557179
-0.001180804283
-0.001157391165
-0.001085221768
-0.001138341769
-0.001244736982
-0.001234824257
-0.001131061564
-0.001194775243
-0.001289742292
-0.001265781455
-0.001103978312
-0.001000538522
-0.001035760865
-0.00117946085
-0.001308494759
-0.001370902299
-0.001434543738
-0.001506762941
-0.001543516335
-0.001584462339
-0.001640393827
-0.001690514514
-0.001781490326
-0.002170197004
-0.002574840633
-0.002143444944
-0.002020033937
-0.002665585039
-0.002399985057
-0.002324662545
-0.00271995994
-0.002529310516
-0.002945427519
-0.003162936992
-0.003282043043
-0.003423987002
-0.003431766749
-0.003841324833
-0.004186397432
-0.00472768452
-0.004783345404
-0.005008967181
-0.005522073404
-0.005681970828
-0.006162318251
-0.006782655058
-0.007899029066
-0.01069954747
-0.02585338174
-0.04958094007
)


100
(
-0.002063796549
-0.009050336914
-0.006403277582
-0.004329333374
-0.002820301751
-0.002842126195
-0.001676406672
-0.001597944779
-0.0009472119853
-0.0007718872279
-0.0005139415859
-0.0003047952163
-0.00021393715
-8.60754528e-05
-1.273886285e-05
4.650216436e-05
8.714629046e-05
9.905826156e-05
0.0001299083349
0.0001835717988
0.0001509219855
0.0001107183168
0.0001205037483
0.0001476463935
7.841698281e-05
1.765768483e-06
-2.611260407e-05
-1.339725371e-05
-9.270009952e-05
-0.0001828742498
-0.0002718763419
-0.0002333352225
-0.0003167391741
-0.0004331478596
-0.0006410844212
-0.0006066639262
-0.0006151888844
-0.0007043329864
-0.001041103897
-0.001025800158
-0.000985781946
-0.0009949630118
-0.001255150992
-0.001383018565
-0.001313176014
-0.001178975459
-0.001405035503
-0.001643591604
-0.001560235632
-0.001401829605
-0.001535388957
-0.001694557694
-0.001674611732
-0.001579727892
-0.001648656438
-0.001762981868
-0.001769085047
-0.001740799515
-0.001893381249
-0.002136759897
-0.002310012859
-0.002345101682
-0.002356712982
-0.002429415312
-0.002548964108
-0.002685308116
-0.002810292464
-0.002930139983
-0.002990705164
-0.002996509112
-0.003047106486
-0.003144759565
-0.003108946149
-0.003061556504
-0.003739956654
-0.004572400347
-0.003758699119
-0.003949776946
-0.004653658951
-0.004618148149
-0.005206275848
-0.00556387278
-0.005480286922
-0.006131042273
-0.006830089045
-0.007555546449
-0.007807335691
-0.007986119097
-0.008862708408
-0.009526866821
-0.01041811264
-0.01103896369
-0.01143419311
-0.01262735536
-0.01321311075
-0.01482892658
-0.01813019938
-0.03296963489
-0.04506440331
-0.09905265771
)


100
(
8.555065382e-05
-0.007158458072
-0.005484798236
-0.003794215005
-0.003396336029
-0.002713800896
-0.001942281051
-0.001541202864
-0.001174439978
-0.0007385037933
-0.0006139617879
-0.000327664678
-0.0001758359041
-6.358437989e-05
3.334926369e-05
9.958858547e-05
0.0001870048257
0.0002241440124
0.0002174128792
0.000250687233
0.0003443430183
0.0002914186039
0.0002048192034
0.0001595844098
0.0002322160357
0.000112642559
-4.860276648e-05
-0.0001007293129
-2.419914507e-05
-9.9367739e-05
-0.0003015544052
-0.0005460889392
-0.0004848555063
-0.000429046126
-0.0006964630054
-0.001063838786
-0.0009982597762
-0.0007954242976
-0.001035175386
-0.00145710386
-0.001416210196
-0.001289572485
-0.001269813246
-0.001585745971
-0.00170785013
-0.001533389404
-0.001408733034
-0.001685689114
-0.001959033887
-0.001840770223
-0.001754686108
-0.001922955946
-0.002148214224
-0.002275119785
-0.002345426455
-0.002566059016
-0.002813046443
-0.002935568754
-0.003022276768
-0.003158019279
-0.003392213557
-0.003612335725
-0.00376462329
-0.003875696446
-0.003932627744
-0.003960028747
-0.004036440833
-0.004289965958
-0.004671674314
-0.004957048073
-0.005155763965
-0.005321449946
-0.005484423241
-0.005395955297
-0.005038888669
-0.005843124277
-0.007022910115
-0.007120371892
-0.007618208474
-0.008112786063
-0.008785796093
-0.009616759451
-0.01030181336
-0.01091910602
-0.01149142891
-0.01224661678
-0.01352111467
-0.01372546805
-0.01500756778
-0.0158864193
-0.01629855601
-0.01717860123
-0.01801605761
-0.01889200553
-0.01969153765
-0.02325408395
-0.03361238144
-0.07250844538
-0.08458591909
-0.2388879019
)


100
(
0.004462116933
-0.005791526818
-0.004722751554
-0.004034388509
-0.004073337242
-0.002553466178
-0.002412416073
-0.001486712798
-0.001348896473
-0.0008457294744
-0.0005766879054
-0.0003679250397
-0.0001252305198
2.651310161e-05
0.0001716354036
0.0002437803445
0.0003211680628
0.0004782283795
0.0005322975774
0.0004907933772
0.0004966904133
0.0006407783123
0.0005779250715
0.0003913260165
0.000181648237
0.0002788629069
0.0002197019919
-2.591345e-05
-6.52476193e-05
3.044729331e-05
0.0001145152723
-0.0004262230232
-0.0006852525926
-0.0005942149026
-0.0003243187884
-0.0008535659955
-0.00123089562
-0.001121185857
-0.0007008939709
-0.00113129017
-0.001573445458
-0.001531694546
-0.001260013397
-0.001375130596
-0.001730114093
-0.001860074798
-0.001678271392
-0.001631280872
-0.002028621943
-0.002388075231
-0.002503483167
-0.002564589334
-0.002827556701
-0.003120048667
-0.003385685871
-0.003631706843
-0.003796955318
-0.003932835286
-0.004049953395
-0.004118075676
-0.004199028077
-0.004234965315
-0.004357883664
-0.004590494835
-0.005041404579
-0.005537161645
-0.005938876009
-0.006238080735
-0.006684344698
-0.007206599228
-0.00772567042
-0.008033799792
-0.008259805722
-0.00871887918
-0.009412400533
-0.009454131815
-0.01033512688
-0.01113478377
-0.01199686273
-0.01241821604
-0.01319354262
-0.01380861459
-0.01452246634
-0.01530417272
-0.01616047039
-0.01681876089
-0.01736704365
-0.01759271678
-0.01753768303
-0.01905752928
-0.01977652575
-0.01959078646
-0.02003364148
-0.02030851044
-0.02106822765
-0.02649535752
-0.0479254947
-0.1201301568
-0.2287974743
-0.5599913407
)


100
(
0.002369304414
-0.005101974549
-0.004723330501
-0.004787233537
-0.0037313338
-0.002839120243
-0.002426917973
-0.001763450987
-0.001313783542
-0.001012259433
-0.000525562448
-0.000290663101
-2.506976416e-05
0.0001808772645
0.0003925176572
0.0005796250791
0.0006172261293
0.0006864761089
0.0009462288753
0.0009928997892
0.0008422128176
0.0006956940021
0.0008629920454
0.0008639846058
0.0005896029944
0.0002555842476
0.0002692345822
0.0001738550855
-0.0001326408134
-0.0001320503765
7.157253497e-05
0.0001952439071
-0.0005807275072
-0.0008144651108
-0.0005630018247
-0.000375654914
-0.0009908868243
-0.00136246839
-0.001027276985
-0.000795476813
-0.001245798059
-0.001735529424
-0.001617460749
-0.001510295283
-0.00170489958
-0.002176661069
-0.002384747555
-0.002398714918
-0.002433627855
-0.002918289065
-0.003238691193
-0.003612292564
-0.00379347601
-0.003847066314
-0.003977442357
-0.004218038301
-0.004474326945
-0.004669676049
-0.004757972165
-0.004907184843
-0.005161658704
-0.00563812065
-0.00618853482
-0.006616767508
-0.007062404586
-0.007659214418
-0.008388425849
-0.008936379694
-0.009271487025
-0.009576937187
-0.01007515866
-0.01100378742
-0.0118920312
-0.01252088835
-0.0132783565
-0.01415330226
-0.01458493247
-0.01493219704
-0.01566442508
-0.01612213429
-0.01651560732
-0.01715053034
-0.01724869537
-0.01775428521
-0.01795575264
-0.01828715138
-0.01852844698
-0.0188337392
-0.0183184514
-0.01860799883
-0.01927484292
-0.01941214286
-0.02000387058
-0.02013370327
-0.02053430351
-0.02847346484
-0.06219600569
-0.1401511344
-0.4526088959
-1.089118816
)


100
(
-0.000545453046
-0.005724873026
-0.005392525421
-0.004816512494
-0.003398484675
-0.00336214902
-0.002291066552
-0.002104642333
-0.001261146485
-0.00096247356
-0.0005277426829
-0.0001327837689
0.0001833446439
0.0004636760173
0.000632432397
0.0009418944
0.001152416802
0.001094746362
0.001063475825
0.001315227628
0.001367947495
0.001105795705
0.0007404674389
0.0009163057188
0.001087138616
0.000727563784
0.0003215682275
0.000110331689
-5.579598449e-05
-0.000374899602
-0.0003421412317
0.000221417168
-5.314011554e-05
-0.0008412740406
-0.001049465872
-0.000534499043
-0.0006347527405
-0.001282815379
-0.00161394582
-0.001266208682
-0.001174135789
-0.001697133135
-0.00226554375
-0.002368123967
-0.002380778613
-0.002651517818
-0.003092991088
-0.003452577577
-0.003755757234
-0.003758027503
-0.003850374745
-0.004113997813
-0.00449452506
-0.004833475135
-0.00499622414
-0.004955182488
-0.005280010265
-0.005771674395
-0.00645732837
-0.007200757169
-0.00777060123
-0.008310199383
-0.00896618481
-0.009796702959
-0.01045330247
-0.01079394602
-0.01099551591
-0.0115337153
-0.01236519676
-0.01340798285
-0.01413029715
-0.01473219425
-0.01563317783
-0.01634473759
-0.01661691174
-0.01684039338
-0.01739628839
-0.01775440881
-0.01795702332
-0.01838360004
-0.01814001612
-0.01843050853
-0.01843742564
-0.0184865266
-0.0186829701
-0.0189114681
-0.0191218475
-0.01939978385
-0.01969776902
-0.02008455962
-0.02060539201
-0.02117778127
-0.02115299504
-0.02220843323
-0.0238625936
-0.0336619531
-0.08557368976
-0.1659751473
-0.6003980001
-1.174644259
)


100
(
-0.00186068743
-0.005927060899
-0.005336371404
-0.004253205518
-0.003671459368
-0.003344829262
-0.002437302918
-0.002004937217
-0.001424438877
-0.0008184335425
-0.0004232408843
4.821153921e-05
0.0004108096236
0.0008518292294
0.001071928774
0.001123341805
0.001465745672
0.001654820966
0.001441315647
0.00122361697
0.001476598621
0.001612280547
0.001233805205
0.0007732086328
0.0007330833419
0.0009574998605
0.0007110237811
0.0002756763038
-0.0001342311246
-0.0004058826795
-0.0007257098197
-0.000519826635
2.27425282e-05
-0.0004256591397
-0.00124415456
-0.001242640222
-0.0009548451642
-0.001129344819
-0.001901466636
-0.002170199989
-0.002117562672
-0.002073434985
-0.002702328306
-0.003159735938
-0.003708432177
-0.003883136966
-0.003915103176
-0.004162105027
-0.004565225852
-0.005007661586
-0.005419809707
-0.005275126156
-0.00541406519
-0.005908054581
-0.006537596786
-0.007238825722
-0.008124458011
-0.008603450583
-0.009353560997
-0.01024835
-0.01144793633
-0.01236172511
-0.01266070748
-0.01285469229
-0.01341820792
-0.01415254221
-0.01503904771
-0.01573298663
-0.01613579545
-0.01676971755
-0.01764378104
-0.01794094248
-0.01770310623
-0.01780472008
-0.01843428713
-0.01874625185
-0.01893305947
-0.0193021924
-0.01912775859
-0.01932870033
-0.01962519924
-0.01987122543
-0.02044022448
-0.02028906088
-0.02092694691
-0.0212088223
-0.02211284292
-0.02249378574
-0.02317743738
-0.02376037055
-0.02435023822
-0.02516610606
-0.0257370078
-0.0263551532
-0.02906240951
-0.04377050449
-0.1188101307
-0.1866703486
-0.589981176
-1.009168584
)


100
(
-0.001542976057
-0.005084436817
-0.004685919456
-0.003914977674
-0.004194010025
-0.003081958212
-0.002817097285
-0.001852458263
-0.00151792213
-0.0007602114051
-0.000229868605
0.0003346128936
0.0007250654474
0.00108202485
0.001578144135
0.001622477683
0.001495755568
0.001840860494
0.002024421447
0.001712260187
0.001251199438
0.001451231266
0.001735333525
0.001279882778
0.0007884408742
0.0005063677865
0.0007314946301
0.0007188454024
0.0002786360597
-0.0001376747209
-0.0007302859688
-0.001067570518
-0.0004612850986
-0.0002968964688
-0.0008334778625
-0.00175038373
-0.001715797136
-0.001659665988
-0.001883872776
-0.002615694735
-0.003130872918
-0.003347639424
-0.003302624061
-0.003523327826
-0.004006128863
-0.004703967956
-0.005323426457
-0.005375659995
-0.005228147177
-0.005704393956
-0.006362055369
-0.00710351202
-0.007713196842
-0.008302599176
-0.008937285991
-0.009881354248
-0.01094884766
-0.01244504305
-0.01346582607
-0.01353961221
-0.01367080623
-0.01449404058
-0.01535974049
-0.01596963765
-0.01649286936
-0.01684089015
-0.01727875956
-0.01810802961
-0.01863098601
-0.01810551264
-0.01766061326
-0.01792784433
-0.01863396399
-0.01876554118
-0.01906435307
-0.01960686378
-0.01967922438
-0.01996282105
-0.02076851873
-0.0213407846
-0.02207194512
-0.02242810434
-0.02305971287
-0.02359791356
-0.02426962554
-0.0248656624
-0.02570234791
-0.0265723276
-0.02726431967
-0.02819249343
-0.02895630123
-0.02950933569
-0.03015263819
-0.03125396851
-0.03581093355
-0.0566405419
-0.1567781309
-0.1943098967
-0.5407373559
-0.9373562249
)


100
(
-7.406193588e-07
-0.004327270375
-0.004100120919
-0.004346712401
-0.004081824461
-0.003147061761
-0.002859537841
-0.002033492247
-0.001401389815
-0.0007520455557
-2.750568571e-05
0.0005750666262
0.001197658678
0.001434104217
0.001743983104
0.002285364217
0.002188612342
0.001894894729
0.002135838012
0.002376281316
0.001968314894
0.001472497168
0.001471669611
0.001756726996
0.001488195556
0.001001614774
0.0005304888647
0.0006969843236
0.000923241465
0.0005336085309
0.000102215453
-0.0007899372299
-0.001073762364
-0.0006249255671
-0.0004985441986
-0.001168998392
-0.00183048187
-0.00229102286
-0.002173726554
-0.002257794354
-0.002715145946
-0.003408025817
-0.004171873595
-0.004304651366
-0.003992978591
-0.004266873151
-0.005052844489
-0.005932837884
-0.006642372265
-0.006862814918
-0.006973112136
-0.008044858198
-0.00913557673
-0.0103743434
-0.0119854912
-0.01244205579
-0.0122466397
-0.01280730913
-0.01385791861
-0.0148489948
-0.01504147749
-0.01483171391
-0.01530523863
-0.01587185821
-0.01661894662
-0.01745882639
-0.01693181822
-0.01639849014
-0.01671276784
-0.01715947509
-0.0176236786
-0.01775540235
-0.01836020481
-0.01903075095
-0.01912157124
-0.01926818724
-0.020267319
-0.02108322454
-0.0220613058
-0.02287609746
-0.02317473966
-0.02410053847
-0.02496609932
-0.02608892966
-0.02627085577
-0.02721608482
-0.02811533674
-0.02888591776
-0.02963755607
-0.03122930272
-0.03197250083
-0.03208680916
-0.03236767613
-0.03283695055
-0.04341136367
-0.07614469218
-0.1895645465
-0.2093421135
-0.4878371908
-0.8568561576
)


100
(
-1.288744523e-05
-0.003965848694
-0.004309235724
-0.004774780671
-0.003759667382
-0.003616935201
-0.002747054948
-0.002350798851
-0.001309463071
-0.0006531894074
0.0001788205894
0.0008004825674
0.001511734311
0.00205830335
0.002139071951
0.002416745338
0.002958698083
0.002735833761
0.002310696629
0.002413404277
0.002812654225
0.002354322738
0.001865462444
0.001670107352
0.001974483702
0.00197866978
0.001505835303
0.00107684245
0.0009455813208
0.001234102544
0.00123588701
0.000788868365
-0.0003499868885
-0.0006803344449
-0.0003900882376
-6.53030766e-06
-0.0004063167884
-0.0008613976702
-0.001774503517
-0.002203352976
-0.001839584934
-0.001907478831
-0.002671136336
-0.003571133739
-0.0044256486
-0.004256351768
-0.00401972626
-0.00466051604
-0.005740328897
-0.00680812934
-0.008170228169
-0.008780771004
-0.008932207979
-0.009177560419
-0.01023801479
-0.01158313706
-0.01248863195
-0.01158711797
-0.01111352924
-0.01173668851
-0.0125742463
-0.01325259678
-0.01367849298
-0.01345777944
-0.01310080112
-0.0137456842
-0.01448057624
-0.01427178446
-0.01453127162
-0.01539041494
-0.01626436629
-0.01703694321
-0.01709053148
-0.01724784215
-0.01785141723
-0.01894253255
-0.01994419265
-0.0209551032
-0.02107946032
-0.02155733717
-0.02282444736
-0.02387605795
-0.02482906402
-0.02512999886
-0.02632451258
-0.02740755921
-0.02781135971
-0.02904940273
-0.03087663639
-0.03078206725
-0.03290002411
-0.03283437036
-0.03392177949
-0.03493214786
-0.04789260732
-0.1143018024
-0.2198401624
-0.2185380893
-0.5123564079
-0.9279101438
)


100
(
-0.0009532041979
-0.004118874463
-0.004613507847
-0.004325343059
-0.003813642875
-0.003813131091
-0.002844638518
-0.002317976487
-0.001431879387
-0.0005090933755
0.000368136142
0.001158212365
0.001694517961
0.002443767844
0.002857509304
0.00273748079
0.002927435857
0.003444547187
0.003177195676
0.002723889014
0.002693591356
0.003098013934
0.002834143477
0.002392448414
0.00197789906
0.002348520527
0.00269844397
0.002332413538
0.00198207589
0.001693659875
0.00194338542
0.002414066924
0.002083280932
0.001271427457
0.0009546855039
0.0005986201405
0.0009692063602
0.001403163288
0.0007654678537
-0.0002740035752
-0.001338820991
-0.001281530585
-0.0004768882317
-0.00105786029
-0.002062900362
-0.00300735422
-0.003692953407
-0.003984506865
-0.003855165657
-0.004476289851
-0.005351076668
-0.006909714433
-0.008408037336
-0.007699222281
-0.006368232122
-0.00712744585
-0.008221623941
-0.008839111348
-0.009337115767
-0.008901480439
-0.008565817409
-0.008882157306
-0.009989883301
-0.01102908286
-0.01040821537
-0.009997378253
-0.0111165315
-0.01235298488
-0.01310768112
-0.01374153957
-0.01379255269
-0.01410182969
-0.01442157809
-0.01523635917
-0.01616784305
-0.01731256513
-0.01780016105
-0.01814194417
-0.01859458978
-0.01982460579
-0.02118560575
-0.02180244406
-0.0220365448
-0.02329328842
-0.02464689903
-0.02524077768
-0.02596927005
-0.02694753396
-0.02739958002
-0.02873864379
-0.02886182921
-0.03051288199
-0.03211532183
-0.03602683608
-0.05134094826
-0.1582338212
-0.246739409
-0.2227794811
-0.4860496161
-0.8745449579
)


100
(
-0.00150538695
-0.003975310711
-0.0042222242
-0.003908456631
-0.004204177745
-0.003589114163
-0.003209423767
-0.002192893988
-0.001514818835
-0.0004221305768
0.0004669203852
0.001476715703
0.002038077724
0.00245505018
0.003139059567
0.003378013751
0.003111115845
0.003177130801
0.003683899868
0.003481559824
0.003060894606
0.002879341542
0.003322589662
0.003340628126
0.00298494277
0.002696405314
0.002849521561
0.003397115781
0.003645928859
0.003386203838
0.003207971365
0.002794294905
0.003334504875
0.004001210561
0.003531740176
0.002876585746
0.001802589112
0.001658297893
0.002643887973
0.002809465789
0.001651322772
0.0004849196954
-0.0003214052892
0.0001496533736
0.0007973496434
2.004145987e-05
-0.0009871202607
-0.001885786705
-0.003989907401
-0.003699615105
-0.002516307034
-0.002571421037
-0.004158237752
-0.005618213365
-0.005970208788
-0.004850365852
-0.004217912607
-0.005103119056
-0.005493967066
-0.007224646739
-0.007471644956
-0.006451587384
-0.006342070132
-0.007619097752
-0.008685257414
-0.00940691299
-0.009842800675
-0.01065594551
-0.01103907712
-0.01131971792
-0.01138181374
-0.0114528041
-0.01277699473
-0.01397370187
-0.01496399796
-0.0150122974
-0.01520145659
-0.01580041397
-0.01727165494
-0.01845401258
-0.01876235423
-0.01898589183
-0.02023874376
-0.02188973886
-0.02214534316
-0.0227832813
-0.02441451728
-0.02554059837
-0.02567693657
-0.02561541681
-0.02631395031
-0.02640902539
-0.02566875289
-0.02922951849
-0.0527981106
-0.1935980262
-0.2644384939
-0.2384200488
-0.5781080045
-1.221083251
)


100
(
-0.00122223945
-0.00350992646
-0.003737425664
-0.003919890459
-0.004237594014
-0.003469793019
-0.003278663608
-0.002293208226
-0.001425590023
-0.0004018840058
0.0005684849152
0.001417556066
0.002315328565
0.002618767552
0.002881620107
0.003472829204
0.003593825555
0.003267099605
0.003234272317
0.00372998001
0.003687328723
0.00334334291
0.003016657441
0.003548132875
0.004077712497
0.003788487456
0.00368431511
0.003570744666
0.0043949069
0.005261658232
0.005131656287
0.004855690491
0.004178609285
0.004105941554
0.005011124566
0.005701863561
0.00476403673
0.003606733846
0.002323891481
0.003177552381
0.004344278391
0.003802227755
0.002510967802
0.001826688113
0.0006726952066
0.0006306840715
0.001186997408
0.001051967806
-4.420580183e-05
-0.002004658283
-0.003716742637
-0.002058827509
-0.0008912223165
-0.002218958601
-0.003384215598
-0.00376806497
-0.004562060425
-0.00412865959
-0.003127029497
-0.004005815577
-0.005819320742
-0.007215440657
-0.006000316438
-0.005649428201
-0.007272037938
-0.008398843068
-0.009098463328
-0.009142346588
-0.009247115217
-0.009561440122
-0.01013406238
-0.01153402362
-0.01260060992
-0.01319105907
-0.01334060374
-0.01348924402
-0.01422457139
-0.01563874173
-0.01698206682
-0.01736007676
-0.01731323207
-0.01860180815
-0.01991589103
-0.02026643312
-0.0207474212
-0.02409385189
-0.02485933464
-0.02419617275
-0.02622345536
-0.02648163091
-0.02746288999
-0.03043233497
-0.0275972561
-0.0318186702
-0.04976479558
-0.217141974
-0.2755130225
-0.2519547151
-0.6499937908
-1.35353941
)


100
(
-0.0005556910021
-0.003043267496
-0.003434340332
-0.004096427492
-0.003837841074
-0.003721592478
-0.00308037363
-0.002505812883
-0.001330190097
-0.0004154532599
0.000641052104
0.00133618266
0.002097890348
0.002768126557
0.002846283882
0.002983887095
0.003502419402
0.003589021547
0.003314448996
0.003193442489
0.003715870226
0.003934978935
0.00371942419
0.003613861261
0.003988026748
0.004819459186
0.005124923912
0.005224519559
0.005245272931
0.005256088592
0.006227147747
0.007293059701
0.006852555087
0.005916561893
0.00458898369
0.005530684651
0.007184891332
0.00680081165
0.005497487662
0.004295225241
0.003494190699
0.004494519505
0.00546201803
0.004566335152
0.003663281339
0.001980335351
-0.0003521028083
0.0003941768818
0.002440103551
0.00111605386
-0.0006674610507
-0.002134379883
-0.0022572163
-0.001529804388
-0.001074250893
-0.001804586608
-0.002862936554
-0.0048203475
-0.004850036586
-0.002892656771
-0.003712793763
-0.005496635625
-0.006724004145
-0.007403264198
-0.008177956817
-0.007935675792
-0.008022361281
-0.008290942173
-0.008317253695
-0.008831977565
-0.01028457125
-0.01183751696
-0.01225474824
-0.01259890405
-0.01289661197
-0.01413905555
-0.01534876962
-0.01614168437
-0.01611840285
-0.01656567516
-0.01749456516
-0.01998637459
-0.02040987287
-0.02008658215
-0.02184224533
-0.02274379699
-0.02397806144
-0.02467415516
-0.02372244235
-0.02629888045
-0.02515054455
-0.02775814417
-0.03025244828
-0.03383888223
-0.06154559936
-0.2341404598
-0.2798454023
-0.2367800802
-0.646036958
-1.362633383
)


100
(
-0.000632947148
-0.002884676035
-0.003477287622
-0.003858591285
-0.003552609133
-0.003817901933
-0.002986685981
-0.002433262308
-0.001431168874
-0.0004116576516
0.0005259936847
0.00137426016
0.001797767424
0.002420415193
0.002893098654
0.002863045548
0.00290645421
0.003412157908
0.003587171347
0.003413470153
0.003232948237
0.003865104139
0.004594073544
0.00452272597
0.004689488051
0.004905079677
0.006090806888
0.007352167892
0.007195190659
0.007269900572
0.006353192409
0.007201403136
0.00878694125
0.009151466366
0.007939340593
0.006616432151
0.005944744286
0.007838806698
0.009159309889
0.007997092582
0.006771903818
0.006038251648
0.004051865201
0.004775550472
0.00592149784
0.005524680035
0.003337674724
0.00102435138
-0.0001761221336
0.001568470305
0.00209527001
0.0004761127174
-0.0003564469395
-0.001281180457
-0.002065809186
-0.001542389509
-0.0003027610379
-0.002149073112
-0.004275468499
-0.005069141411
-0.003931435365
-0.003976883768
-0.005791331423
-0.006710701052
-0.006945807331
-0.007082401467
-0.007226505172
-0.007552603532
-0.008692546546
-0.01046238219
-0.01140127006
-0.01097718911
-0.01108288019
-0.01139220621
-0.01247263108
-0.01392842107
-0.01542348329
-0.01621564296
-0.01662326575
-0.01692934027
-0.01816006697
-0.01837657198
-0.01970407565
-0.02119032429
-0.02260148724
-0.02067906767
-0.02145030228
-0.02428455852
-0.02649570351
-0.02481535589
-0.02542649054
-0.02216257845
-0.02395046815
-0.03121259786
-0.060177053
-0.2525177392
-0.2835981284
-0.2144076998
-0.6628615158
-1.544732856
)


100
(
-0.001001037096
-0.002834981859
-0.003379767655
-0.003435883078
-0.003671459348
-0.00352822239
-0.003163269175
-0.002284644834
-0.001548658428
-0.000481249308
0.0003397434607
0.001174558447
0.001727094092
0.001966075242
0.002464540556
0.002835038649
0.002805986187
0.00282576546
0.003361650927
0.003756373092
0.003729462789
0.003837088065
0.004461513467
0.005558797035
0.00616302387
0.006657025787
0.007043554932
0.007583084326
0.009077618556
0.01002593511
0.009878005152
0.008956189267
0.008187916312
0.01009607367
0.01230207746
0.01079481579
0.00941166432
0.008482075247
0.008697432877
0.009946280292
0.01110313299
0.009555512148
0.008572300036
0.005589026695
0.004048019445
0.005342759476
0.006979607989
0.004500051995
0.002479668929
0.001375198837
0.001167798305
0.001931107014
0.002454447786
0.002043135423
0.0001508220253
-0.002190789337
-0.001267178062
0.0003841731432
-0.001076351388