/*--------------------------------*- C++ -*----------------------------------*\
| =========                 |                                                 |
| \\      /  F ield         | OpenFOAM: The Open Source CFD Toolbox           |
|  \\    /   O peration     | Version:  2.3.1                                 |
|   \\  /    A nd           | Web:      www.OpenFOAM.org                      |
|    \\/     M anipulation  |                                                 |
\*---------------------------------------------------------------------------*/
FoamFile
{
    version     2.0;
    format      ascii;
    class       dictionary;
    location    "constant";
    object      PM31;
}
// * * * * * * * * * * * * * * * * * * * * * * * * * * * * * * * * * * * * * //

PM31_table
100
(

100
(
-3.13064672e-05
9.808056904e-05
2.514123524e-05
8.484103871e-06
3.961724959e-06
2.153506193e-06
9.386548461e-07
5.695538583e-07
3.493835463e-07
2.30608373e-07
1.915395367e-07
1.653257538e-07
1.678876604e-07
1.869440434e-07
1.628004638e-07
1.658505632e-07
1.846680826e-07
1.454886911e-07
1.386193782e-07
1.510934764e-07
1.242347508e-07
1.057281695e-07
1.046823553e-07
1.033709808e-07
8.027014941e-08
7.357621579e-08
7.393902606e-08
6.81869731e-08
5.19823908e-08
4.730392312e-08
4.710592037e-08
4.148483726e-08
3.330959742e-08
3.017864586e-08
2.896189919e-08
2.667701764e-08
2.064474523e-08
1.753855391e-08
1.663986471e-08
1.54191321e-08
1.236154113e-08
1.038924051e-08
9.641740335e-09
8.753757016e-09
7.108399819e-09
5.947385672e-09
5.420010386e-09
5.140798177e-09
4.075984988e-09
3.377297748e-09
3.079354522e-09
2.945376078e-09
2.486844028e-09
2.14899261e-09
1.968023841e-09
1.798537482e-09
1.57433467e-09
1.483977605e-09
1.629141171e-09
2.127321918e-09
2.745532357e-09
2.253387812e-09
1.564847753e-09
1.554344982e-09
1.795995766e-09
1.451553222e-09
1.093211761e-09
1.209392708e-09
1.197674515e-09
9.237851135e-10
7.828716395e-10
8.504092901e-10
7.241712891e-10
5.912655297e-10
7.864365628e-10
8.422734607e-10
5.014077013e-10
5.564908559e-10
5.785501396e-10
3.351649732e-10
4.213049168e-10
3.26502765e-10
2.659846941e-10
3.498444605e-10
1.98501603e-10
2.356739778e-10
2.321984722e-10
1.699698438e-10
2.228031987e-10
1.632480155e-10
1.878516026e-10
1.741349421e-10
2.197057259e-10
2.160411893e-10
2.713975557e-10
2.574388203e-10
2.871852853e-10
2.945901108e-10
1.317170354e-10
3.166146232e-11
)


100
(
1.19905349e-05
5.362400314e-05
1.453337665e-05
5.248143055e-06
3.382966721e-06
1.965273831e-06
1.33521942e-06
1.009491859e-06
8.20715952e-07
6.387453403e-07
6.193021422e-07
4.684567515e-07
4.292987901e-07
4.036451399e-07
3.175130291e-07
2.858498138e-07
2.760089742e-07
2.215220489e-07
1.86327615e-07
1.808690301e-07
1.538095728e-07
1.279740629e-07
1.143467594e-07
1.060743477e-07
8.909010739e-08
7.670884991e-08
7.091030021e-08
6.394817477e-08
5.357788561e-08
4.594163255e-08
4.167379701e-08
3.702539611e-08
3.195754565e-08
2.815593134e-08
2.569898223e-08
2.355767939e-08
1.999851688e-08
1.736284007e-08
1.548907431e-08
1.407467875e-08
1.232764191e-08
1.10177922e-08
1.008780171e-08
9.245111699e-09
8.273628397e-09
7.417101901e-09
6.751400292e-09
6.292067943e-09
5.491376869e-09
4.867853088e-09
4.445649865e-09
4.210881216e-09
3.972896648e-09
3.813668605e-09
3.699726812e-09
3.568446071e-09
3.415989095e-09
3.296567995e-09
3.233525103e-09
3.304851068e-09
3.72492223e-09
4.380354229e-09
4.143240273e-09
3.428416432e-09
3.096888298e-09
3.094851952e-09
2.762527432e-09
2.364589468e-09
2.275447548e-09
2.09885823e-09
1.784594964e-09
1.564769129e-09
1.49079052e-09
1.268696582e-09
1.170228587e-09
1.550553615e-09
1.886182631e-09
1.555096776e-09
1.483737944e-09
1.417900001e-09
1.260197396e-09
1.470647734e-09
1.168270983e-09
1.537942359e-09
1.453735985e-09
1.250144724e-09
1.458722242e-09
1.350506161e-09
1.385606938e-09
1.580113605e-09
1.705349023e-09
1.813994987e-09
2.019499446e-09
2.531011157e-09
2.594204463e-09
2.873033474e-09
3.053260623e-09
1.743738542e-09
9.57251073e-10
-1.626445253e-09
)


100
(
5.103550758e-05
2.393116366e-05
5.436574931e-06
3.07322199e-06
2.580261079e-06
1.669213505e-06
1.697792451e-06
1.191124589e-06
1.167380496e-06
8.967317985e-07
8.024972793e-07
6.73220236e-07
5.158215171e-07
4.750295974e-07
3.964341048e-07
3.102258558e-07
2.749359112e-07
2.411986122e-07
1.955369624e-07
1.612583772e-07
1.469804781e-07
1.265180671e-07
1.062135876e-07
9.122569318e-08
8.34476878e-08
7.242796736e-08
6.307670018e-08
5.63391108e-08
5.249958107e-08
4.588695155e-08
3.984272284e-08
3.521948726e-08
3.300236128e-08
3.022834475e-08
2.783149974e-08
2.614156992e-08
2.511240127e-08
2.354578762e-08
2.133779049e-08
1.953776899e-08
1.844678722e-08
1.790895879e-08
1.721591036e-08
1.67690572e-08
1.656474721e-08
1.656767603e-08
1.625176896e-08
1.593126698e-08
1.560278741e-08
1.526153108e-08
1.482953198e-08
1.410920069e-08
1.337424979e-08
1.259693627e-08
1.203775659e-08
1.147785654e-08
1.078202065e-08
9.868811029e-09
9.1630284e-09
8.292266905e-09
7.190210685e-09
7.452619689e-09
8.418414674e-09
7.798645249e-09
6.567598905e-09
6.227385108e-09
6.163226953e-09
5.279381938e-09
4.915215173e-09
5.234315988e-09
5.443833782e-09
5.391225304e-09
5.916736511e-09
6.417359529e-09
5.526928057e-09
5.400446395e-09
7.557677669e-09
7.136952164e-09
6.247331392e-09
8.087714397e-09
7.345991225e-09
7.377937638e-09
7.935479634e-09
7.194176176e-09
8.368833047e-09
8.319921453e-09
9.167635241e-09
1.077997072e-08
1.090986011e-08
1.269029355e-08
1.438609763e-08
1.620179804e-08
1.747806316e-08
1.961499808e-08
2.279165798e-08
2.550636298e-08
2.424111073e-08
1.13075349e-08
-1.050481042e-08
-1.663767397e-08
)


100
(
4.534408719e-05
1.735934428e-05
2.893930564e-06
1.973750665e-06
1.548939285e-06
1.342078576e-06
1.189505291e-06
9.857506943e-07
8.220905357e-07
7.252028952e-07
5.513208244e-07
4.952113448e-07
3.97174414e-07
3.182040997e-07
2.835505264e-07
2.353292066e-07
1.921649404e-07
1.71392505e-07
1.564664736e-07
1.332783036e-07
1.154346076e-07
1.087625571e-07
1.002808635e-07
8.901384974e-08
8.085160439e-08
7.834309479e-08
7.338741936e-08
6.802900997e-08
6.488270696e-08
6.42685762e-08
6.140056466e-08
5.596137708e-08
5.200869925e-08
5.051821298e-08
5.00792457e-08
4.851970922e-08
4.777251229e-08
4.778358293e-08
4.899169325e-08
4.835744589e-08
4.620056263e-08
4.406050392e-08
4.262734106e-08
4.25057305e-08
4.081794045e-08
3.882564449e-08
3.646184369e-08
3.634773113e-08
3.57938412e-08
3.391131007e-08
3.135105063e-08
3.062224593e-08
3.021271456e-08
2.773041749e-08
2.481494296e-08
2.336554178e-08
2.330935043e-08
2.12073509e-08
1.889700562e-08
1.7444133e-08
1.622061629e-08
1.379099094e-08
1.347363934e-08
1.468202427e-08
1.516540596e-08
1.497536053e-08
1.570656843e-08
1.638553865e-08
1.588581364e-08
1.593167452e-08
1.632833633e-08
1.67832183e-08
1.738139587e-08
2.104633399e-08
2.446350541e-08
2.076315746e-08
1.961399847e-08
2.467331692e-08
2.321759272e-08
2.212905727e-08
2.510547511e-08
2.428489447e-08
2.823035549e-08
3.080396563e-08
3.282926129e-08
3.51144535e-08
3.556469753e-08
4.067831307e-08
4.62358439e-08
5.405333331e-08
5.654852926e-08
6.088035976e-08
6.998332108e-08
7.470959944e-08
8.453166368e-08
9.498981253e-08
7.433682784e-08
1.245917633e-10
-1.655435813e-07
-3.125010088e-07
)


100
(
3.777375695e-05
1.416664496e-05
1.385355468e-06
9.454969817e-07
9.199338085e-07
1.063694931e-06
8.133127497e-07
8.100296361e-07
6.18050931e-07
5.672847653e-07
4.758888485e-07
3.89304367e-07
3.556635123e-07
2.896521261e-07
2.472780921e-07
2.307976542e-07
2.035350916e-07
1.793636412e-07
1.715002475e-07
1.697925122e-07
1.525346197e-07
1.411908125e-07
1.392938521e-07
1.384406176e-07
1.289603512e-07
1.235504516e-07
1.233877313e-07
1.239981189e-07
1.191526198e-07
1.168172356e-07
1.169991081e-07
1.193982601e-07
1.13671304e-07
1.071379887e-07
1.01636552e-07
1.017026207e-07
1.00180184e-07
9.663777261e-08
9.064580725e-08
9.137121804e-08
9.230233093e-08
8.973129066e-08
8.130505745e-08
7.561523165e-08
7.392969153e-08
7.353623011e-08
6.529542262e-08
5.790703886e-08
5.664247591e-08
5.715603115e-08
5.170024361e-08
4.644531557e-08
4.476983477e-08
4.491356835e-08
4.157592406e-08
3.748796177e-08
3.626958414e-08
3.781765875e-08
3.779420762e-08
3.709537064e-08
3.790419365e-08
3.900974978e-08
3.766477723e-08
3.737950437e-08
3.784633063e-08
3.822957773e-08
3.878950412e-08
3.993211289e-08
4.013232807e-08
4.019563769e-08
4.013238174e-08
4.119643581e-08
4.122129821e-08
4.244449676e-08
5.022680461e-08
5.889096733e-08
5.159086997e-08
5.286798501e-08
5.990871561e-08
6.146756216e-08
6.818604994e-08
7.269705619e-08
7.264555868e-08
8.115928083e-08
9.053039176e-08
1.012535266e-07
1.068499297e-07
1.114585542e-07
1.250463671e-07
1.375444129e-07
1.526715302e-07
1.64912428e-07
1.751619452e-07
1.985447688e-07
2.128677917e-07
2.326685732e-07
1.492721019e-07
-2.141916743e-07
-6.389560181e-07
-1.092248845e-06
)


100
(
3.822763932e-05
8.396688235e-06
6.022615347e-08
2.810797852e-07
6.189763112e-07
7.166235802e-07
6.600952768e-07
6.281922164e-07
5.796472156e-07
4.864577186e-07
4.816396171e-07
4.00119218e-07
3.596390168e-07
3.416146464e-07
2.953778995e-07
2.735140905e-07
2.731770348e-07
2.571251327e-07
2.424971388e-07
2.428885408e-07
2.508479019e-07
2.365680628e-07
2.2578595e-07
2.248848306e-07
2.32028993e-07
2.233602095e-07
2.176656795e-07
2.193856011e-07
2.250922503e-07
2.193174415e-07
2.097288253e-07
2.020864172e-07
2.04205887e-07
2.026537981e-07
1.852933109e-07
1.682222006e-07
1.643266877e-07
1.653226741e-07
1.509817812e-07
1.341526901e-07
1.30482383e-07
1.298274912e-07
1.251356355e-07
1.107583004e-07
1.021548313e-07
1.02389569e-07
1.022186592e-07
9.012200482e-08
8.056869973e-08
8.11518754e-08
8.187005122e-08
7.592970867e-08
7.094959565e-08
7.22419175e-08
7.658143445e-08
7.687560739e-08
7.553974525e-08
7.747045268e-08
8.003528348e-08
8.249146511e-08
8.347808569e-08
8.396516626e-08
8.375778274e-08
8.324951256e-08
8.319653873e-08
8.161317717e-08
8.03348829e-08
8.398963982e-08
8.817667359e-08
9.220243804e-08
9.480438164e-08
9.658951557e-08
9.78211491e-08
9.712902465e-08
9.465007145e-08
1.057905339e-07
1.238224457e-07
1.27855492e-07
1.34722515e-07
1.420090105e-07
1.524709961e-07
1.683637607e-07
1.778601666e-07
1.872211555e-07
1.994977895e-07
2.116036848e-07
2.323148642e-07
2.43113843e-07
2.710434353e-07
2.906127284e-07
3.001725849e-07
3.251250102e-07
3.459820153e-07
3.786894552e-07
4.056032002e-07
4.146398106e-07
2.05705105e-07
-9.228908634e-07
-1.645075638e-06
-2.847113744e-06
)


100
(
4.033437655e-05
4.381212991e-06
-8.090883196e-07
-1.564352883e-07
3.467819183e-07
4.574477404e-07
5.909335204e-07
5.26200815e-07
5.819374107e-07
5.201744651e-07
4.997733572e-07
4.965335057e-07
4.367990713e-07
4.273851452e-07
4.204970779e-07
3.861351152e-07
3.777681671e-07
3.944937691e-07
3.906035348e-07
3.789723902e-07
3.826854478e-07
3.988340244e-07
3.87724798e-07
3.693652686e-07
3.581896326e-07
3.653755112e-07
3.603438549e-07
3.462185341e-07
3.442420461e-07
3.460559412e-07
3.423197904e-07
3.066983221e-07
2.86580908e-07
2.822715893e-07
2.836201619e-07
2.491122733e-07
2.235506158e-07
2.175382492e-07
2.252099167e-07
1.987196505e-07
1.749595011e-07
1.685159153e-07
1.706084338e-07
1.607164566e-07
1.431979836e-07
1.355858722e-07
1.406028371e-07
1.430533777e-07
1.317572174e-07
1.277321463e-07
1.358877055e-07
1.443520606e-07
1.442077973e-07
1.427054808e-07
1.445738819e-07
1.482568605e-07
1.519391303e-07
1.553424064e-07
1.529115273e-07
1.499831058e-07
1.509605851e-07
1.540830322e-07
1.527353288e-07
1.513345319e-07
1.566538438e-07
1.667737862e-07
1.720268684e-07
1.769401624e-07
1.840004863e-07
1.884647163e-07
1.953059865e-07
2.01643491e-07
2.042975759e-07
2.094863198e-07
2.227100077e-07
2.256927058e-07
2.431224767e-07
2.58800944e-07
2.733728392e-07
2.88200395e-07
2.99943641e-07
3.131967475e-07
3.373933443e-07
3.538006411e-07
3.75610239e-07
3.941461875e-07
4.121982258e-07
4.244419963e-07
4.493212507e-07
4.961595203e-07
5.205859131e-07
5.472362973e-07
5.903527811e-07
6.386879368e-07
7.023064143e-07
6.681850441e-07
1.464904511e-07
-2.324821845e-06
-3.731987308e-06
-6.327987506e-06
)


100
(
3.17402795e-05
2.15973068e-06
-1.465650615e-06
-5.774957502e-07
4.209311466e-08
3.174538414e-07
4.837286071e-07
5.416412476e-07
5.785352454e-07
6.348424741e-07
5.799248196e-07
6.097083403e-07
6.058525262e-07
5.665544836e-07
5.859915416e-07
5.906652605e-07
5.619363487e-07
5.568870221e-07
6.001432499e-07
6.015206499e-07
5.818683447e-07
5.740392017e-07
5.910545217e-07
5.84041124e-07
5.474730538e-07
5.1356645e-07
5.031262803e-07
4.837761206e-07
4.552798274e-07
4.49551422e-07
4.541677748e-07
4.47779159e-07
3.868345297e-07
3.579121989e-07
3.560591184e-07
3.502522814e-07
3.041783173e-07
2.736907954e-07
2.7822396e-07
2.794389504e-07
2.500355291e-07
2.242070194e-07
2.23600127e-07
2.269331035e-07
2.194342746e-07
2.049853874e-07
2.119365618e-07
2.279304192e-07
2.445768562e-07
2.400753487e-07
2.458662615e-07
2.522172384e-07
2.61322449e-07
2.670773169e-07
2.650390245e-07
2.560540402e-07
2.477092835e-07
2.477185169e-07
2.518614487e-07
2.51348946e-07
2.512717748e-07
2.614815037e-07
2.786270919e-07
2.946184708e-07
3.03849764e-07
3.170692479e-07
3.249792513e-07
3.279842971e-07
3.419644385e-07
3.513953421e-07
3.545330027e-07
3.686487805e-07
3.87403892e-07
4.017340331e-07
4.20621977e-07
4.308558611e-07
4.359568465e-07
4.570503603e-07
4.711290386e-07
4.84798826e-07
5.089640366e-07
5.290865847e-07
5.487627918e-07
5.7698935e-07
6.07416572e-07
6.429684927e-07
6.736222493e-07
7.120089331e-07
7.265704875e-07
7.828486506e-07
8.476713745e-07
9.074992001e-07
1.000750641e-06
1.097705202e-06
1.21341144e-06
1.09548443e-06
-1.623206901e-07
-4.081777891e-06
-6.713078984e-06
-1.181689886e-05
)


100
(
2.290356297e-05
1.514333402e-06
-2.164909941e-06
-9.585250171e-07
-1.993135121e-07
2.125430465e-07
3.940589434e-07
5.994524689e-07
6.207847343e-07
7.284619401e-07
7.668328323e-07
7.484976801e-07
8.215140234e-07
8.14920962e-07
7.92941063e-07
8.414542001e-07
8.578876546e-07
8.287044163e-07
8.252409508e-07
8.624922623e-07
8.638695546e-07
8.218606875e-07
7.8178169e-07
7.890902971e-07
7.884913916e-07
7.264319824e-07
6.66135045e-07
6.23357747e-07
5.838097446e-07
5.432542353e-07
5.349593757e-07
5.652427229e-07
5.284401127e-07
4.566348117e-07
4.243081285e-07
4.364950585e-07
4.164271725e-07
3.656449362e-07
3.40507828e-07
3.553030829e-07
3.608925355e-07
3.376906505e-07
3.219574332e-07
3.370533254e-07
3.576357496e-07
3.638117986e-07
3.656031242e-07
3.780718621e-07
3.928678946e-07
4.104962353e-07
4.163563258e-07
4.105892888e-07
3.990674969e-07
3.908900363e-07
3.980307681e-07
4.137894071e-07
4.094676974e-07
4.071052337e-07
4.169436468e-07
4.362387497e-07
4.56192765e-07
4.706686726e-07
4.929464832e-07
5.063560623e-07
5.118705604e-07
5.288774198e-07
5.487059295e-07
5.506359291e-07
5.587901794e-07
5.896577701e-07
6.199889768e-07
6.444023706e-07
6.6273515e-07
6.555855856e-07
6.622928898e-07
6.892723524e-07
6.958985298e-07
7.139068402e-07
7.467380097e-07
7.723265636e-07
7.920057044e-07
8.252157834e-07
8.655616583e-07
9.133365323e-07
9.638841143e-07
1.03474903e-06
1.100801988e-06
1.162251422e-06
1.235527001e-06
1.331329471e-06
1.456598566e-06
1.593144582e-06
1.739745868e-06
1.950763456e-06
2.166402105e-06
1.772381554e-06
-1.08111396e-06
-6.461859748e-06
-1.016009159e-05
-1.704178852e-05
)


100
(
1.835324629e-05
1.12180034e-06
-2.645360318e-06
-1.219044817e-06
-4.103230918e-07
7.800795084e-08
3.694977694e-07
5.95661683e-07
7.624703025e-07
8.362435808e-07
9.970129508e-07
1.010366437e-06
1.039510437e-06
1.143770443e-06
1.127095679e-06
1.106191977e-06
1.173235576e-06
1.201685428e-06
1.14411617e-06
1.110883538e-06
1.138172413e-06
1.139586499e-06
1.062256953e-06
9.880443558e-07
9.614994347e-07
9.58282025e-07
8.934602626e-07
8.101597232e-07
7.343339211e-07
6.713413126e-07
6.211678752e-07
6.310922018e-07
6.634683509e-07
6.136227881e-07
5.373129551e-07
5.2397453e-07
5.363399634e-07
5.233161199e-07
4.768451669e-07
4.815578401e-07
5.128013439e-07
5.494272895e-07
5.438548498e-07
5.510687033e-07
5.629346322e-07
5.866831863e-07
6.055491969e-07
6.074799253e-07
5.972705796e-07
5.854417053e-07
5.832756052e-07
6.041208409e-07
6.142336906e-07
6.083882561e-07
6.048489031e-07
6.267132112e-07
6.625602539e-07
7.061658532e-07
7.310991001e-07
7.539974939e-07
7.629423823e-07
7.607232394e-07
7.827298188e-07
8.095626858e-07
8.098371481e-07
8.109150211e-07
8.440264951e-07
8.831331267e-07
9.168176101e-07
9.440738354e-07
9.444287454e-07
9.326835939e-07
9.707252431e-07
9.851388074e-07
9.864018589e-07
1.019758182e-06
1.069828902e-06
1.103970648e-06
1.136070503e-06
1.185873907e-06
1.254592927e-06
1.326106105e-06
1.397843882e-06
1.472214316e-06
1.590091259e-06
1.673335182e-06
1.844300311e-06
1.941943181e-06
2.091386319e-06
2.262787073e-06
2.446805142e-06
2.685303578e-06
2.962612253e-06
3.348995359e-06
3.664113069e-06
2.649313685e-06
-3.611554342e-06
-9.67016281e-06
-1.3448195e-05
-2.271177832e-05
)


100
(
1.713059049e-05
2.317461108e-07
-2.867271251e-06
-1.450010568e-06
-6.44432836e-07
-4.718804634e-08
3.818944277e-07
6.113517441e-07
9.211013746e-07
1.040897694e-06
1.188891786e-06
1.387020495e-06
1.374698185e-06
1.437172384e-06
1.561651406e-06
1.516522983e-06
1.472597795e-06
1.538190069e-06
1.554422551e-06
1.4707252e-06
1.382440592e-06
1.387070294e-06
1.397426713e-06
1.286538639e-06
1.184223854e-06
1.117933362e-06
1.110714006e-06
1.067676019e-06
9.6933355e-07
8.806082628e-07
7.825223279e-07
7.262601654e-07
7.708588505e-07
7.995723309e-07
7.553551519e-07
6.895869897e-07
7.111185174e-07
7.451897743e-07
7.63297098e-07
7.514131142e-07
7.780653436e-07
8.218515688e-07
8.763410881e-07
8.91973261e-07
8.800179198e-07
8.568833078e-07
8.41677826e-07
8.618038608e-07
8.925332669e-07
8.841463636e-07
8.724948871e-07
8.744268588e-07
9.06124267e-07
9.609404092e-07
1.012966093e-06
1.041226809e-06
1.077391669e-06
1.09457669e-06
1.112511785e-06
1.157456083e-06
1.186743313e-06
1.168699833e-06
1.148216769e-06
1.175270264e-06
1.230945009e-06
1.267676888e-06
1.289881198e-06
1.29386075e-06
1.275354696e-06
1.326089635e-06
1.359794282e-06
1.344923911e-06
1.370457843e-06
1.442095507e-06
1.507106438e-06
1.552233942e-06
1.613402794e-06
1.700462632e-06
1.805667512e-06
1.908482682e-06
2.012723116e-06
2.138598732e-06
2.277993688e-06
2.389745438e-06
2.584086768e-06
2.745424234e-06
3.022669546e-06
3.273418404e-06
3.517206033e-06
3.831796235e-06
4.13941378e-06
4.506173431e-06
4.933816302e-06
5.530375381e-06
5.78204693e-06
3.303336065e-06
-9.163992296e-06
-1.35935129e-05
-1.752371008e-05
-3.095303254e-05
)


100
(
1.818065645e-05
-6.480801323e-07
-2.996362916e-06
-1.810941496e-06
-8.411965571e-07
-1.468104594e-07
3.515274329e-07
7.177097952e-07
1.020305126e-06
1.350884512e-06
1.456903408e-06
1.683427883e-06
1.864190025e-06
1.841723303e-06
1.913873062e-06
2.050204879e-06
1.964946698e-06
1.871152234e-06
1.89833935e-06
1.912415682e-06
1.782953052e-06
1.656393438e-06
1.616506823e-06
1.618247973e-06
1.521542575e-06
1.399522072e-06
1.299404783e-06
1.28742833e-06
1.281251802e-06
1.190696825e-06
1.102485418e-06
9.750018931e-07
9.528493818e-07
1.022995548e-06
1.079751265e-06
1.06247641e-06
1.058767708e-06
1.093997194e-06
1.163679029e-06
1.211824203e-06
1.223668223e-06
1.213681421e-06
1.203822475e-06
1.227293691e-06
1.278192105e-06
1.28056094e-06
1.24845155e-06
1.223158664e-06
1.243345765e-06
1.305861067e-06
1.378020799e-06
1.413126368e-06
1.452641979e-06
1.492154752e-06
1.521530798e-06
1.582699332e-06
1.656941578e-06
1.66267871e-06
1.626938362e-06
1.599162677e-06
1.627310609e-06
1.70234648e-06
1.743655449e-06
1.757620946e-06
1.765324725e-06
1.759811586e-06
1.809708328e-06
1.84983248e-06
1.799121303e-06
1.785787221e-06
1.899677032e-06
2.01890824e-06
2.093425682e-06
2.20194087e-06
2.304240673e-06
2.414315581e-06
2.542543519e-06
2.69989303e-06
2.863618401e-06
3.022106301e-06
3.183331615e-06
3.40478929e-06
3.659214028e-06
3.876629326e-06
4.101557171e-06
4.452165188e-06
4.837672936e-06
5.253013683e-06
5.699811295e-06
6.264655611e-06
6.836085604e-06
7.370540826e-06
8.069196168e-06
8.92793273e-06
8.838119251e-06
2.680894804e-06
-1.775101758e-05
-1.869400459e-05
-2.094393821e-05
-4.310166752e-05
)


100
(
1.578337717e-05
-1.195892525e-06
-3.409723183e-06
-2.192974268e-06
-9.92557756e-07
-2.513068639e-07
3.088492127e-07
8.648482423e-07
1.171893098e-06
1.593099822e-06
1.893559402e-06
2.005968658e-06
2.290579833e-06
2.42720299e-06
2.373122549e-06
2.431947385e-06
2.558377686e-06
2.417238201e-06
2.260239647e-06
2.235343402e-06
2.268118857e-06
2.097530837e-06
1.943138329e-06
1.858720202e-06
1.860597487e-06
1.807316678e-06
1.676327976e-06
1.578055228e-06
1.543347435e-06
1.567886751e-06
1.554814151e-06
1.492272632e-06
1.370539777e-06
1.402547057e-06
1.515635714e-06
1.640482878e-06
1.675717088e-06
1.696575764e-06
1.679135917e-06
1.694448195e-06
1.758808254e-06
1.781229493e-06
1.747107972e-06
1.712562246e-06
1.707164053e-06
1.778810424e-06
1.866373663e-06
1.893908787e-06
1.903407085e-06
1.967984538e-06
2.038061412e-06
2.139172404e-06
2.253494243e-06
2.303226476e-06
2.268249192e-06
2.202048413e-06
2.167965106e-06
2.264401443e-06
2.326218823e-06
2.317952814e-06
2.33155547e-06
2.350203227e-06
2.400205673e-06
2.503603304e-06
2.556497069e-06
2.475201308e-06
2.413318735e-06
2.514213071e-06
2.677966049e-06
2.728137657e-06
2.861018617e-06
3.011538977e-06
3.156315725e-06
3.320340244e-06
3.516002405e-06
3.745652591e-06
3.963906473e-06
4.201259892e-06
4.44005166e-06
4.688535004e-06
4.999431139e-06
5.357053833e-06
5.70135768e-06
6.110621015e-06
6.585428076e-06
7.09797479e-06
7.46349589e-06
8.223773556e-06
9.001745468e-06
9.912655143e-06
1.092228449e-05
1.190776726e-05
1.313225019e-05
1.438929367e-05
1.302344085e-05
-1.851902214e-06
-2.734370779e-05
-2.510569394e-05
-3.214895761e-05
-6.585937713e-05
)


100
(
1.227318859e-05
-1.395519011e-06
-3.856915452e-06
-2.308691748e-06
-1.170763342e-06
-3.779980031e-07
3.001556684e-07
9.068989305e-07
1.455948095e-06
1.815944236e-06
2.32464465e-06
2.535682335e-06
2.669177476e-06
2.952869525e-06
3.023777416e-06
2.898386142e-06
2.913749066e-06
3.020922559e-06
2.839593895e-06
2.637298991e-06
2.561632168e-06
2.586743272e-06
2.439762232e-06
2.271855856e-06
2.144054833e-06
2.165437082e-06
2.187998475e-06
2.086878928e-06
2.017796116e-06
1.996789805e-06
2.064094719e-06
2.163630744e-06
2.169432039e-06
2.134686257e-06
2.206388487e-06
2.27824554e-06
2.385472377e-06
2.482073042e-06
2.446183191e-06
2.387642297e-06
2.340659507e-06
2.394750756e-06
2.506154765e-06
2.510121133e-06
2.496372682e-06
2.52163697e-06
2.608684609e-06
2.756461446e-06
2.92727006e-06
3.018301817e-06
3.06872718e-06
3.028733498e-06
2.97307082e-06
3.04333105e-06
3.168165226e-06
3.095479797e-06
3.000560157e-06
2.976704264e-06
3.056204126e-06
3.208286556e-06
3.369518849e-06
3.408616249e-06
3.305044164e-06
3.223221419e-06
3.386864106e-06
3.561473412e-06
3.57787599e-06
3.686666414e-06
3.896700337e-06
4.121528662e-06
4.29843972e-06
4.45690803e-06
4.654607288e-06
4.944434602e-06
5.271987355e-06
5.614243663e-06
5.932293911e-06
6.273670873e-06
6.70687286e-06
7.207516884e-06
7.674503846e-06
8.230199307e-06
8.769764485e-06
9.425798746e-06
1.010458034e-05
1.083044832e-05
1.159027247e-05
1.256230232e-05
1.376189003e-05
1.509009105e-05
1.668977532e-05
1.824708886e-05
2.039394464e-05
2.205168798e-05
1.8560241e-05
-1.132182279e-05
-3.851813257e-05
-3.243571077e-05
-3.205816376e-05
-7.960492859e-05
)


100
(
1.001622604e-05
-1.520397112e-06
-3.891611095e-06
-2.382178093e-06
-1.409894978e-06
-4.955285509e-07
3.089959621e-07
9.394510195e-07
1.701383338e-06
2.163299043e-06
2.595518167e-06
3.13467909e-06
3.216493443e-06
3.324613012e-06
3.578011431e-06
3.56646715e-06
3.369474278e-06
3.32493625e-06
3.424402498e-06
3.242042478e-06
3.015699787e-06
2.888494897e-06
2.926392884e-06
2.846706785e-06
2.688681333e-06
2.590008577e-06
2.607515296e-06
2.707108914e-06
2.762778821e-06
2.746647339e-06
2.789116928e-06
2.855190918e-06
3.027296085e-06
3.193867561e-06
3.191131519e-06
3.179944459e-06
3.142907844e-06
3.193279422e-06
3.343489985e-06
3.396261006e-06
3.321576684e-06
3.273087159e-06
3.31303738e-06
3.472994933e-06
3.6537907e-06
3.738358503e-06
3.825360636e-06
3.924901084e-06
3.94423935e-06
4.041483163e-06
4.173105572e-06
4.154388155e-06
3.998304214e-06
3.850155031e-06
3.857780108e-06
4.012312496e-06
4.180306024e-06
4.195495389e-06
4.28287538e-06
4.263305774e-06
4.308483363e-06
4.520992865e-06
4.621141878e-06
4.517182495e-06
4.531195401e-06
4.820239755e-06
5.177386937e-06
5.476688436e-06
5.717596759e-06
5.957286493e-06
6.232264243e-06
6.541184494e-06
6.887618666e-06
7.292831567e-06
7.712475066e-06
8.161583373e-06
8.693372909e-06
9.297567549e-06
1.000018737e-05
1.075099218e-05
1.134827748e-05
1.204003593e-05
1.312316096e-05
1.41919852e-05
1.516660325e-05
1.605137155e-05
1.739174356e-05
1.892257092e-05
2.072734746e-05
2.251199569e-05
2.457577056e-05
2.640606121e-05
2.987593621e-05
3.217651261e-05
2.59320218e-05
-2.458075844e-05
-5.108428219e-05
-4.376046117e-05
-6.3523287e-05
-0.0001850081971
)


100
(
9.6869039e-06
-1.713464191e-06
-3.812028947e-06
-2.576042655e-06
-1.599523944e-06
-5.980073117e-07
2.569765413e-07
1.046727094e-06
1.777516396e-06
2.57109626e-06
2.92598341e-06
3.401151755e-06
3.847275196e-06
3.836322134e-06
3.889262765e-06
4.10946949e-06
4.036828307e-06
3.78993717e-06
3.695624898e-06
3.796356051e-06
3.661090318e-06
3.434345138e-06
3.267114663e-06
3.349753176e-06
3.423896937e-06
3.302627374e-06
3.278113675e-06
3.317605112e-06
3.535474934e-06
3.786826924e-06
3.873671445e-06
3.943963735e-06
3.970456804e-06
4.068474966e-06
4.262206669e-06
4.41211321e-06
4.335625878e-06
4.260132271e-06
4.215830509e-06
4.398571465e-06
4.621653131e-06
4.675431559e-06
4.6623088e-06
4.770103568e-06
4.906144185e-06
5.11844554e-06
5.351668952e-06
5.415836776e-06
5.339429503e-06
5.161632028e-06
4.998250288e-06
5.122417756e-06
5.236846464e-06
5.109256879e-06
5.037247939e-06
5.183974879e-06
5.337430681e-06
5.621357995e-06
5.868248593e-06
5.812448909e-06
5.658141058e-06
5.618705056e-06
6.027588889e-06
6.414823991e-06
6.5523307e-06
6.897361151e-06
7.268120315e-06
7.633643782e-06
7.998314476e-06
8.380428747e-06
8.854136222e-06
9.40889218e-06
1.002942619e-05
1.055447468e-05
1.110091537e-05
1.171453551e-05
1.24836766e-05
1.342601069e-05
1.427910563e-05
1.522926223e-05
1.655697758e-05
1.773539527e-05
1.926672827e-05
2.02068914e-05
2.152035698e-05
2.365014986e-05
2.560208665e-05
2.754364809e-05
2.974027797e-05
3.258667226e-05
3.589616058e-05
3.984314656e-05
4.284155957e-05
4.622138628e-05
3.799493133e-05
-3.870177936e-05
-6.521585924e-05
-5.794811058e-05
-0.0001062519724
-0.0002925165926
)


100
(
1.006696238e-05
-1.914009583e-06
-3.79062217e-06
-2.829753671e-06
-1.680072381e-06
-7.214717361e-07
1.756181302e-07
1.155814448e-06
1.879592538e-06
2.723338272e-06
3.403685445e-06
3.65776349e-06
4.136252571e-06
4.460183036e-06
4.349343214e-06
4.346214898e-06
4.547191873e-06
4.457368586e-06
4.20404364e-06
4.067018614e-06
4.195138653e-06
4.17147991e-06
3.980219271e-06
3.892558461e-06
3.98504825e-06
4.202788099e-06
4.298655631e-06
4.379046938e-06
4.534864214e-06
4.74118567e-06
5.073292463e-06
5.376397249e-06
5.375439629e-06
5.337766241e-06
5.277930042e-06
5.496978103e-06
5.811521233e-06
5.842648799e-06
5.768118778e-06
5.764853222e-06
5.882697829e-06
6.198233424e-06
6.552177496e-06
6.678929506e-06
6.787119634e-06
6.739022858e-06
6.559617833e-06
6.646859413e-06
6.859081375e-06
6.658986118e-06
6.404024949e-06
6.236813868e-06
6.314666361e-06
6.603055458e-06
6.917948935e-06
7.059568771e-06
7.136079159e-06
7.040391677e-06
7.194892471e-06
7.636757047e-06
7.721609863e-06
7.670539786e-06
7.947825534e-06
8.495282517e-06
9.078554901e-06
9.642516302e-06
1.009994992e-05
1.052998571e-05
1.107975231e-05
1.173074222e-05
1.242949811e-05
1.313963425e-05
1.386360476e-05
1.461136337e-05
1.547455958e-05
1.652318482e-05
1.789440452e-05
1.915250791e-05
2.04020204e-05
2.153278766e-05
2.314993619e-05
2.479809845e-05
2.678034973e-05
2.892436365e-05
3.075869271e-05
3.335136124e-05
3.60650478e-05
3.905654933e-05
4.25083697e-05
4.565056617e-05
5.033798494e-05
5.612550207e-05
6.076760716e-05
6.323911444e-05
4.607504154e-05
-5.536853113e-05
-8.193671625e-05
-6.923090617e-05
-0.0001427165829
-0.0004104842157
)


100
(
8.721932654e-06
-2.000607208e-06
-3.974880533e-06
-2.897863116e-06
-1.753153755e-06
-8.577147665e-07
1.285648287e-07
1.11883928e-06
2.100214436e-06
2.807042461e-06
3.676101329e-06
4.171100185e-06
4.320223551e-06
4.7509162e-06
4.968914038e-06
4.793595332e-06
4.736328149e-06
4.952810802e-06
4.91666879e-06
4.687452701e-06
4.523191842e-06
4.72652983e-06
4.939111819e-06
4.822835574e-06
4.872630044e-06
5.017514013e-06
5.426294751e-06
5.886487614e-06
6.022750495e-06
6.206056992e-06
6.273063512e-06
6.591676149e-06
6.998822944e-06
7.137534555e-06
7.03434682e-06
6.960059876e-06
7.05609574e-06
7.499587804e-06
7.884794706e-06
7.918931021e-06
7.966546252e-06
8.160091675e-06
8.263897912e-06
8.597356411e-06
8.858932426e-06
8.820863493e-06
8.461728807e-06
8.065695245e-06
7.862577849e-06
8.137457025e-06
8.324165515e-06
8.20609973e-06
8.34668512e-06
8.535094957e-06
8.772887873e-06
9.111644774e-06
9.552799704e-06
9.402147564e-06
9.238464115e-06
9.421910459e-06
1.006631281e-05
1.073910154e-05
1.105537775e-05
1.166112671e-05
1.222274775e-05
1.282097088e-05
1.347867301e-05
1.417496428e-05
1.499390755e-05
1.592752267e-05
1.703451899e-05
1.826320199e-05
1.925382498e-05
2.036410576e-05
2.167665727e-05
2.308155375e-05
2.442408343e-05
2.580916776e-05
2.78435236e-05
3.042603665e-05
3.268034116e-05
3.466989766e-05
3.623996242e-05
3.931323223e-05
4.309466931e-05
4.72199323e-05
5.087792214e-05
5.455707071e-05
5.917644786e-05
6.370422252e-05
6.922604602e-05
7.577923442e-05
8.317611706e-05
8.637004852e-05
5.938561848e-05
-9.050720188e-05
-0.0001019204463
-7.672876093e-05
-0.0002016023345
-0.0006281697888
)


100
(
7.150218298e-06
-1.96543778e-06
-4.034520513e-06
-2.840436082e-06
-1.911190936e-06
-9.545615004e-07
9.463488381e-08
1.070345405e-06
2.211715237e-06
3.045825182e-06
3.740023888e-06
4.555271731e-06
4.802745529e-06
4.873400205e-06
5.258234744e-06
5.420222649e-06
5.22665556e-06
5.146853666e-06
5.40681479e-06