/*--------------------------------*- C++ -*----------------------------------*\
| =========                 |                                                 |
| \\      /  F ield         | OpenFOAM: The Open Source CFD Toolbox           |
|  \\    /   O peration     | Version:  2.3.1                                 |
|   \\  /    A nd           | Web:      www.OpenFOAM.org                      |
|    \\/     M anipulation  |                                                 |
\*---------------------------------------------------------------------------*/
FoamFile
{
    version     2.0;
    format      ascii;
    class       dictionary;
    location    "constant";
    object      PM32;
}
// * * * * * * * * * * * * * * * * * * * * * * * * * * * * * * * * * * * * * //

PM32_table
100
(

100
(
-3.550249849e-06
1.253142713e-05
4.090481426e-06
1.48951672e-06
7.756171111e-07
4.574669871e-07
1.851797479e-07
1.282761146e-07
7.555742086e-08
5.191199896e-08
4.73153364e-08
3.623947537e-08
4.014760914e-08
4.579692773e-08
3.589562801e-08
3.952886187e-08
4.750782801e-08
3.059532212e-08
3.164255243e-08
3.831801086e-08
2.749800595e-08
2.250735003e-08
2.454075955e-08
2.513136278e-08
1.576079131e-08
1.587911517e-08
1.770521994e-08
1.612575334e-08
9.590202391e-09
9.611223629e-09
1.073041494e-08
9.031500549e-09
6.045962283e-09
6.098673193e-09
6.52672233e-09
6.14431439e-09
3.715354087e-09
2.874491566e-09
3.102729763e-09
2.98039464e-09
1.919091249e-09
1.36748814e-09
1.481883693e-09
1.423010842e-09
9.830038089e-10
6.927289155e-10
7.487847551e-10
8.301351131e-10
4.978947541e-10
2.675924537e-10
2.209834508e-10
2.543946998e-10
1.505731239e-10
7.086476052e-11
5.487729809e-11
6.609817803e-11
4.200272694e-11
2.457594133e-11
3.681519016e-11
6.279667961e-11
4.370321381e-11
-7.168166968e-11
-6.251230997e-11
-3.87965739e-11
-6.964729644e-11
-1.395421694e-10
-1.121802856e-10
-1.086938945e-10
-1.592338509e-10
-1.635389623e-10
-1.406362457e-10
-1.582590221e-10
-1.866109382e-10
-1.610367371e-10
-2.09504382e-10
-2.537236022e-10
-1.86954689e-10
-2.065873012e-10
-2.310729273e-10
-1.629799347e-10
-2.017103229e-10
-1.78494381e-10
-1.588099431e-10
-2.066236565e-10
-1.43332587e-10
-1.694174412e-10
-1.813429134e-10
-1.445702892e-10
-1.934393914e-10
-1.554579095e-10
-1.825458089e-10
-1.7912823e-10
-2.285152539e-10
-2.328542368e-10
-2.904608618e-10
-2.810251751e-10
-3.06159939e-10
-2.774995951e-10
-1.427859451e-11
2.271079423e-11
)


100
(
1.341862103e-06
6.583500175e-06
2.262935959e-06
8.827296887e-07
6.652757211e-07
3.899960874e-07
2.758216729e-07
2.11569106e-07
1.773095268e-07
1.311681248e-07
1.395643321e-07
9.5907312e-08
9.105475029e-08
8.941044734e-08
6.405926912e-08
5.841243401e-08
6.008193705e-08
4.440389256e-08
3.472699162e-08
3.682166649e-08
3.012773516e-08
2.316711594e-08
2.049204157e-08
1.987831887e-08
1.570417778e-08
1.266136866e-08
1.212653113e-08
1.10794651e-08
8.586240843e-09
6.769764924e-09
6.071607288e-09
5.40338633e-09
4.463523717e-09
3.758755172e-09
3.407369632e-09
3.284190291e-09
2.478107661e-09
1.928931732e-09
1.488540022e-09
1.261066049e-09
9.739779611e-10
7.767481604e-10
6.217226258e-10
4.300712192e-10
3.539175947e-10
3.015605501e-10
2.639163526e-10
2.247075287e-10
8.658201952e-11
2.471457814e-11
-2.314922512e-11
-8.34254515e-11
-2.084557484e-10
-2.237181902e-10
-2.271324243e-10
-2.49174848e-10
-3.4590573e-10
-3.17702266e-10
-2.926628936e-10
-3.072304587e-10
-4.552238812e-10
-5.185358449e-10
-5.919666233e-10
-5.743471794e-10
-5.216962377e-10
-5.286501032e-10
-5.69599859e-10
-5.729450283e-10
-5.295490914e-10
-5.42475153e-10
-5.385897773e-10
-5.144823983e-10
-4.977506839e-10
-4.78174172e-10
-4.852858005e-10
-6.328338178e-10
-8.056974305e-10
-7.390641355e-10
-7.346623258e-10
-7.457146356e-10
-7.056368507e-10
-8.364300942e-10
-7.392321249e-10
-9.518839205e-10
-9.462938117e-10
-8.883236197e-10
-1.031602188e-09
-1.01591694e-09
-1.080386412e-09
-1.259337762e-09
-1.407274041e-09
-1.535045301e-09
-1.753290968e-09
-2.221299539e-09
-2.318997462e-09
-2.592643404e-09
-2.914323983e-09
-2.210353731e-09
-6.506467238e-10
-3.782086916e-09
)


100
(
5.551750596e-06
2.805188171e-06
7.897316087e-07
5.349248455e-07
4.961723397e-07
2.969308793e-07
3.494106292e-07
2.171427868e-07
2.358706468e-07
1.66316897e-07
1.509474245e-07
1.268162071e-07
8.449408005e-08
8.428293331e-08
6.939189397e-08
4.710174648e-08
4.252721144e-08
3.932137023e-08
2.772953725e-08
1.947187688e-08
1.985929411e-08
1.608139177e-08
1.138885846e-08
8.463953715e-09
8.991153584e-09
6.533945292e-09
4.647846081e-09
3.563815769e-09
4.131200532e-09
2.727401678e-09
1.615341171e-09
7.380777741e-10
1.003022333e-09
5.360670241e-10
1.632519836e-10
-1.497505784e-10
-8.409546107e-11
-1.215247821e-10
-5.173018558e-10
-8.508047875e-10
-1.129581915e-09
-1.233963101e-09
-1.377887991e-09
-1.546903944e-09
-1.710896709e-09
-2.001567072e-09
-2.039717702e-09
-2.072032672e-09
-2.104794426e-09
-2.475850833e-09
-2.368160694e-09
-2.410232672e-09
-2.481441635e-09
-2.826564986e-09
-2.780172331e-09
-2.66192781e-09
-2.656102205e-09
-2.972134785e-09
-2.835163351e-09
-2.490807393e-09
-2.348051974e-09
-2.565177227e-09
-2.809423569e-09
-2.907968901e-09
-2.685610443e-09
-2.428181775e-09
-2.375634741e-09
-2.341537652e-09
-2.286387006e-09
-2.388846755e-09
-2.567034825e-09
-2.756410589e-09
-2.988216038e-09
-3.354919612e-09
-3.173202074e-09
-3.187467397e-09
-4.319384216e-09
-4.291723943e-09
-3.919469806e-09
-5.07087533e-09
-4.814836977e-09
-4.831820018e-09
-5.379513998e-09
-5.123907462e-09
-5.641019066e-09
-5.952014215e-09
-6.610208884e-09
-7.585210924e-09
-7.946821561e-09
-9.098866246e-09
-1.052128159e-08
-1.171351621e-08
-1.290266234e-08
-1.448596327e-08
-1.711178031e-08
-1.951643755e-08
-2.367705958e-08
-2.030731376e-08
-3.701693876e-08
-5.150863625e-08
)


100
(
4.803802003e-06
2.13800036e-06
4.437792795e-07
3.595431072e-07
2.735661499e-07
2.446862772e-07
2.225206278e-07
1.825363705e-07
1.469171637e-07
1.346583777e-07
8.741620989e-08
8.443924242e-08
6.258709069e-08
4.379223425e-08
4.236747461e-08
3.283714928e-08
2.198471463e-08
1.972785345e-08
1.916795822e-08
1.316152322e-08
8.615892439e-09
8.828547809e-09
7.728679601e-09
4.815706697e-09
2.45840999e-09
2.971849686e-09
2.130464707e-09
6.29550346e-10
-6.886232825e-10
-4.418557734e-10
-5.966729036e-10
-1.79713892e-09
-2.846094162e-09
-3.57146061e-09
-3.21749152e-09
-3.742707261e-09
-4.320431333e-09
-5.523284154e-09
-4.965191907e-09
-5.075741375e-09
-5.741660825e-09
-6.579366043e-09
-7.388832738e-09
-6.838136781e-09
-6.975316655e-09
-7.637954426e-09
-9.166721428e-09
-8.575933732e-09
-8.119698675e-09
-8.525973792e-09
-9.665979024e-09
-9.190688581e-09
-8.393561361e-09
-8.582844734e-09
-9.176886833e-09
-8.867870411e-09
-7.937960259e-09
-8.202839968e-09
-8.690213959e-09
-8.402437214e-09
-7.395926219e-09
-6.878121982e-09
-6.986067381e-09
-7.548145355e-09
-8.089881927e-09
-8.402899042e-09
-8.671544139e-09
-8.993460153e-09
-9.178338188e-09
-9.408964883e-09
-9.685529263e-09
-9.978819094e-09
-1.058463839e-08
-1.268794092e-08
-1.513386008e-08
-1.346405985e-08
-1.30884599e-08
-1.664333682e-08
-1.554787533e-08
-1.544360733e-08
-1.782466502e-08
-1.735423017e-08
-2.020916896e-08
-2.257359478e-08
-2.41297733e-08
-2.575826201e-08
-2.687327677e-08
-3.08268307e-08
-3.472432987e-08
-4.071282393e-08
-4.264754909e-08
-4.697388474e-08
-5.364640034e-08
-5.876580628e-08
-6.770671854e-08
-7.972949742e-08
-9.972269283e-08
-1.24803835e-07
-3.596371677e-07
-6.092922294e-07
)


100
(
3.954739672e-06
1.808075883e-06
2.221547242e-07
1.626945638e-07
1.537142086e-07
2.044646594e-07
1.397672798e-07
1.555430186e-07
1.038705973e-07
9.948860979e-08
7.882667421e-08
5.78869945e-08
5.711473589e-08
3.952470749e-08
2.993078151e-08
3.027481361e-08
2.384474095e-08
1.6403521e-08
1.530852179e-08
1.682442278e-08
1.127030359e-08
6.849385692e-09
6.373581057e-09
6.857485219e-09
3.24498319e-09
6.588233409e-11
-8.946981446e-10
-4.253232105e-10
-2.70286509e-09
-4.864658589e-09
-6.639069828e-09
-5.318928565e-09
-6.783731638e-09
-8.732157066e-09
-1.218812498e-08
-1.095062232e-08
-1.055629202e-08
-1.148460854e-08
-1.623309973e-08
-1.535209417e-08
-1.421649308e-08
-1.388428154e-08
-1.700939461e-08
-1.822811597e-08
-1.681860674e-08
-1.475975957e-08
-1.71962898e-08
-1.970221126e-08
-1.820865415e-08
-1.604886522e-08
-1.718995907e-08
-1.860530436e-08
-1.795860798e-08
-1.66077959e-08
-1.692421254e-08
-1.768178628e-08
-1.736235433e-08
-1.679611653e-08
-1.778219939e-08
-1.952032397e-08
-2.073224016e-08
-2.093824856e-08
-2.102191603e-08
-2.146152609e-08
-2.219873711e-08
-2.307997746e-08
-2.380145098e-08
-2.447483114e-08
-2.488009409e-08
-2.503219727e-08
-2.556421863e-08
-2.661138519e-08
-2.710818438e-08
-2.761132252e-08
-3.272139155e-08
-3.952331245e-08
-3.469619234e-08
-3.649841167e-08
-4.20951715e-08
-4.321290218e-08
-4.876780248e-08
-5.289791375e-08
-5.403864577e-08
-6.045566445e-08
-6.769846716e-08
-7.599775115e-08
-8.042590355e-08
-8.466712767e-08
-9.722919027e-08
-1.068036961e-07
-1.177609082e-07
-1.29937504e-07
-1.394386636e-07
-1.596142266e-07
-1.760319612e-07
-2.133272042e-07
-2.690406728e-07
-6.239347172e-07
-1.173351189e-06
-1.861658618e-06
)


100
(
4.024102188e-06
1.036686893e-06
9.296708228e-09
4.571155594e-08
1.100877268e-07
1.323848112e-07
1.187139998e-07
1.14669047e-07
1.056636424e-07
8.006044055e-08
8.605426721e-08
6.201254759e-08
5.306661613e-08
5.240442291e-08
3.772795395e-08
3.161056238e-08
3.420865805e-08
2.845630273e-08
2.081190774e-08
1.936887419e-08
2.247968007e-08
1.64732756e-08
1.013671998e-08
7.012830632e-09
9.248121963e-09
4.114523342e-09
-1.650605486e-09
-3.232739057e-09
-7.380378668e-10
-2.859949797e-09
-8.132219455e-09
-1.386236105e-08
-1.169335992e-08
-9.907234946e-09
-1.539227213e-08
-2.262037063e-08
-2.045999229e-08
-1.583558469e-08
-1.995342439e-08
-2.7316107e-08
-2.582210333e-08
-2.292452513e-08
-2.209810997e-08
-2.688645947e-08
-2.820667883e-08
-2.472859761e-08
-2.245135481e-08
-2.621445786e-08
-2.973029869e-08
-2.72797021e-08
-2.556886574e-08
-2.738640746e-08
-2.982532709e-08
-3.068901628e-08
-3.072171296e-08
-3.262387705e-08
-3.492999876e-08
-3.598653811e-08
-3.661326296e-08
-3.761733582e-08
-3.963226793e-08
-4.166441917e-08
-4.325752995e-08
-4.45794551e-08
-4.514291582e-08
-4.558049177e-08
-4.654754488e-08
-4.907073366e-08
-5.298291658e-08
-5.605055111e-08
-5.833045218e-08
-6.035670295e-08
-6.27398772e-08
-6.318886057e-08
-6.095821664e-08
-6.89365594e-08
-8.055783243e-08
-8.266347687e-08
-8.896063541e-08
-9.507497434e-08
-1.028591128e-07
-1.124257461e-07
-1.222257486e-07
-1.319249024e-07
-1.409388974e-07
-1.514476729e-07
-1.684752279e-07
-1.749638057e-07
-1.979548745e-07
-2.171370893e-07
-2.244330714e-07
-2.421681204e-07
-2.644419035e-07
-2.91273526e-07
-3.225506923e-07
-4.184549349e-07
-5.896756756e-07
-1.884157183e-06
-2.766502279e-06
-4.572284076e-06
)


100
(
4.307778473e-06
5.227584958e-07
-1.197735824e-07
-2.593269478e-08
6.565230867e-08
8.090307687e-08
1.155413922e-07
9.191529812e-08
1.11336264e-07
9.127603848e-08
8.606517625e-08
8.755517664e-08
6.609467619e-08
6.464017897e-08
6.392854302e-08
4.944320172e-08
4.441288786e-08
5.021388299e-08
4.492430957e-08
3.476513356e-08
3.04395999e-08
3.497803254e-08
2.852177556e-08
1.761674686e-08
7.521486581e-09
1.077034209e-08
7.997376663e-09
-9.01130733e-10
-2.19625009e-09
9.948551986e-10
3.616127383e-09
-1.288769453e-08
-1.987021631e-08
-1.659186484e-08
-8.797481576e-09
-2.233241095e-08
-3.114168117e-08
-2.745040167e-08
-1.68576931e-08
-2.643164693e-08
-3.58030605e-08
-3.391269591e-08
-2.73241771e-08
-2.914793282e-08
-3.561463588e-08
-3.717981054e-08
-3.287693535e-08
-3.139183105e-08
-3.782173516e-08
-4.306945315e-08
-4.378597051e-08
-4.365526292e-08
-4.69718814e-08
-5.072288949e-08
-5.402663304e-08
-5.698473025e-08
-5.840767403e-08
-5.971970624e-08
-6.130282346e-08
-6.245752079e-08
-6.364531621e-08
-6.38005997e-08
-6.535984054e-08
-6.84967484e-08
-7.416403751e-08
-8.029473884e-08
-8.547406081e-08
-8.916553339e-08
-9.451975205e-08
-1.011169233e-07
-1.079872215e-07
-1.122443303e-07
-1.1587899e-07
-1.223969621e-07
-1.316201814e-07
-1.329478332e-07
-1.441195054e-07
-1.540691172e-07
-1.653493676e-07
-1.72229753e-07
-1.847416006e-07
-1.95586395e-07
-2.077645157e-07
-2.212109646e-07
-2.376846902e-07
-2.545753328e-07
-2.695387842e-07
-2.80380601e-07
-2.942932843e-07
-3.334825598e-07
-3.588221179e-07
-3.77987384e-07
-4.110262814e-07
-4.494189381e-07
-5.131681267e-07
-7.107610288e-07
-1.155249963e-06
-4.147217205e-06
-6.022417427e-06
-9.422360118e-06
)


100
(
3.355992341e-06
2.5343804e-07
-2.18308501e-07
-1.017446993e-07
7.677304084e-09
5.819873731e-08
9.332296506e-08
1.017728655e-07
1.075233029e-07
1.228614e-07
9.867101849e-08
1.07894341e-07
1.045110932e-07
8.432940636e-08
9.008922749e-08
8.961828363e-08
7.26176413e-08
6.576480069e-08
7.599896388e-08
6.966206456e-08
5.275917669e-08
3.957255015e-08
4.546850175e-08
4.261271877e-08
2.731684718e-08
1.119021089e-08
1.122476324e-08
6.945289724e-09
-5.133404628e-09
-5.006166827e-09
2.667246223e-09
7.116306286e-09
-2.039622724e-08
-2.757366007e-08
-1.848226607e-08
-1.203234442e-08
-3.059427156e-08
-4.06110438e-08
-2.97990742e-08
-2.266380585e-08
-3.442915731e-08
-4.644898724e-08
-4.202106382e-08
-3.820918901e-08
-4.185402064e-08
-5.146647954e-08
-5.446625462e-08
-5.305472934e-08
-5.245980117e-08
-6.122974875e-08
-6.639748554e-08
-7.261484182e-08
-7.515036317e-08
-7.539605633e-08
-7.73862588e-08
-8.180300431e-08
-8.648317156e-08
-8.967259676e-08
-9.043558786e-08
-9.243854431e-08
-9.618464736e-08
-1.030966297e-07
-1.109609401e-07
-1.171377205e-07
-1.234960958e-07
-1.319985649e-07
-1.430151731e-07
-1.518117282e-07
-1.573972006e-07
-1.624002563e-07
-1.707687845e-07
-1.856039974e-07
-1.994808795e-07
-2.092656263e-07
-2.206276405e-07
-2.339987264e-07
-2.419378436e-07
-2.500196661e-07
-2.658524012e-07
-2.778582289e-07
-2.890656645e-07
-3.050291788e-07
-3.150150105e-07
-3.381370164e-07
-3.566227161e-07
-3.801698757e-07
-4.044990104e-07
-4.372393703e-07
-4.484799423e-07
-4.846317082e-07
-5.350580538e-07
-5.798909531e-07
-6.546069157e-07
-7.257231272e-07
-8.224382947e-07
-1.234947218e-06
-2.398769649e-06
-6.981490755e-06
-1.045226516e-05
-1.789023765e-05
)


100
(
2.37676345e-06
1.854035309e-07
-3.379150948e-07
-1.695908326e-07
-3.477692342e-08
4.151439668e-08
7.281882322e-08
1.212382887e-07
1.121491316e-07
1.387768647e-07
1.42752604e-07
1.248156843e-07
1.463130423e-07
1.3612771e-07
1.144439174e-07
1.276526999e-07
1.265604452e-07
1.020041879e-07
8.676791608e-08
9.7001616e-08
9.291215466e-08
6.979340702e-08
4.389856932e-08
5.163773004e-08
5.875725955e-08
3.752327739e-08
1.586240751e-08
5.222485889e-09
-2.537435362e-09
-1.656079025e-08
-1.483868351e-08
9.535694898e-09
-2.237100834e-09
-3.411751681e-08
-4.098659712e-08
-2.032135131e-08
-2.345904226e-08
-4.553705008e-08
-5.516439462e-08
-4.209534658e-08
-3.799653936e-08
-5.293220687e-08
-6.785723706e-08
-6.820475683e-08
-6.614274607e-08
-7.128625381e-08
-8.069822839e-08
-8.785755417e-08
-9.38351851e-08
-9.27273044e-08
-9.418981313e-08
-9.986697606e-08
-1.083861185e-07
-1.156959994e-07
-1.185305205e-07
-1.163906193e-07
-1.225542999e-07
-1.321022211e-07
-1.447651209e-07
-1.579248035e-07
-1.674733192e-07
-1.761478339e-07
-1.868501398e-07
-2.015409833e-07
-2.138988452e-07
-2.203135231e-07
-2.23767076e-07
-2.343011162e-07
-2.506308013e-07
-2.710675046e-07
-2.857644009e-07
-2.985509953e-07
-3.171550515e-07
-3.331050429e-07
-3.432406937e-07
-3.54670659e-07
-3.743173332e-07
-3.915053542e-07
-4.069626124e-07
-4.283950692e-07
-4.393469532e-07
-4.684501162e-07
-4.922375797e-07
-5.192921242e-07
-5.540534244e-07
-5.973028993e-07
-6.443478118e-07
-6.914313e-07
-7.448858124e-07
-8.112344571e-07
-8.92939892e-07
-9.958194351e-07
-1.076947301e-06
-1.253874599e-06
-1.500378937e-06
-2.162641737e-06
-4.916109149e-06
-1.074068632e-05
-1.517021298e-05
-2.435693591e-05
)


100
(
1.886160903e-06
1.402527962e-07
-4.152540893e-07
-2.072146304e-07
-7.371570645e-08
1.509031789e-08
6.956328036e-08
1.161335256e-07
1.475940862e-07
1.511707138e-07
1.92308271e-07
1.797002441e-07
1.728598237e-07
2.011464847e-07
1.798781244e-07
1.476767694e-07
1.630776227e-07
1.610709428e-07
1.271814013e-07
9.937836052e-08
1.12666993e-07
1.170309699e-07
8.505271613e-08
5.09474456e-08
4.649743823e-08
5.88632024e-08
4.205767821e-08
1.562923241e-08
-7.294088546e-09
-2.107916937e-08
-3.649023224e-08
-2.576066588e-08
1.116925819e-09
-2.033423022e-08
-5.699918339e-08
-5.481792731e-08
-4.077504298e-08
-4.646532131e-08
-7.457245415e-08
-8.158889693e-08
-7.650447022e-08
-7.229723605e-08
-9.0889257e-08
-1.028644781e-07
-1.173255521e-07
-1.201136574e-07
-1.191500321e-07
-1.250697965e-07
-1.357948531e-07
-1.476701922e-07
-1.583519881e-07
-1.524656327e-07
-1.545614814e-07
-1.66342539e-07
-1.809394957e-07
-1.96284638e-07
-2.155997815e-07
-2.244234705e-07
-2.402161801e-07
-2.590391729e-07
-2.853219532e-07
-3.054259139e-07
-3.11398465e-07
-3.153092013e-07
-3.290710339e-07
-3.476317151e-07
-3.70025006e-07
-3.887006197e-07
-4.014651109e-07
-4.204981588e-07
-4.470773604e-07
-4.634665093e-07
-4.704739105e-07
-4.876455846e-07
-5.205020042e-07
-5.491296238e-07
-5.765997237e-07
-6.095743504e-07
-6.305465157e-07
-6.686672118e-07
-7.147146445e-07
-7.610912444e-07
-8.2009971e-07
-8.542726502e-07
-9.353070973e-07
-9.965253004e-07
-1.106096232e-06
-1.18760041e-06
-1.295862467e-06
-1.412841265e-06
-1.548857602e-06
-1.729697931e-06
-1.929545539e-06
-2.197641265e-06
-2.687777721e-06
-3.906334106e-06
-9.66826763e-06
-1.547762373e-05
-1.872412413e-05
-3.032749401e-05
)


100
(
1.762064678e-06
2.840759594e-08
-4.38049357e-07
-2.399796525e-07
-1.222094231e-07
-8.758435741e-09
7.641648782e-08
1.138624336e-07
1.860207599e-07
1.940272004e-07
2.189681869e-07
2.678067044e-07
2.362079827e-07
2.343987075e-07
2.64742922e-07
2.247312206e-07
1.791769087e-07
1.989957173e-07
2.024188648e-07
1.595330909e-07
1.100376364e-07
1.221361159e-07
1.413091808e-07
9.989251684e-08
5.914313125e-08
3.666228041e-08
5.140047887e-08
4.885668113e-08
1.812707815e-08
-8.555274241e-09
-4.316391177e-08
-6.0558427e-08
-2.578512854e-08
-1.624672876e-08
-4.385930849e-08
-8.761274372e-08
-8.213279944e-08
-7.603320549e-08
-8.255630615e-08
-1.096150547e-07
-1.262752051e-07
-1.308042945e-07
-1.261285566e-07
-1.322570771e-07
-1.480203922e-07
-1.713076296e-07
-1.912384752e-07
-1.906619122e-07
-1.83226773e-07
-1.971451699e-07
-2.165093789e-07
-2.373016451e-07
-2.523958151e-07
-2.660463574e-07
-2.812395913e-07
-3.057880745e-07
-3.333086249e-07
-3.738254077e-07
-4.018151307e-07
-4.033804214e-07
-4.077430439e-07
-4.329446512e-07
-4.602606074e-07
-4.823891629e-07
-5.041882508e-07
-5.219719639e-07
-5.430577782e-07
-5.772102449e-07
-6.051402619e-07
-6.045875738e-07
-6.115555166e-07
-6.425542453e-07
-6.948547321e-07
-7.315564408e-07
-7.743047501e-07
-8.264322812e-07
-8.666942665e-07
-9.211763082e-07
-1.003444292e-06
-1.076342454e-06
-1.15948232e-06
-1.23407155e-06
-1.333926157e-06
-1.428414044e-06
-1.548374193e-06
-1.668393511e-06
-1.84219123e-06
-2.015212079e-06
-2.191302678e-06
-2.429978577e-06
-2.674363696e-06
-2.943426762e-06
-3.267442794e-06
-3.751260129e-06
-4.720470592e-06
-6.741009553e-06
-1.764184224e-05
-2.095220833e-05
-2.337500133e-05
-4.048851297e-05
)


100
(
1.892885799e-06
-7.768862821e-08
-4.441550681e-07
-3.142022336e-07
-1.586256549e-07
-2.751161633e-08
7.070337371e-08
1.411563446e-07
2.012536679e-07
2.752178424e-07
2.677464423e-07
3.194325468e-07
3.551456609e-07
3.080061623e-07
3.064478166e-07
3.480728015e-07
2.953475468e-07
2.332494512e-07
2.465023182e-07
2.607000401e-07
2.041099792e-07
1.455015411e-07
1.399813667e-07
1.622892761e-07
1.325198155e-07
8.562835404e-08
4.364297593e-08
5.544029889e-08
7.103628898e-08
3.921618032e-08
7.122879676e-09
-5.169757174e-08
-6.712137293e-08
-3.774260748e-08
-2.902025997e-08
-6.49613933e-08
-9.696472883e-08
-1.16121554e-07
-1.061499846e-07
-1.068873088e-07
-1.252115945e-07
-1.537034832e-07
-1.847409439e-07
-1.876558682e-07
-1.720878236e-07
-1.814213461e-07
-2.113558476e-07
-2.435475037e-07
-2.67556791e-07
-2.712304487e-07
-2.707120165e-07
-3.063253323e-07
-3.413371132e-07
-3.807619338e-07
-4.342679702e-07
-4.474780443e-07
-4.406952067e-07
-4.617142251e-07
-5.014039008e-07
-5.416643334e-07
-5.578945617e-07
-5.6146425e-07
-5.91543491e-07
-6.255082812e-07
-6.693522491e-07
-7.210259644e-07
-7.188428311e-07
-7.195526058e-07
-7.540489452e-07
-7.985965004e-07
-8.564718679e-07
-9.008832391e-07
-9.65449631e-07
-1.039157767e-06
-1.086414995e-06
-1.139501707e-06
-1.249269443e-06
-1.359063881e-06
-1.482232595e-06
-1.599391252e-06
-1.693201785e-06
-1.850595421e-06
-2.015935025e-06
-2.203813956e-06
-2.336720724e-06
-2.568356468e-06
-2.812204119e-06
-3.056873089e-06
-3.356581749e-06
-3.807055897e-06
-4.202494985e-06
-4.533401197e-06
-4.986428987e-06
-5.586679884e-06
-7.962585294e-06
-1.177106814e-05
-2.908323599e-05
-2.858123552e-05
-2.688096444e-05
-5.399695472e-05
)


100
(
1.638436741e-06
-1.432259539e-07
-5.227525189e-07
-3.982420458e-07
-1.825288532e-07
-5.03567084e-08
6.121365703e-08
1.847124978e-07
2.318094456e-07
3.315076813e-07
3.896130469e-07
3.734890986e-07
4.47543029e-07
4.670564131e-07
4.079232364e-07
4.114663579e-07
4.631202413e-07
3.938931314e-07
3.119506393e-07
3.106723343e-07
3.485380572e-07
2.769188064e-07
2.091894102e-07
1.799777642e-07
2.061153432e-07
1.993976505e-07
1.449380894e-07
9.89724569e-08
8.315524769e-08
1.03803076e-07
9.86803544e-08
5.920764367e-08
-2.444647493e-08
-4.518519574e-08
-2.480659083e-08
-4.000955014e-10
-2.403307791e-08
-4.933808098e-08
-9.880048156e-08
-1.198041426e-07
-9.814671377e-08
-9.996162919e-08
-1.373227098e-07
-1.800166865e-07
-2.187664381e-07
-2.066868492e-07
-1.920546118e-07
-2.186798418e-07
-2.63976622e-07
-3.071284964e-07
-3.624965537e-07
-3.847677225e-07
-3.889921738e-07
-3.986780679e-07
-4.44552511e-07
-5.04706999e-07
-5.507843084e-07
-5.212333944e-07
-5.139185461e-07
-5.567352138e-07
-6.119249364e-07
-6.644646626e-07
-7.080076047e-07
-7.193831657e-07
-7.226889519e-07
-7.780120775e-07
-8.420026064e-07
-8.609805261e-07
-9.104981079e-07
-9.911190911e-07
-1.080675467e-06
-1.169805625e-06
-1.216602362e-06
-1.275001667e-06
-1.373157407e-06
-1.519967349e-06
-1.667499424e-06
-1.825465322e-06
-1.921440043e-06
-2.055968571e-06
-2.282028553e-06
-2.50921443e-06
-2.739636992e-06
-2.925454267e-06
-3.242427173e-06
-3.564203818e-06
-3.810172424e-06
-4.243230722e-06
-4.843320014e-06
-5.206331397e-06
-6.02403067e-06
-6.506403457e-06
-7.383929526e-06
-8.362462552e-06
-1.192360247e-05
-2.294673844e-05
-4.413068851e-05
-3.756349627e-05
-4.177528542e-05
-8.356099232e-05
)


100
(
1.260248044e-06
-1.731430282e-07
-6.160766344e-07
-4.116463575e-07
-2.188697173e-07
-7.81363039e-08
6.110043396e-08
1.94708255e-07
3.151376059e-07
3.779061793e-07
5.127634665e-07
5.285631473e-07
5.224976094e-07
6.096421121e-07
6.149098126e-07
5.3033375e-07
5.288650865e-07
5.896512606e-07
5.099667517e-07
4.139704191e-07
3.921133559e-07
4.344903727e-07
3.781313505e-07
3.028989958e-07
2.389763755e-07
2.723998951e-07
3.001661058e-07
2.455836579e-07
1.96764692e-07
1.583822452e-07
1.714795949e-07
2.01412055e-07
1.638569012e-07
9.45848238e-08
6.792538852e-08
4.11419232e-08
6.48623174e-08
9.204219882e-08
4.908170551e-08
-1.718002591e-08
-8.209416831e-08
-7.700869204e-08
-2.81407433e-08
-6.115015128e-08
-1.166425211e-07
-1.664158903e-07
-2.006052822e-07
-2.131934375e-07
-2.041815515e-07
-2.353284798e-07
-2.798806261e-07
-3.608993556e-07
-4.416142013e-07
-4.09024953e-07
-3.459183813e-07
-3.958394466e-07
-4.68123773e-07
-5.197921806e-07
-5.713249448e-07
-5.654018625e-07
-5.644623686e-07
-6.01353287e-07
-6.931267594e-07
-7.846436055e-07
-7.635217789e-07
-7.598898986e-07
-8.662401248e-07
-9.896799567e-07
-1.083582486e-06
-1.171518931e-06
-1.213610862e-06
-1.282496645e-06
-1.360868508e-06
-1.495639246e-06
-1.650861181e-06
-1.838973569e-06
-1.974663321e-06
-2.10933835e-06
-2.269430102e-06
-2.544360253e-06
-2.851747704e-06
-3.086995014e-06
-3.292327405e-06
-3.674415107e-06
-4.106241569e-06
-4.450872097e-06
-4.852415376e-06
-5.355128533e-06
-5.849768623e-06
-6.624803619e-06
-7.2204333e-06
-8.228342473e-06
-9.619040949e-06
-1.187459421e-05
-1.700434867e-05
-4.111008821e-05
-6.289997729e-05
-4.917861527e-05
-4.156387665e-05
-9.867572997e-05
)


100
(
1.022786912e-06
-1.911702586e-07
-6.174458701e-07
-4.16062586e-07
-2.775863474e-07
-1.00860401e-07
6.72235147e-08
1.994204605e-07
3.899053357e-07
4.770929916e-07
5.676083299e-07
7.215068029e-07
6.901583047e-07
6.858234574e-07
7.802705359e-07
7.647360159e-07
6.551988111e-07
6.359338518e-07
7.076620763e-07
6.321096245e-07
5.259343261e-07
4.723351536e-07
5.226787242e-07
4.989278878e-07
4.189705166e-07
3.562366322e-07
3.552840964e-07
3.996628957e-07
4.02546904e-07
3.495277662e-07
3.107725945e-07
2.556698337e-07
2.909078967e-07
3.357190078e-07
2.857007129e-07
2.253587328e-07
1.374239933e-07
1.235766924e-07
1.935714954e-07
2.018183879e-07
1.158590129e-07
3.319944345e-08
-2.153613538e-08
9.842900069e-09
5.165859216e-08
1.279573819e-09
-6.225318028e-08
-1.179689007e-07
-2.496478685e-07
-2.326711262e-07
-1.605350236e-07
-1.666607631e-07
-2.743794919e-07
-3.795888836e-07
-4.186520185e-07
-3.549232247e-07
-3.228218958e-07
-4.032977539e-07
-4.479063367e-07
-6.058989936e-07
-6.4171434e-07
-5.694504745e-07
-5.748459956e-07
-7.035458675e-07
-8.203743389e-07
-9.174271102e-07
-9.916120003e-07
-1.106177759e-06
-1.182740622e-06
-1.254647612e-06
-1.306607498e-06
-1.362663777e-06
-1.578021812e-06
-1.79470914e-06
-1.999492559e-06
-2.095616324e-06
-2.227927163e-06
-2.433049513e-06
-2.791641505e-06
-3.128110423e-06
-3.346952608e-06
-3.570401586e-06
-4.039388345e-06
-4.611174368e-06
-4.928540832e-06
-5.378930681e-06
-6.133012123e-06
-6.863239987e-06
-7.447084725e-06
-7.977470212e-06
-8.915976851e-06
-9.540159151e-06
-1.04108818e-05
-1.301680237e-05
-2.292395021e-05
-6.429440356e-05
-8.499235573e-05
-6.776253801e-05
-8.382079023e-05
-0.0002399844601
)


100
(
9.942816936e-07
-2.133419442e-07
-5.942467917e-07
-4.591253692e-07
-3.207740686e-07
-1.213923658e-07
5.69987484e-08
2.314903969e-07
4.026569321e-07
6.073860946e-07
6.474731702e-07
7.711853644e-07
9.053102668e-07
8.432056691e-07
8.310466097e-07
9.333439591e-07
9.018382869e-07
7.715966855e-07
7.295375227e-07
8.085964401e-07
7.562425398e-07
6.44055817e-07
5.490176675e-07
6.113806672e-07
6.607108758e-07
5.687001411e-07
5.122583116e-07
4.607912749e-07
5.300866246e-07
5.971657788e-07
5.502788147e-07
4.949048032e-07
4.077081803e-07
3.868532977e-07
4.595702037e-07
5.109682312e-07
4.154113117e-07
3.061380617e-07
1.924013671e-07
2.578558852e-07
3.466023498e-07
2.978506041e-07
1.929611065e-07
1.383508441e-07
5.049845698e-08
4.721395079e-08
8.926400439e-08
7.976230938e-08
-3.388672125e-09
-1.563730581e-07
-2.977489573e-07
-1.706652924e-07
-7.70525999e-08
-1.9870454e-07
-3.14034286e-07
-3.631865185e-07
-4.559172986e-07
-4.254415423e-07
-3.310842333e-07
-4.313140608e-07
-6.355275515e-07
-8.02491759e-07
-6.861543058e-07
-6.663573248e-07
-8.773534545e-07
-1.043201512e-06
-1.166661281e-06
-1.212830158e-06
-1.271667622e-06
-1.364222257e-06
-1.50388544e-06
-1.782091946e-06
-2.023332859e-06
-2.201656919e-06
-2.322472183e-06
-2.457010931e-06
-2.719055752e-06
-3.143403168e-06
-3.58589626e-06
-3.865606806e-06
-4.084094996e-06
-4.625682621e-06
-5.227006734e-06
-5.615118772e-06
-6.098536819e-06
-7.590882147e-06
-8.357129428e-06
-8.679482926e-06
-1.01185607e-05
-1.105003379e-05
-1.253431744e-05
-1.541388903e-05
-1.507911816e-05
-1.916399539e-05
-2.853883626e-05
-9.121141639e-05
-0.0001110924609
-9.079840001e-05
-0.0001391177456
-0.0003746977899
)


100
(
1.044120276e-06
-2.349152126e-07
-5.882471641e-07
-5.236535718e-07
-3.298963455e-07
-1.530618644e-07
3.831431453e-08
2.700913429e-07
4.220690576e-07
6.392553749e-07
8.068373843e-07
8.148086431e-07
9.6703367e-07
1.070087628e-06
9.726868006e-07
9.477321742e-07
1.058038038e-06
1.021168297e-06
8.862391041e-07
8.117282012e-07
9.014530404e-07
8.972661319e-07
7.843792009e-07
7.059156148e-07
7.221101683e-07
8.073291187e-07
7.901997749e-07
7.43078199e-07
6.943585649e-07
6.552314516e-07
7.40989799e-07
8.365493915e-07
7.574820954e-07
6.322272399e-07
4.756562311e-07
5.591288732e-07
7.118902451e-07
6.583034689e-07
5.187226204e-07
3.962520036e-07
3.174996099e-07
4.044886587e-07
4.897535348e-07
4.084548439e-07
3.282922614e-07
1.789342832e-07
-3.240752549e-08
3.712112632e-08
2.381240046e-07
1.124848376e-07
-6.961665241e-08
-2.313731648e-07
-2.561498591e-07
-1.808470729e-07
-1.31371357e-07
-2.257549062e-07
-3.651101331e-07
-6.245644501e-07
-6.389712362e-07
-3.905469599e-07
-5.117397058e-07
-7.700791346e-07
-9.644279806e-07
-1.093954351e-06
-1.247702677e-06
-1.252115216e-06
-1.310222385e-06
-1.404244558e-06
-1.462492485e-06
-1.613268542e-06
-1.952730459e-06
-2.338510424e-06
-2.526238585e-06
-2.714945536e-06
-2.911381905e-06
-3.35444632e-06
-3.823530586e-06
-4.218555238e-06
-4.439459668e-06
-4.817240208e-06
-5.38416367e-06
-6.499339355e-06
-7.014682957e-06
-7.33082822e-06
-8.476042696e-06
-9.448649726e-06
-1.068146966e-05
-1.180354158e-05
-1.226725533e-05
-1.463084039e-05
-1.526675141e-05
-1.879555149e-05
-2.231447074e-05
-2.71625549e-05
-4.523325663e-05
-0.0001240525385
-0.0001408972923
-0.0001055610943
-0.0001796680378
-0.0005049806002
)


100
(
9.030113189e-07
-2.490610737e-07
-6.371951686e-07
-5.371655147e-07
-3.402036712e-07
-1.869913079e-07
2.812709938e-08
2.603893747e-07
4.978530106e-07
6.442393462e-07
8.922051033e-07
1.0060643e-06
9.860027607e-07
1.145730816e-06
1.220578044e-06
1.098090968e-06
1.048327701e-06
1.175111068e-06
1.160768646e-06
1.026048426e-06
9.10418162e-07
1.019329478e-06
1.120122099e-06
9.993542119e-07
9.407125638e-07
8.975223125e-07
1.027026627e-06
1.154299656e-06
1.058052934e-06
1.010914472e-06
8.437401614e-07
9.237538623e-07
1.098127308e-06
1.112720658e-06
9.354087518e-07
7.562971597e-07
6.633911538e-07
8.592483896e-07
9.911999746e-07
8.537735513e-07
7.160452184e-07
6.370139797e-07
4.309380787e-07
5.150712215e-07
6.535313138e-07
6.248928079e-07
3.883852232e-07
1.233521315e-07
-2.217148875e-08
2.072034013e-07
2.908142323e-07
6.832730416e-08
-5.25953288e-08
-1.936389687e-07