/*--------------------------------*- C++ -*----------------------------------*\
| =========                 |                                                 |
| \\      /  F ield         | OpenFOAM: The Open Source CFD Toolbox           |
|  \\    /   O peration     | Version:  2.3.1                                 |
|   \\  /    A nd           | Web:      www.OpenFOAM.org                      |
|    \\/     M anipulation  |                                                 |
\*---------------------------------------------------------------------------*/
FoamFile
{
    version     2.0;
    format      ascii;
    class       dictionary;
    location    "constant";
    object      PM34;
}
// * * * * * * * * * * * * * * * * * * * * * * * * * * * * * * * * * * * * * //

PM34_table
100
(

100
(
0.04324461524
-0.01644535406
-0.01556854498
-0.0114052508
-0.01137685941
-0.01085380046
-0.007206651377
-0.008056299943
-0.006253326147
-0.005584689463
-0.006272257395
-0.003943753034
-0.004169040538
-0.003963022516
-0.002620458155
-0.002676658088
-0.002886192728
-0.001574286169
-0.001555920744
-0.00175928683
-0.001126293344
-0.0008595861844
-0.0008930848816
-0.0008428832049
-0.0004486293592
-0.0004198519234
-0.0004451484828
-0.0003510417575
-0.0001436782869
-0.0001113786401
-0.0001084151438
-4.07058071e-05
2.714907849e-05
6.173594132e-05
8.476941797e-05
0.0001107489958
0.0001230086755
0.0001304503663
0.0001610407684
0.0001788980867
0.0001564304681
0.000139411106
0.0001706718321
0.0001877242391
0.0001663763475
0.0001433674334
0.0001755282317
0.0002096924644
0.0001541231075
9.667512209e-05
8.696674127e-05
0.000105963692
7.287052721e-05
3.876731059e-05
3.254648723e-05
4.317541861e-05
3.122000101e-05
1.930158727e-05
2.691877216e-05
3.804889189e-05
2.33364586e-05
-4.315959151e-05
-4.702416118e-05
-3.059693784e-05
-5.21164892e-05
-0.0001176145755
-0.000110901696
-0.000105855677
-0.0001570441501
-0.0001871376255
-0.0001787743519
-0.0001964401822
-0.0002520489884
-0.0002371554386
-0.0002557584194
-0.0002850654355
-0.000290456316
-0.0003056519085
-0.0003238679816
-0.0003205918347
-0.00034071323
-0.0003454038372
-0.0003437564709
-0.0003647845659
-0.0003449244707
-0.0003612599221
-0.0003513145627
-0.0003472174032
-0.0003543652828
-0.0003420729059
-0.0003455342673
-0.0003395465665
-0.0003437431633
-0.0003357716031
-0.0003393646446
-0.0003268152623
-0.0003194368825
-0.0002956299721
-3.51301411e-05
0.0002013420088
)


100
(
0.04780388838
-0.01278146509
-0.01227548493
-0.009260782052
-0.01061690516
-0.008218194462
-0.00723596315
-0.006082393087
-0.005518739688
-0.004083505758
-0.004419536394
-0.002988321143
-0.002797035294
-0.002694227763
-0.001857553067
-0.001645327368
-0.001652708706
-0.001152382644
-0.0008567951304
-0.0008823892075
-0.0006757396155
-0.0004779776571
-0.0003934698301
-0.0003535463038
-0.0002333784034
-0.0001527529986
-0.0001224925531
-8.232417974e-05
-2.403070903e-05
1.175912135e-05
3.179673986e-05
5.78976015e-05
8.131791496e-05
9.591589812e-05
0.0001072644404
0.0001241300731
0.0001217105635
0.0001159597614
0.0001040222776
0.0001007017827
9.278637324e-05
8.531967681e-05
7.603403672e-05
5.836898609e-05
5.537206201e-05
5.371581469e-05
5.230556168e-05
4.821616091e-05
2.106848801e-05
6.69978534e-06
-6.773738595e-06
-2.552724374e-05
-6.700415919e-05
-7.530142817e-05
-7.927731415e-05
-9.059222937e-05
-0.0001312658499
-0.0001263368921
-0.000119812726
-0.0001242755782
-0.0001705506203
-0.0001812630887
-0.0002158365175
-0.0002347131564
-0.0002305860066
-0.0002421580841
-0.000278946841
-0.0003043524553
-0.0002955754475
-0.0003214408932
-0.0003474310191
-0.0003565777185
-0.0003657337875
-0.0003827345013
-0.0003915390563
-0.0004124056012
-0.0004380723103
-0.0004351388784
-0.0004486597654
-0.0004622707023
-0.0004538287872
-0.0004696536238
-0.0004676987134
-0.000483175033
-0.0004858949615
-0.0004842713247
-0.0004971440551
-0.0004887456611
-0.0004950115103
-0.0004989880332
-0.0004961983989
-0.0004947850951
-0.000497543387
-0.0004996077519
-0.0005010995455
-0.0005067634938
-0.0005095071287
-0.0005863698459
-0.0003316046167
-0.02111192989
)


100
(
0.02638983674
-0.009443198461
-0.008582535961
-0.008916215942
-0.008562558203
-0.00542190861
-0.005881420304
-0.003775637308
-0.003828451658
-0.002731221036
-0.002421938476
-0.001991718755
-0.001353304474
-0.00131781089
-0.001059531689
-0.0007149969998
-0.0006297238066
-0.0005460725345
-0.0003649678295
-0.0002399252713
-0.0002173467456
-0.0001522591681
-8.795357655e-05
-4.912005045e-05
-2.951941337e-05
-3.68039447e-06
1.252119729e-05
2.127325909e-05
3.922180484e-05
3.629426023e-05
2.902865584e-05
1.696193439e-05
2.810345796e-05
1.792441861e-05
6.411360069e-06
-6.659173122e-06
-4.142186787e-06
-6.604106625e-06
-3.115739117e-05
-5.644581116e-05
-8.093637843e-05
-9.392616288e-05
-0.0001114493922
-0.0001315562609
-0.0001521303306
-0.0001840619964
-0.0001963180144
-0.0002084109255
-0.00022229275
-0.0002726889845
-0.0002722492012
-0.0002892580294
-0.0003125755669
-0.0003754792823
-0.0003886782761
-0.0003911028719
-0.0004130678929
-0.0004922162516
-0.0005003340154
-0.0004684326934
-0.0004618045536
-0.0005095206953
-0.0005648506359
-0.0006110421086
-0.0006003579736
-0.0005756161702
-0.0006064791752
-0.0006317253265
-0.0006251748623
-0.0006373572998
-0.0006656480377
-0.0006678941407
-0.0006612084896
-0.000704338193
-0.000691210277
-0.0006643247374
-0.0007149664875
-0.0007428824084
-0.0007271380071
-0.0007754244416
-0.0007548720062
-0.0007670418084
-0.0007915177396
-0.0007651063538
-0.0008183709788
-0.0008009142325
-0.0008214081436
-0.0008328480121
-0.0008191874356
-0.0008356569771
-0.0008423877095
-0.0008506342259
-0.0008389456568
-0.0008627538526
-0.0008746157738
-0.0008980392252
-0.001040507273
-0.00144698036
-0.006728767453
-0.01106416751
)


100
(
0.006222414211
-0.01071146263
-0.009044100676
-0.008891367521
-0.005999642487
-0.004960617415
-0.004202203807
-0.003361829801
-0.002651677577
-0.002350498935
-0.001567424223
-0.001477077788
-0.001106635528
-0.0007888762013
-0.0007481362811
-0.0005714612416
-0.0003768528269
-0.0003219660388
-0.0002897899426
-0.0001818361534
-0.0001050991665
-9.095182952e-05
-6.442061724e-05
-2.955747279e-05
-9.294761275e-06
-4.524291834e-06
1.820283691e-06
2.251059447e-06
-4.293186368e-06
-3.750795916e-06
-6.409444203e-06
-2.419154014e-05
-4.644437013e-05
-6.745472021e-05
-6.864054052e-05
-8.996234603e-05
-0.0001155837815
-0.0001602545493
-0.0001515195952
-0.0001628392145
-0.0001971014856
-0.0002439652648
-0.0002930742804
-0.000284447733
-0.0003078994479
-0.0003613141626
-0.0004636380185
-0.0004523730233
-0.0004478123784
-0.0005027280976
-0.0006127401016
-0.0006096281506
-0.0005742547283
-0.0006240688142
-0.0007183492336
-0.0007336603272
-0.0006739981553
-0.0007351005169
-0.0008269032818
-0.0008400084123
-0.0007645334846
-0.0007424914785
-0.0007619770951
-0.0008051644201
-0.0008495560278
-0.0008462864484
-0.0008367870547
-0.0008626624815
-0.0008853270118
-0.0008911855891
-0.0009083738576
-0.0009356541923
-0.0009448988679
-0.0009324007603
-0.0009406769969
-0.0009436078766
-0.0009119004328
-0.0009525819995
-0.0009666528147
-0.0009728787662
-0.001025243989
-0.0009980407091
-0.001012831392
-0.0009970623749
-0.001006115151
-0.001015360405
-0.001023622599
-0.001044273823
-0.001031748176
-0.001007760873
-0.001006974641
-0.001041408792
-0.001020829473
-0.001022802574
-0.001050890983
-0.001081356626
-0.001446692778
-0.003237778767
-0.0211032699
-0.02825970212
)


100
(
9.728611605e-06
-0.011595867
-0.009271364853
-0.006724278566
-0.004641519998
-0.004965360659
-0.00323070213
-0.00331587155
-0.002230417484
-0.002048354109
-0.001614461116
-0.001192728106
-0.001146504954
-0.0007948725367
-0.0005963913399
-0.0005771001076
-0.0004311455848
-0.0002758216862
-0.0002330071309
-0.0002263404908
-0.0001322882822
-6.698842135e-05
-4.988383975e-05
-4.097857964e-05
-1.333833025e-05
-1.504140493e-07
6.706719183e-07
-2.767681354e-07
-6.395737995e-06
-2.070069857e-05
-3.925390134e-05
-3.8094472e-05
-5.825882915e-05
-9.036765979e-05
-0.0001481984654
-0.0001475062739
-0.000156355592
-0.0001919156475
-0.0003051246329
-0.0003071924466
-0.0002959081312
-0.0003063070446
-0.0004129952749
-0.0004796156655
-0.0004639618193
-0.0004224944895
-0.0005388045396
-0.0006720809128
-0.0006484996166
-0.0005851969851
-0.0006778887173
-0.0007933044273
-0.0007970398104
-0.0007461018585
-0.0008005074262
-0.0008927921172
-0.0009045169124
-0.0008503862188
-0.0008736785129
-0.0009298030933
-0.0009424006383
-0.000907819267
-0.0008919367031
-0.0009008526347
-0.0009327481351
-0.0009760350256
-0.000981624484
-0.0009923961638
-0.001025558746
-0.001037703596
-0.001044950194
-0.001046936889
-0.001059581642
-0.001048627507
-0.001022888743
-0.001007255767
-0.001003583517
-0.001034802764
-0.001039759807
-0.000991378453
-0.0009862609284
-0.0009959703341
-0.001001380399
-0.0009958734651
-0.0009777164567
-0.0009515467015
-0.0009512829948
-0.0009615944403
-0.0009425685661
-0.0009143933535
-0.0008843884983
-0.0008812486002
-0.0008875227008
-0.0008584517308
-0.0008570496637
-0.0009116868662
-0.001541777329
-0.007392347681
-0.02847652304
-0.02810102354
)


100
(
0.001431845353
-0.008943007817
-0.007275025111
-0.005144765159
-0.004865821328
-0.004228752265
-0.003316568123
-0.002925660411
-0.002532888322
-0.001874892561
-0.001879899972
-0.0013282628
-0.001095042337
-0.001018232306
-0.0007039256068
-0.0005532674141
-0.0005426666969
-0.0004043470957
-0.0002583426741
-0.0002057555483
-0.0002002232971
-0.0001219297587
-5.868006251e-05
-2.941501464e-05
-2.555043807e-05
-5.976216438e-06
4.222379328e-07
-2.030850911e-06
-1.016732535e-06
-6.811597494e-06
-3.015882422e-05
-6.824561413e-05
-6.683141406e-05
-6.416202989e-05
-0.0001190497548
-0.0002049055301
-0.0002022238816
-0.0001660975767
-0.0002383206211
-0.0003737392347
-0.0003790572548
-0.0003482208148
-0.0003548879313
-0.000481901691
-0.0005493868221
-0.000497128935
-0.0004615168932
-0.0005903407141
-0.0007191752016
-0.0006711012784
-0.0006317019171
-0.0007121781137
-0.0008021715399
-0.0007991059038
-0.0007505623327
-0.0007695745844
-0.0008153145497
-0.0008200033674
-0.0008093859105
-0.0007965166944
-0.0008059250311
-0.0008273262654
-0.000852989355
-0.0008692484896
-0.0008701800834
-0.0008924419912
-0.0009155274958
-0.0008952184539
-0.0008868204683
-0.0008815659645
-0.0008776375571
-0.0008797687349
-0.0009000239905
-0.0009146655219
-0.0009252410615
-0.0009139764493
-0.0008458008327
-0.0008078754601
-0.000803121601
-0.000802518551
-0.0007915743504
-0.0007393358882
-0.0007274617177
-0.0007172712964
-0.0006990695602
-0.000674147704
-0.0006206518983
-0.0006172088649
-0.000559162878
-0.0005069002442
-0.0005120027187
-0.0004649853426
-0.0004429792591
-0.0003914440335
-0.0003500627057
-0.0004790660326
-0.001412162176
-0.01323338267
-0.03327214985
-0.02849198988
)


100
(
0.00563326401
-0.006902841075
-0.005705840413
-0.004897480624
-0.005242330269
-0.003648231969
-0.003801968619
-0.00269445944
-0.002817830997
-0.002154810293
-0.001870116772
-0.001724486601
-0.001225110038
-0.001094532064
-0.0009788691763
-0.0006940140601
-0.0005571137694
-0.0005435555214
-0.0004133393227
-0.0002674623445
-0.0001900583075
-0.0001739402145
-0.0001108396705
-4.912048136e-05
-1.256608416e-05
-7.596064793e-06
1.07981231e-06
-7.245506003e-07
-2.671670852e-06
1.544768275e-06
7.693714421e-06
-4.008071483e-05
-7.872448537e-05
-7.379271938e-05
-4.29526509e-05
-0.0001327353214
-0.0002174590636
-0.0002071013951
-0.0001318593747
-0.0002395068946
-0.0003732311868
-0.0003790535441
-0.0003122207695
-0.0003558823683
-0.0004818201843
-0.000532886948
-0.0004663666551
-0.0004390431394
-0.0005487141351
-0.0006160226302
-0.0005772613078
-0.0005319046909
-0.0005548100047
-0.0005876439885
-0.0006017923059
-0.0006031975647
-0.0005930337328
-0.0005886383624
-0.0006217051935
-0.0006590983282
-0.0006674472109
-0.0006477599158
-0.0006616559785
-0.0006850087885
-0.0006742585003
-0.0006392407559
-0.0006354778582
-0.000623577771
-0.000600903213
-0.0006040056208
-0.0006031692744
-0.000590999422
-0.0006043606321
-0.0006056725027
-0.0005613573372
-0.0005600937723
-0.0005267656338
-0.0004957950043
-0.000476361619
-0.0004438401792
-0.0004311206353
-0.0004136623933
-0.0003583146882
-0.0003208608396
-0.0002601108754
-0.000240716201
-0.0001918292152
-0.000178449556
-0.0001618492746
-5.558924761e-05
1.009525227e-05
1.443749508e-05
8.325155655e-05
0.0001418718537
0.0002120157891
6.768542772e-05
-0.001387565317
-0.019167226
-0.03698587572
-0.02725569011
)


100
(
0.002982304777
-0.005811290895
-0.005253964779
-0.00531527102
-0.004500246674
-0.003794896282
-0.003665271916
-0.00310017436
-0.002753099044
-0.002662309015
-0.001939652497
-0.001857736782
-0.001595406649
-0.001158156327
-0.001083422248
-0.0009444687502
-0.0006780324809
-0.000537039225
-0.0005099204254
-0.0003877498765
-0.0002391135197
-0.0001404239452
-0.0001252284723
-8.940319126e-05
-3.934322083e-05
-8.077798943e-06
-5.414480807e-07
3.704274229e-06
-4.854044282e-06
-5.624904911e-06
3.339940719e-06
1.190179645e-05
-5.101296456e-05
-8.677252975e-05
-6.354026466e-05
-4.58796412e-05
-0.0001445803257
-0.0002243553154
-0.0001724674462
-0.0001365491671
-0.0002376538353
-0.0003598137832
-0.0003358431047
-0.0003034836642
-0.0003423159741
-0.0004387013097
-0.0004388230755
-0.0003841086503
-0.000337397644
-0.0003782936888
-0.0003812636184
-0.0003888352827
-0.0003771806127
-0.0003644196852
-0.0003756538042
-0.0004171017532
-0.0004627142826
-0.0004738758743
-0.0004641170733
-0.0004804757327
-0.0005011972804
-0.0004874154553
-0.0004479688937
-0.0004161268656
-0.0003952886002
-0.000357975881
-0.0003521455688
-0.0003718004355
-0.00035639186
-0.0003469631704
-0.0003568960223
-0.0003242054322
-0.0002762826328
-0.000250240513
-0.0002007928992
-0.0001816443383
-0.0001887547028
-0.0001556040735
-0.0001419402064
-0.0001185932155
-6.046597737e-05
-9.539657303e-06
3.278326294e-05
6.293809495e-05
0.0001125948355
0.0001752835798
0.0002047470754
0.0002362100355
0.0002233833152
0.0002853341688
0.0003703717214
0.0004099676952
0.0004683295021
0.0005323147725
0.0005988991864
0.0005179966301
-0.001623470029
-0.02244552131
-0.03865651464
-0.02973294158
)


100
(
-0.0002658595759
-0.006110588728
-0.005547330626
-0.005023269129
-0.003863365044
-0.004266703194
-0.003365632914
-0.003622006953
-0.00270396888
-0.002710410747
-0.002363191249
-0.001807517268
-0.001801457384
-0.001463718869
-0.001069830082
-0.001019194089
-0.0008681669788
-0.0006061639398
-0.0004354382139
-0.0004085235505
-0.0003293438022
-0.0002042969443
-0.0001021105085
-9.620438071e-05
-8.849572714e-05
-4.140736226e-05
-9.24883588e-06
-7.765725848e-08
-1.266343194e-06
-1.345069604e-05
-1.303728629e-05
8.430177508e-06
-2.896570711e-06
-6.787245975e-05
-0.0001011057117
-5.327757588e-05
-6.987569407e-05
-0.0001670595976
-0.0002277095124
-0.0001739130982
-0.0001564585767
-0.0002336136568
-0.0003053558593
-0.000280191964
-0.0002404404881
-0.0002402840993
-0.000258945629
-0.0002571122338
-0.0002471402669
-0.000223539655
-0.0002168631776
-0.0002347759689
-0.00027494957
-0.0003099891098
-0.0003082207499
-0.0002859456961
-0.0003035169197
-0.0003220418637
-0.0003069449332
-0.0002674341131
-0.0002368154337
-0.0002166451175
-0.0001795082896
-0.000166894691
-0.0001839075503
-0.0001732840607
-0.0001482077716
-0.0001617420019
-0.0001568028959
-9.576656481e-05
-4.108988748e-05
7.416311216e-06
6.347544784e-05
6.148310194e-05
6.936530168e-05
0.0001043656742
0.0001151468173
0.0001534140983
0.0002134343367
0.0002723462545
0.0002986512819
0.0003268527515
0.000356376729
0.0004013427355
0.0004336802989
0.0004802600623
0.0005020472107
0.0005308817405
0.0005477196189
0.0005885903219
0.0006393624586
0.0006743043071
0.000702398443
0.0007519542271
0.0008510511859
0.0007809215974
-0.002378549456
-0.02304689689
-0.03752687644
-0.03023278024
)


100
(
-0.001641157051
-0.005972987616
-0.005172180679
-0.004199364515
-0.003965269014
-0.004102520043
-0.00349552346
-0.003430680388
-0.003129923226
-0.002585205805
-0.002640362482
-0.002107507629
-0.001734870573
-0.001697014658
-0.001316300384
-0.0009269986379
-0.0008706866536
-0.0007327246443
-0.0005084867143
-0.0003424860196
-0.000337791375
-0.0003081432201
-0.0001924696732
-9.539230685e-05
-7.300319048e-05
-7.998984502e-05
-4.609343284e-05
-1.060519208e-05
1.129835122e-06
-7.463378217e-06
-2.242865688e-05
-1.490771467e-05
6.660737605e-07
-1.952462215e-05
-8.438650467e-05
-9.511457933e-05
-7.285864803e-05
-9.055868147e-05
-0.0001680647517
-0.0001818206177
-0.0001479818396
-0.000115262473
-0.0001346213007
-0.0001359666721
-0.0001289950247
-0.0001091574887
-9.726863693e-05
-0.0001057333129
-0.0001317530671
-0.0001658351226
-0.0001854298489
-0.0001668103058
-0.000162251159
-0.0001830603775
-0.0002009997405
-0.0001807212754
-0.0001323168666
-8.435410169e-05
-4.56108304e-05
1.059576827e-06
2.842662856e-05
2.356002763e-05
3.136684459e-05
4.224185391e-05
2.14803512e-05
7.654702903e-06
6.338280135e-05
0.0001342293165
0.0001835140254
0.0002408664554
0.0002820380119
0.0002843980327
0.0003152787931
0.0003275971051
0.0003408036995
0.0003956772417
0.0004551958689
0.0005117917875
0.0005334130305
0.0005524314156
0.0005736987651
0.0006048946122
0.0006411777261
0.0006546749738
0.0006698034589
0.0006750621085
0.0007113301704
0.000715697205
0.0007402694052
0.0007599296664
0.000785564934
0.0008071136899
0.0008481510741
0.0008864489754
0.0009618670577
0.0009178584622
-0.003905012564
-0.02288131383
-0.03394927604
-0.02775796018
)


100
(
-0.00147895111
-0.00493785218
-0.004311394292
-0.003667479652
-0.004333260668
-0.003677931924
-0.003939317237
-0.003192099039
-0.003449259543
-0.002797265275
-0.002547929359
-0.002521405593
-0.001916817357
-0.001622635696
-0.001549835853
-0.001149787217
-0.0007966664666
-0.0007685807991
-0.0006926844465
-0.0004875091237
-0.000298825873
-0.0002999473263
-0.0003173210224
-0.0001999032441
-0.0001008642736
-5.389958354e-05
-6.797849039e-05
-5.60954077e-05
-1.481249988e-05
3.051950594e-06
-3.825822167e-06
-1.897571839e-05
-6.490129987e-06
-3.991099961e-06
-2.146696416e-05
-6.489130615e-05
-6.08144984e-05
-4.628951381e-05
-4.238713926e-05
-5.33087821e-05
-4.297348941e-05
-1.98267892e-05
1.781925358e-06
7.897387826e-06
2.154375111e-06
-1.267270579e-05
-2.70742131e-05
-2.808650842e-05
-2.71246905e-05
-4.370377529e-05
-6.922136852e-05
-7.920280642e-05
-5.308253721e-05
-5.856047588e-06
3.963314194e-05
7.988027151e-05
0.0001266135102
0.0001690858168
0.0001900725547
0.0002048870748
0.0002172063246
0.0002081846039
0.0001986245507
0.0002345134997
0.0002979624317
0.0003362747197
0.000377344591
0.0004445818724
0.0004898477624
0.000511487691
0.0005188128005
0.0005105191171
0.0005456698509
0.0005955544812
0.0006412997886
0.0006929394393
0.0007091172953
0.0007155996718
0.0007349499605
0.0007528139076
0.000776174918
0.0007831833643
0.0007819189964
0.0007802545471
0.00078155891
0.0007878509716
0.0007941548508
0.0008038777406
0.0008078787618
0.0008181286191
0.0008314164199
0.0008562017158
0.0008788078974
0.000934172208
0.0009755041199
0.0008624660974
-0.006329820072
-0.02277685094
-0.02924066462
-0.02463234328
)


100
(
-0.0001707731768
-0.004011994887
-0.00357933941
-0.003878065623
-0.004081469408
-0.00365460613
-0.003930022286
-0.003529386457
-0.003339001485
-0.003307882394
-0.002603937148
-0.002537995944
-0.002344326003
-0.001770136261
-0.001527192682
-0.001500196996
-0.001136919684
-0.0008033613009
-0.000766398014
-0.0007397901728
-0.0005298695372
-0.0003438430366
-0.0003064732028
-0.0003328735969
-0.0002480387797
-0.0001395716809
-6.225456274e-05
-7.224402265e-05
-8.394034087e-05
-3.709092496e-05
-4.154389654e-06
1.159960498e-05
8.052989822e-06
7.017724386e-06
7.581734676e-06
1.534992998e-05
2.280524058e-05
3.860767027e-05
4.656497972e-05
5.441984652e-05
6.300617462e-05
6.979451721e-05
7.507953543e-05
7.20818676e-05
6.500330733e-05
6.044163256e-05
5.146778007e-05
4.155041226e-05
4.776698454e-05
6.489396353e-05
8.401043343e-05
0.0001162829826
0.0001569277196
0.0002088047532
0.0002763372456
0.0003106715527
0.0003206784811
0.0003289866784
0.000326811666
0.0003288898101
0.0003520496626
0.0003812439801
0.0004208523165
0.0004622119005
0.0005331126288
0.0006158560901
0.000626904433
0.0006260213003
0.0006285374124
0.0006446930464
0.0006927384453
0.0007154047894
0.0007408177548
0.0007830522021
0.0007860557041
0.0007793419888
0.0007934584459
0.0007949699212
0.0008071168285
0.0008156912875
0.0008032254278
0.0007971832322
0.0007857343584
0.0007883021449
0.0007779298723
0.00076599491
0.0007609548402
0.0007583273302
0.0007559868534
0.0007647492382
0.0007720002919
0.0007850580577
0.0008058635153
0.0008355963717
0.0009309572051
0.0005702604948
-0.008910632086
-0.02203155258
-0.02421221521
-0.02020530882
)


100
(
-0.0001681984806
-0.003505462685
-0.003565216929
-0.004084335768
-0.003642763239
-0.004073153444
-0.003731157089
-0.004085623657
-0.003353538724
-0.003457017317
-0.003168389871
-0.002526873706
-0.002530756322
-0.002270267475
-0.001764734304
-0.001588727561
-0.001596840617
-0.001245448312
-0.000908816678
-0.0008408187798
-0.0008782027108
-0.0006493045198
-0.0004516582059
-0.0003636778761
-0.0003945452941
-0.0003537510393
-0.0002286499636
-0.0001379121703
-0.0001062295507
-0.0001227693537
-0.0001021048478
-4.891950187e-05
1.538170661e-05
2.844680847e-05
1.78071942e-05
3.207190593e-07
1.98009623e-05
4.013299199e-05
7.779382136e-05
9.102297908e-05
7.166274007e-05
6.788447904e-05
8.197888468e-05
9.136652332e-05
0.0001000546108
9.323798556e-05
8.770191481e-05
9.933773851e-05
0.0001244222666
0.000164391369
0.0002267223078
0.000271123617
0.0002987526403
0.0003137975042
0.0003416881218
0.0003701210194
0.0003977892262
0.0003819350546
0.0003780262967
0.0004018157712
0.0004442018674
0.0005083460062
0.0005732620641
0.000600677829
0.0006028796671
0.0006363610173
0.0006696004451
0.0006656487047
0.0006703010918
0.0006874936553
0.0007207123402
0.0007545923387
0.0007485508763
0.0007421729786
0.0007422024615
0.0007482902302
0.0007499657294
0.0007464336401
0.000718625031
0.0007099051313
0.0007100845751
0.0007001629056
0.0006958768556
0.0006728987439
0.0006721736026
0.0006610656723
0.0006562523609
0.0006542856885
0.0006650455594
0.0006448487758
0.0006652350348
0.0006683498955
0.0007022473525
0.0007354835239
0.0008180886421
-7.265717835e-05
-0.009864477913
-0.02150108551
-0.02072604547
-0.01556618773
)


100
(
-0.0009396693493
-0.003445951197
-0.003636426027
-0.003584792066
-0.003573183262
-0.004173303754
-0.003819242507
-0.004038822777
-0.003909970106
-0.003459224985
-0.003602024442
-0.00307524164
-0.002607708663
-0.002625075807
-0.002356894137
-0.00186175057
-0.001707088541
-0.001747550685
-0.001413887866
-0.001076449257
-0.0009625023954
-0.001004589034
-0.0008193118447
-0.0006072169165
-0.0004489438429
-0.0004845102711
-0.0004984948762
-0.0003701348256
-0.000266610785
-0.0001990859544
-0.0002051077621
-0.000228796246
-0.0001726212148
-9.364018595e-05
-6.632860615e-05
-4.026476196e-05
-6.251147392e-05
-8.54433748e-05
-4.271226323e-05
1.366938575e-05
5.995250222e-05
5.270730498e-05
1.812639694e-05
3.653093948e-05
6.412658325e-05
8.857383843e-05
0.0001126955417
0.0001318994538
0.0001382041413
0.0001709822484
0.0002121492909
0.0002757723806
0.0003374795815
0.0003136903306
0.0002642328611
0.0002953212453
0.0003369659732
0.0003726925333
0.0004224432842
0.0004284022119
0.000433814734
0.0004635684227
0.0005315125921
0.000595080258
0.0005627834467
0.0005326811949
0.0005692275724
0.0006070182725
0.0006245950045
0.0006371395181
0.0006264805127
0.0006251761864
0.0006148593639
0.0006135204895
0.0006101825069
0.000612354579
0.0006035167592
0.0005949950457
0.0005743017452
0.0005680001312
0.0005690823964
0.0005556352055
0.0005416443671
0.0005400663133
0.0005375805864
0.0005277348117
0.0005245617152
0.0005221708198
0.0005139216735
0.0005223741157
0.0005127451064
0.0005354205879
0.0005671548517
0.000634476055
0.0007151914797
-0.0008813169198
-0.009961008365
-0.01977565439
-0.01581057194
-0.009001262527
)


100
(
-0.001366110956
-0.003183450394
-0.003210375059
-0.003124028569
-0.003805138819
-0.003832054877
-0.004219532145
-0.003857795725
-0.00429207683
-0.003814844079
-0.003584874267
-0.003690383132
-0.003074041061
-0.002708581104
-0.002750674173
-0.002475758934
-0.001987834559
-0.001812410112
-0.001885257364
-0.001591883632
-0.001250929905
-0.001066944341
-0.001116321002
-0.0009992545209
-0.0007775091927
-0.0006146040436
-0.0005764210731
-0.0006078948963
-0.000568012296
-0.0004584259738
-0.0003854052983
-0.0003068592148
-0.0003367629258
-0.0003718091884
-0.0003000355207
-0.0002227628376
-0.0001277803806
-0.0001082417412
-0.0001593620003
-0.0001548570738
-8.183810466e-05
-2.161699817e-05
1.336122154e-05
-6.012672642e-06
-3.179067881e-05
-8.072565116e-07
4.094366063e-05
8.146520787e-05
0.0001811337785
0.0001722977095
0.000119900615
0.0001237396895
0.0001995176923
0.0002706277848
0.0002977009462
0.0002523724659
0.0002273959131
0.0002817567417
0.0003124898236
0.0004269236251
0.0004497757869
0.0003896480138
0.0003794793477
0.0004452855469
0.0004907436136
0.0005074522481
0.0005036162463
0.000519128153
0.0005173997883
0.0005132510969
0.0004995111429
0.0004805601536
0.0004984473725
0.0005025228814
0.000504306636
0.0004824555361
0.0004638315887
0.0004555547742
0.000463299784
0.0004564175457
0.0004461643852
0.0004334398475
0.0004294876895
0.0004332052795
0.0004202918194
0.0004181227352
0.0004208722612
0.0004228000524
0.0004171523793
0.0004090747251
0.0004132458502
0.0004110229113
0.0004072194912
0.0004552708262
0.0006413556297
-0.001427758545
-0.008939231933
-0.01708747439
-0.01267323421
-0.006696164397
)


100
(
-0.001142385549
-0.002709698564
-0.002731258106
-0.003023558863
-0.003717496407
-0.003615396221
-0.004210670327
-0.004059673235
-0.004117140312
-0.004298194208
-0.003676810494
-0.003644958506
-0.003654049785
-0.003074580051
-0.002774320166
-0.002860126723
-0.002591433492
-0.002104692688
-0.001891784354
-0.001979211142
-0.00175304882
-0.001408814138
-0.001137856366
-0.001192767526
-0.001200714319
-0.0009568517903
-0.0007957108953
-0.0006710668627
-0.0007288498117
-0.00077676292
-0.0006787567568
-0.0005780844758
-0.0004522555102
-0.000406478401
-0.0004551735028
-0.0004731255576
-0.0003584584674
-0.0002436997879
-0.0001426084773
-0.0001795701912
-0.0002286084471
-0.0001877537698
-0.0001183151636
-8.505939208e-05
-3.22990941e-05
-3.156453852e-05
-6.163184775e-05
-5.587033289e-05
2.375976933e-06
0.0001088913273
0.0002071940927
0.000117973692
5.256538622e-05
0.0001330373985
0.0002061177441
0.0002353752633
0.0002948309042
0.0002708204426
0.0002053614214
0.0002623009365
0.0003770813604
0.0004599634326
0.0003689551808
0.0003297772143
0.000399217858
0.0004323320085
0.0004449614856
0.0004306401428
0.0004209389516
0.0004152950553
0.0004122402069
0.0004329662461
0.0004367050983
0.0004270504647
0.0004093147702
0.0003958122502
0.0003914213001
0.0003958503073
0.0004009463224
0.0003883074083
0.0003661042341
0.0003716293106
0.0003686075933
0.0003617788815
0.0003543595761
0.0003813744203
0.0003736702596
0.0003535556379
0.000372929709
0.0003721606653
0.0003840031621
0.0004192638218
0.000392405368
0.000445270869
0.0005619257335
-0.001569990273
-0.007328136447
-0.01426404435
-0.009674593599
-0.002975881272
)


100
(
-0.0006095557075
-0.002257873607
-0.002413668009
-0.003055778241
-0.003277442486
-0.003767741466
-0.003879437708
-0.004371320312
-0.003964157857
-0.00420760662
-0.004136819714
-0.003567920281
-0.003684373922
-0.00363746779
-0.003073550449
-0.002806306001
-0.002928444547
-0.002676748529
-0.002214085984
-0.001937007403
-0.002034508072
-0.001905186788
-0.001561326293
-0.001312887392
-0.001252404049
-0.001295648718
-0.001172609543
-0.001024793714
-0.0008978865171
-0.0008017146423
-0.0008562114395
-0.0009070706359
-0.0007717616337
-0.0006000379058
-0.0004218651115
-0.0004633436447
-0.0005498653178
-0.0004749806693
-0.0003488059122
-0.0002505382059
-0.0001939753073
-0.000244795255
-0.0002991217993
-0.0002550348411
-0.0002094372613
-0.0001164119579
2.147669866e-05
-2.464671504e-05
-0.0001564731848
-7.337729447e-05
4.466441704e-05
0.0001461400267
0.0001590434447
0.0001094869579
7.710404443e-05
0.0001291698054
0.0002040687255
0.0003430164484
0.0003405696778
0.000197728926
0.0002460538226
0.0003483159304
0.000400467928
0.0004103741226
0.0004238197685
0.0003893438322
0.0003759188078
0.000372065714
0.0003555434277
0.0003533218499
0.0003769390218
0.0003979598054
0.000387978521
0.0003804770603
0.0003663495624
0.0003719760467
0.0003719442473
0.0003637017471
0.0003441552893
0.0003394086545
0.0003346314619
0.0003559160291
0.0003439124204
0.0003249053614
0.0003371270436
0.0003302275468
0.0003329325648
0.0003318346199
0.0003103977375
0.0003372528534
0.0003245336921
0.0003578477397
0.0003927753708
0.0004297822443
0.0005889555325
-0.001577001999
-0.006035865756
-0.01197598631
-0.006382936888
0.001008049937
)


100
(
-0.0006238306234
-0.00204824062
-0.002349912255
-0.002797817369
-0.002954063449
-0.003751257931
-0.003707797603
-0.004149843394
-0.004264796298
-0.003979532594
-0.004282645709
-0.00407932214
-0.00358055465
-0.003748992847
-0.003671103936
-0.00312270945
-0.002832032721
-0.002992794436
-0.002800508325
-0.002352986057
-0.001987991909
-0.002090562698
-0.002128532916
-0.001760463268
-0.001523840047
-0.001344688724
-0.001422969365
-0.001480408942
-0.001268794869
-0.001130406515
-0.0008842760696
-0.0009041032961
-0.0009989809613
-0.0009417632232
-0.0007361887986
-0.0005531032348
-0.000453843618
-0.0005527613601
-0.0006052526801
-0.0005036575222
-0.000415179081
-0.0003706244219
-0.0002579607561
-0.0003137708377
-0.00040197312
-0.0003847929528
-0.0002392601469
-7.578904371e-05
1.356535057e-05
-0.0001239842953
-0.0001688727696
-3.85376583e-05
2.856895053e-05
0.0001018003979
0.0001620803275
0.0001186660619
2.270853626e-05
0.0001583940167
0.0003070346534
0.0003499756117
0.0002554600534
0.0002391036351
0.0003233412578
0.0003481858102
0.0003414842839
0.0003343210611
0.0003263778727
0.0003209621493
0.000341001275
0.000375901502
0.0003771980291
0.0003388366339
0.0003250647475
0.0003178116541
0.0003242864931
0.0003318457371
0.0003414346667