/*--------------------------------*- C++ -*----------------------------------*\
| =========                 |                                                 |
| \\      /  F ield         | OpenFOAM: The Open Source CFD Toolbox           |
|  \\    /   O peration     | Version:  2.3.1                                 |
|   \\  /    A nd           | Web:      www.OpenFOAM.org                      |
|    \\/     M anipulation  |                                                 |
\*---------------------------------------------------------------------------*/
FoamFile
{
    version     2.0;
    format      ascii;
    class       dictionary;
    location    "constant";
    object      PM35;
}
// * * * * * * * * * * * * * * * * * * * * * * * * * * * * * * * * * * * * * //

PM35_table
100
(

100
(
63.33036488
-14.12614341
-10.41861716
-7.016600627
-6.174922499
-5.600302177
-4.122333193
-4.124043409
-3.439493599
-3.12335735
-3.138107553
-2.468288221
-2.413726012
-2.273321776
-1.835504596
-1.765330754
-1.764354732
-1.346379661
-1.278224894
-1.299445367
-1.071083746
-0.9427740815
-0.9204067133
-0.8788582853
-0.7072554371
-0.6676232981
-0.6639112226
-0.6014524055
-0.4685458459
-0.433153262
-0.4281333136
-0.3680594233
-0.2939323879
-0.2685025162
-0.2626974203
-0.2384338318
-0.1634712543
-0.1260532979
-0.1130197014
-0.09339377595
-0.04562494786
-0.01746034134
-0.004830079365
0.01184655173
0.04705166782
0.06941569534
0.0814094853
0.08625834186
0.1114418419
0.1263499505
0.1357046288
0.1456744314
0.1645207548
0.176389018
0.1844807261
0.1979539135
0.215705241
0.2280003482
0.2363719901
0.2441596259
0.2555741006
0.2599425266
0.259994338
0.2671550359
0.2761098919
0.2744429796
0.2719207693
0.2811761539
0.2824796027
0.2786777159
0.2788797827
0.2841363628
0.2790475879
0.2750883988
0.2824111857
0.2823894212
0.2692283308
0.2740652682
0.2734774284
0.25818406
0.2642006447
0.2543149411
0.2470525159
0.2521330863
0.2315969628
0.2343915299
0.2253703049
0.2162309127
0.2151064937
0.2034767228
0.2013678102
0.1945215152
0.1935948037
0.1878768092
0.1884143308
0.1833335673
0.1841031625
0.1949773707
0.2287308699
0.270707673
)


100
(
74.20510802
-12.1037499
-9.089840388
-6.441000913
-6.268141061
-5.058884601
-4.414052525
-3.847136113
-3.496703792
-2.959135906
-2.922713571
-2.425089857
-2.285585678
-2.169588022
-1.826441746
-1.693952236
-1.642864681
-1.396127638
-1.242959853
-1.215858486
-1.081197413
-0.9550692334
-0.8875967487
-0.8407540043
-0.7406555395
-0.6698453832
-0.6365131626
-0.5864768386
-0.5065606912
-0.4489129398
-0.4157610576
-0.3706478465
-0.3210371689
-0.2843459661
-0.2608591942
-0.2357744266
-0.1888148881
-0.1539543161
-0.128083922
-0.1033357342
-0.06951268379
-0.04421666494
-0.02514383263
-0.005006791394
0.02148681026
0.04148376704
0.05672678485
0.06881589755
0.08971221097
0.1042789263
0.1146188925
0.1249417534
0.1399564583
0.1529077106
0.1624982035
0.1748517922
0.1880177028
0.2008585768
0.2104460316
0.2206075365
0.2295798043
0.2404848504
0.2475437177
0.2522711837
0.2577730887
0.2645237
0.2659110112
0.2662936728
0.272205287
0.2737111024
0.2723221849
0.2718703723
0.2754655923
0.2726266826
0.269770973
0.2765254081
0.2802830589
0.273012074
0.2738583208
0.2727724922
0.2674288329
0.2711798778
0.2611629863
0.2682189964
0.2642849715
0.256322164
0.2600462425
0.2530873402
0.2513763954
0.2506978639
0.2464822978
0.2434101951
0.2417551377
0.2409457432
0.2393333298
0.2389962276
0.2303845828
0.2119926895
0.2455890691
-2.295614866
)


100
(
46.22064845
-9.949449895
-7.559417821
-6.87908962
-6.135654612
-4.53785271
-4.595173632
-3.535330224
-3.467932831
-2.914391836
-2.698501319
-2.468565646
-2.135501706
-2.066545986
-1.883657492
-1.644366047
-1.553025547
-1.461273159
-1.283307007
-1.152149357
-1.101850065
-1.002829679
-0.8984722053
-0.8215268998
-0.7807465122
-0.7031285887
-0.639785978
-0.5909475602
-0.5587031199
-0.4962476578
-0.4422721029
-0.394665735
-0.3626941426
-0.3228697748
-0.2879183222
-0.2580621306
-0.2327009722
-0.2050887759
-0.1744364311
-0.1456372319
-0.1183672304
-0.09444698642
-0.07232012494
-0.05176123574
-0.03041876644
-0.0101446696
0.008052527146
0.02382100559
0.04180938153
0.05852457223
0.07178082535
0.08224256994
0.095813201
0.1097767026
0.1221562686
0.1328376529
0.1457875065
0.1565531496
0.1675904045
0.1789416403
0.1890034212
0.1975266883
0.2106466363
0.2209023249
0.2268068537
0.2337472263
0.2432827289
0.2447596745
0.2470968084
0.2536001629
0.2593337058
0.2597317664
0.2638317056
0.2696320917
0.2659203743
0.2639353861
0.2770853226
0.278692263
0.274965613
0.2865752409
0.2821729587
0.2866639211
0.2905549237
0.2842599647
0.3011717353
0.2956402378
0.3011909594
0.3093599978
0.3054652529
0.3147494673
0.3171516721
0.3221961013
0.3189358739
0.325801609
0.3266013867
0.3281128649
0.3025967702
0.242778803
-0.5950759439
-0.9826376653
)


100
(
14.5208769
-11.5819626
-8.312867935
-7.503926913
-5.396462867
-4.732809095
-4.235500453
-3.721851696
-3.275348496
-3.06068236
-2.570279106
-2.468429514
-2.213193172
-1.982040683
-1.907110669
-1.73167489
-1.538027095
-1.448410244
-1.373143232
-1.222578482
-1.097325884
-1.039809724
-0.9653386138
-0.8689586427
-0.7861949496
-0.7447868528
-0.689206004
-0.6282745583
-0.5749766372
-0.5413585982
-0.5018748956
-0.4493640861
-0.4010141795
-0.362049224
-0.3361578542
-0.3045477067
-0.272522397
-0.2410739326
-0.2240995199
-0.2038733872
-0.1760228597
-0.1457222216
-0.1209543233
-0.1058518294
-0.0856275305
-0.05853896731
-0.03304414755
-0.01913847262
-0.005974724239
0.01603218288
0.03789345689
0.05035903197
0.05903215937
0.07478606009
0.09233867627
0.1040206058
0.1134341843
0.1261119384
0.1389739426
0.1483785233
0.1581347202
0.1673217716
0.1747258542
0.1840001967
0.1956950846
0.2043164622
0.2125204046
0.2216372476
0.2276173775
0.232632216
0.2391776586
0.2477469771
0.2528657337
0.2577696278
0.2623563167
0.2623115949
0.2618933104
0.2711196027
0.275404993
0.2766241287
0.2859430452
0.2855481944
0.2920766342
0.2931207071
0.2976037309
0.3027842731
0.3067509647
0.3139723389
0.3168860045
0.31855232
0.3207201084
0.3253704375
0.3243992232
0.3208912731
0.3223333354
0.3157570839
0.2693793829
0.0008342605841
-2.11109038
-2.763299497
)


100
(
3.061721097
-13.24128349
-9.011775969
-6.552232314
-5.009881862
-5.071474009
-3.976158991
-3.950304489
-3.231320049
-3.054878863
-2.729370885
-2.413216144
-2.326256954
-2.058762718
-1.881012502
-1.810901076
-1.64775098
-1.474843197
-1.389175522
-1.333596416
-1.193427204
-1.074421231
-1.00867099
-0.9553187253
-0.8631994061
-0.7839814339
-0.733565572
-0.6979222523
-0.6419765651
-0.5900998441
-0.547715846
-0.525430301
-0.4815849374
-0.4317751665
-0.3830603015
-0.3633931563
-0.340783033
-0.3043383154
-0.2571430896
-0.2395224026
-0.2293864416
-0.207030465
-0.1663897978
-0.1376253833
-0.1260263034
-0.1131398021
-0.07637055851
-0.04466040249
-0.03273096206
-0.02451053342
0.001072468706
0.02679556653
0.03963039288
0.04714995172
0.06341189321
0.08177686572
0.09289633874
0.09978657928
0.1099347452
0.1209482789
0.1282451792
0.1351500412
0.1439618063
0.151851958
0.1600976446
0.1696666968
0.1783589342
0.1880084084
0.1981452982
0.2061983282
0.2121154491
0.2193615672
0.2279627457
0.2354071807
0.2407081742
0.2441667845
0.2477594905
0.2536302783
0.2580825716
0.2594177658
0.2632223853
0.2681469739
0.2712949269
0.2754382525
0.2782398945
0.2790186908
0.2837530817
0.2907095987
0.290573727
0.2906124608
0.2928779261
0.2926030443
0.294504088
0.2890363249
0.2823626187
0.2711795264
0.2191399396
-0.5504071208
-2.846294072
-2.82440185
)


100
(
6.642702375
-10.99599109
-7.834295683
-5.802204894
-5.382603914
-4.804137383
-4.145162266
-3.812260909
-3.485058057
-3.007008906
-2.925644426
-2.525275878
-2.317355059
-2.209405382
-1.969291364
-1.82355271
-1.760515402
-1.60977284
-1.451183457
-1.362614249
-1.31255595
-1.192011738
-1.077678594
-0.9984149871
-0.9574769463
-0.8753930439
-0.7998251842
-0.7568287317
-0.7357905736
-0.6886871417
-0.6257465859
-0.5699498949
-0.5504779036
-0.5254861481
-0.4639835177
-0.4045304068
-0.3858835741
-0.3762455411
-0.3255785684
-0.2677698397
-0.246678686
-0.239128868
-0.2163540774
-0.1712964869
-0.1430915051
-0.138251378
-0.1265271657
-0.08703262358
-0.05520741785
-0.04573490809
-0.03723155526
-0.01271453316
0.01113826286
0.02221482414
0.02838453841
0.04104750515
0.05635985716
0.06706168541
0.07437376198
0.08194405861
0.09004230369
0.09824821668
0.1071279433
0.1152460942
0.1236777203
0.1334823397
0.1426497342
0.1491744528
0.1568455916
0.1657093499
0.1733287373
0.1804443536
0.1888803811
0.1979771331
0.2091515145
0.2164233501
0.2176431248
0.2209140468
0.2251605401
0.2305543944
0.235235896
0.2358483978
0.2402259128
0.2429297173
0.2450188896
0.2464322898
0.2441407646
0.2508237358
0.2519424581
0.2458245717
0.2494754026
0.2486319262
0.2474449846
0.2420746378
0.2316562659
0.2181799856
0.1513763459
-1.209681974
-3.217759492
-2.959736311
)


100
(
15.32985361
-9.257134615
-6.872322024
-5.810846837
-5.78565774
-4.522239175
-4.469145177
-3.693878679
-3.655996164
-3.171308793
-2.913268325
-2.745763719
-2.392473894
-2.251400392
-2.128867226
-1.918967153
-1.791010789
-1.733283797
-1.599333059
-1.450097585
-1.35026002
-1.30123304
-1.201610357
-1.088641873
-0.9924258454
-0.9523703736
-0.893333494
-0.8218943682
-0.785519204
-0.765873102
-0.7328815898
-0.6397170918
-0.5813531683
-0.5626347854
-0.548734933
-0.4708377448
-0.4113570256
-0.3976888245
-0.3997200354
-0.3375266591
-0.2770611612
-0.2559487168
-0.2527272451
-0.2231410027
-0.1774995091
-0.1531887007
-0.1516049665
-0.1402779387
-0.1046312942
-0.07909951715
-0.07195682063
-0.06649459616
-0.0499332996
-0.03126357635
-0.01827963645
-0.00904034621
0.0005260318814
0.01126234415
0.02620027478
0.04088456141
0.05055685604
0.05759620391
0.06765944455
0.0788234358
0.08566309572
0.09063302029
0.09884205828
0.1067245388
0.1136724048
0.1223975699
0.1297237878
0.1364049852
0.146396911
0.1549250514
0.1579681125
0.1679731063
0.1737501779
0.1797532193
0.1844611296
0.1868330203
0.1933559739
0.1989755451
0.1986987785
0.2008302203
0.1983288708
0.2002275548
0.1972140853
0.1994864081
0.2051619041
0.1994816317
0.1927876378
0.1950622425
0.1889789704
0.1824401739
0.1721704593
0.1688926859
0.06538815532
-1.77594393
-3.444918258
-2.908933813
)


100
(
9.828362149
-8.329259831
-6.693701301
-6.256072864
-5.335537876
-4.637391114
-4.37134743
-3.904357936
-3.593376494
-3.434560231
-2.940569734
-2.806506674
-2.590416931
-2.292261064
-2.19199452
-2.068246122
-1.881033666
-1.761459394
-1.707567444
-1.588794481
-1.442851687
-1.32800547
-1.283484866
-1.211933966
-1.104283212
-1.002794642
-0.9475522719
-0.885079848
-0.8145355229
-0.7877645231
-0.7806652514
-0.7482884243
-0.6393178629
-0.5836179753
-0.5757976383
-0.5538998612
-0.4717040852
-0.4165685406
-0.4188597764
-0.4091126374
-0.3474815914
-0.2899570603
-0.2742594682
-0.265462891
-0.2359592256
-0.1964456213
-0.1818450179
-0.1817708486
-0.1776735417
-0.1533636249
-0.1356403109
-0.1224669099
-0.1139047314
-0.1042007895
-0.0885870829
-0.0673961118
-0.0473349364
-0.03448907753
-0.02418729993
-0.00954523213
0.006124129834
0.01576540183
0.02088411999
0.0265760034
0.03396009787
0.03985554113
0.05039589254
0.06281725661
0.06928437767
0.07745623712
0.08875162867
0.09419623558
0.09723891879
0.103231752
0.1069217053
0.1147021623
0.1241349737
0.1283135994
0.1368634229
0.1421066766
0.1409473645
0.1429331125
0.1447826469
0.1478127604
0.1465830155
0.1436235969
0.1443339508
0.1427003072
0.149789527
0.1488668084
0.1422628645
0.1395780912
0.1338697276
0.1252367525
0.1164128673
0.1273564806
-0.04336357197
-2.01666818
-3.582362614
-3.315794027
)


100
(
2.635483598
-8.86272928
-7.128540685
-6.102679505
-4.917618029
-4.926693224
-4.162002654
-4.152043371
-3.538678466
-3.437283453
-3.157204786
-2.782178872
-2.700523089
-2.464765375
-2.207993148
-2.130864788
-2.01342525
-1.841490526
-1.71248331
-1.662801956
-1.572176344
-1.436829184
-1.310659014
-1.271394221
-1.229791769
-1.124413585
-1.019996127
-0.9390018991
-0.867272489
-0.7999935936
-0.782904421
-0.8069755615
-0.7418792398
-0.633818903
-0.584261129
-0.5922226895
-0.5525117286
-0.4720514465
-0.4271476648
-0.4319845353
-0.4180022522
-0.3639018073
-0.3170454982
-0.3046826646
-0.3004700705
-0.2818844349
-0.257774898
-0.2423954645
-0.2330503293
-0.2273133367
-0.2144875029
-0.1927115528
-0.1663378179
-0.144364384
-0.1336106197
-0.1266037382
-0.1085117821
-0.08886070159
-0.07565885487
-0.06724361941
-0.05828298471
-0.04769341398
-0.03912626832
-0.02622056816
-0.01117869219
-0.003743708113
0.001681420275
0.01581106415
0.02773571637
0.03050033636
0.03267427714
0.03556294121
0.03981690544
0.05319466789
0.06104626102
0.06352961577
0.07287474046
0.07690961616
0.07625943767
0.07790289028
0.08183301502
0.08553273048
0.08727975184
0.08743298172
0.08994189589
0.08746189424
0.08972629092
0.0907051459
0.09126161847
0.09074856138
0.08695304431
0.08549132923
0.0811180705
0.07687963038
0.07082249733
0.09936403162
-0.1794815601
-2.087048408
-3.599141231
-3.389736268
)


100
(
-0.7481173877
-8.923774134
-6.908880914
-5.48513882
-4.984665059
-4.788820609
-4.199836766
-4.002492532
-3.728332676
-3.357407553
-3.291206117
-2.942548975
-2.684107422
-2.599474863
-2.360927707
-2.126055539
-2.058132065
-1.953340921
-1.798589875
-1.669124705
-1.629951968
-1.568864282
-1.439059441
-1.316269037
-1.256762056
-1.227506912
-1.142941958
-1.037364662
-0.9348160217
-0.8497957768
-0.786028444
-0.7902902083
-0.8100117898
-0.73270075
-0.6294418675
-0.5988928873
-0.5945887883
-0.5552322405
-0.4834280983
-0.4573119449
-0.4576110962
-0.4550146269
-0.4183888999
-0.3883534312
-0.3661936189
-0.3567464618
-0.3468171763
-0.3267334618
-0.2983130993
-0.2698034313
-0.2498754599
-0.243329685
-0.2303111224
-0.2062209085
-0.1821024593
-0.1688146606
-0.1619095993
-0.1573509816
-0.1477272769
-0.13642619
-0.1192465293
-0.1000777575
-0.09065913387
-0.08253094006
-0.06453000988
-0.04748452738
-0.04356342956
-0.04355113379
-0.04129892472
-0.0369367456
-0.02516552332
-0.01200796303
-0.01194114075
-0.004565358156
0.007407300528
0.009130297174
0.007992325501
0.0108500832
0.01621429225
0.020776554
0.02301113064
0.0250874025
0.0286459274
0.03143463447
0.03342475549
0.04009556858
0.03577435368
0.04232405351
0.04034977228
0.03947016308
0.03888933046
0.03789202089
0.03267237179
0.02723336787
0.02843277379
0.07718807813
-0.4074881885
-2.116892678
-3.51451996
-3.252201306
)


100
(
-0.4489560353
-7.81871845
-6.1682719
-5.073612714
-5.215738326
-4.47351321
-4.40494255
-3.831841625
-3.847017194
-3.438273502
-3.235862192
-3.143241842
-2.785640644
-2.587690016
-2.504643843
-2.273410626
-2.060299218
-2.003965518
-1.927888123
-1.78505455
-1.642863395
-1.605874688
-1.575160008
-1.448184873
-1.327841929
-1.245631989
-1.221011718
-1.167212401
-1.063615341
-0.9577087935
-0.8456581702
-0.7850315564
-0.8224055059
-0.8107420058
-0.733229465
-0.6413746477
-0.6226414368
-0.6147563447
-0.5901629922
-0.5458807509
-0.5241787604
-0.5186720058
-0.519251249
-0.4989573759
-0.4630821472
-0.42224702
-0.3897031814
-0.3774285173
-0.3695994522
-0.3430997895
-0.3113321332
-0.2858693767
-0.272855313
-0.267881141
-0.2606581262
-0.2462487886
-0.2315070454
-0.2120251375
-0.1959180116
-0.1905475425
-0.1817520199
-0.1587322335
-0.1361348021
-0.1282066519
-0.1284989855
-0.1238984278
-0.1162949501
-0.1060616773
-0.09377121735
-0.09447841785
-0.08962864365
-0.07105403968
-0.06236927667
-0.06398149782
-0.06269111023
-0.05733151085
-0.05193081589
-0.04739213938
-0.04357516278
-0.03892877609
-0.03420674389
-0.03115104379
-0.02655317868
-0.01856812351
-0.01817129331
-0.01206671304
-0.01346081189
-0.01445342055
-0.01226337938
-0.01178734908
-0.009486411875
-0.01109469028
-0.01405914919
-0.02104429343
-0.003067221639
0.05749551576
-0.7612396791
-2.191814717
-3.382037752
-3.274727545
)


100
(
2.563897071
-6.783023051
-5.512730881
-5.247471748
-4.989456201
-4.399969074
-4.337741423
-3.957085395
-3.741371103
-3.635595521
-3.23834329
-3.134379581
-2.983183056
-2.670960568
-2.512157747
-2.448814875
-2.239331051
-2.040325257
-1.98031559
-1.92866428
-1.78902061
-1.654941689
-1.596467269
-1.570497946
-1.473448512
-1.355908159
-1.255172446
-1.226064007
-1.199607967
-1.105693334
-0.9996978273
-0.8693658704
-0.8225329805
-0.8399713931
-0.8299157895
-0.7676536622
-0.7134956283
-0.6851196376
-0.6827539696
-0.6702758516
-0.6406045707
-0.601252209
-0.5649887442
-0.5482709494
-0.5422120818
-0.5152829455
-0.4718242671
-0.4312487125
-0.4080297538
-0.4000744713
-0.3926925676
-0.3739769554
-0.3547223799
-0.3355981881
-0.3170144594
-0.3102620521
-0.307489689
-0.288374606
-0.2575215203
-0.2318825821
-0.2235148417
-0.2250691402
-0.2197170334
-0.2083957147
-0.1974658629
-0.187303793
-0.1853683613
-0.17958264
-0.1547085343
-0.1371016494
-0.139870337
-0.1409846442
-0.1339384723
-0.1321858641
-0.1273649655
-0.1202768446
-0.1131614585
-0.1077519703
-0.1024219107
-0.0963580271
-0.0882829251
-0.08273010669
-0.07927579112
-0.07305142184
-0.06707150878
-0.06557731282
-0.06349463501
-0.06438730651
-0.06130036382
-0.06045029375
-0.06038857225
-0.06103851209
-0.06354325476
-0.06901764793
-0.02976185373
0.0372052137
-1.10540335
-2.267418065
-3.340911602
-3.23006969
)


100
(
2.218363416
-6.197134233
-5.525593436
-5.39913423
-4.615917235
-4.587489412
-4.15759922
-4.172473167
-3.690446598
-3.644442776
-3.44198371
-3.106081177
-3.049954887
-2.880051218
-2.608092244
-2.48036773
-2.432863013
-2.23827931
-2.047854605
-1.975602589
-1.953888297
-1.814382145
-1.684000587
-1.602912453
-1.580114435
-1.517223755
-1.40268709
-1.304027236
-1.244139473
-1.220970138
-1.164110077
-1.064703751
-0.93376658
-0.8969801398
-0.9034606413
-0.9086468391
-0.8717652045
-0.8276558175
-0.7727759161
-0.7389160022
-0.7289268183
-0.7051222026
-0.6596528182
-0.6128145597
-0.5776718651
-0.5679737888
-0.5590258273
-0.5297973438
-0.494995344
-0.4735114857
-0.4565667038
-0.4505821129
-0.4500154849
-0.4364160466
-0.4038229307
-0.3668274332
-0.3435284371
-0.3453209464
-0.3409035533
-0.3223769486
-0.3068202874
-0.2967593627
-0.2937071356
-0.29773404
-0.2904291615
-0.2601486475
-0.233433901
-0.2298350242
-0.2301824354
-0.2143180829
-0.2084216389
-0.20532542
-0.1990842565
-0.193926501
-0.1891806744
-0.1835499025
-0.1751631892
-0.1683743733
-0.1608283935
-0.1519191723
-0.1445943471
-0.1390760666
-0.1331076344
-0.128592349
-0.1232741436
-0.1199398885
-0.1107259187
-0.1137405934
-0.1103255223
-0.1129070334
-0.1135583727
-0.1154532371
-0.1186027813
-0.1178601828
-0.05695424349
-0.0243495072
-1.233671402
-2.470386959
-3.131673382
-3.020435621
)


100
(
-0.02149224177
-6.143537286
-5.611043616
-4.935025818
-4.505996219
-4.572699711
-4.13239419
-4.07518079
-3.887425204
-3.585134022
-3.567037235
-3.297250957
-3.052887705
-2.996452607
-2.82664437
-2.574460883
-2.460019008
-2.425053067
-2.248296313
-2.070079708
-1.982061515
-1.961418052
-1.849642616
-1.723373647
-1.615652235
-1.595824931
-1.565749903
-1.46126875
-1.365444134
-1.288144821
-1.25496287
-1.228764343
-1.155465741
-1.07218563
-1.030703212
-0.995964803
-0.9825679917
-0.9639907769
-0.9062027111
-0.8402522203
-0.7829497486
-0.7604826758
-0.7537394114
-0.7162018507
-0.6704197607
-0.633555641
-0.6117443927
-0.6049438341
-0.6028956045
-0.5879494963
-0.5652162977
-0.5285009401
-0.496604331
-0.4922381768
-0.4954152689
-0.4662623287
-0.4305606955
-0.4094219743
-0.4070723644
-0.4152051982
-0.4224760394
-0.4094099752
-0.3748092442
-0.345700821
-0.3458534692
-0.3421101236
-0.316520099
-0.3002587126
-0.2965992374
-0.2936436455
-0.285584201
-0.2740589937
-0.2624720816
-0.25507099
-0.2494585975
-0.2438807304
-0.2348698272
-0.225886039
-0.2202829859
-0.2144718447
-0.2061713039
-0.2006025548
-0.1922301817
-0.1860361314
-0.1798807473
-0.1747411881
-0.1676020596
-0.165637407
-0.1652965053
-0.1674585241
-0.1716080096
-0.1743224212
-0.1774620243
-0.1696428723
-0.08467282977
-0.1298888036
-1.300948052
-2.47337963
-3.201162534
-3.205041753
)


100
(
-1.371632735
-5.81771369
-5.149312168
-4.500502072
-4.61543187
-4.293254563
-4.272974299
-3.919866306
-3.99499594
-3.683833776
-3.511672193
-3.488625159
-3.193891577
-2.996987419
-2.948992831
-2.784070768
-2.5504243
-2.434015124
-2.411428934
-2.260233313
-2.092159915
-1.981666949
-1.963072642
-1.883617844
-1.763318366
-1.662074844
-1.60923493
-1.585006716
-1.527623209
-1.436396833
-1.363391626
-1.297477574
-1.27922477
-1.258602984
-1.192214616
-1.123515788
-1.051636341
-1.013397084
-1.003333137
-0.9674952557
-0.8998630481
-0.8382753678
-0.7972503729
-0.7841812818
-0.7730089035
-0.7454704972
-0.7193564031
-0.6970592496
-0.6668440866
-0.6564155211
-0.6543400852
-0.6314028662
-0.5879615915
-0.5489632372
-0.535699201
-0.5422331256
-0.5453433019
-0.5276783619
-0.5156052651
-0.492609487
-0.4790466049
-0.4821331502
-0.46686715
-0.4263495267
-0.3979324394
-0.3945187791
-0.3951022755
-0.3895691722
-0.3786759637
-0.3672965802
-0.3570341551
-0.3462341411
-0.3338198218
-0.3229739317
-0.3136487694
-0.3058423274
-0.2992453216
-0.2916986811
-0.2852685888
-0.2795683406
-0.2671829703
-0.2578897663
-0.2560478316
-0.2520383606
-0.2437214712
-0.2304284706
-0.2273200763
-0.2264100091
-0.2268625659
-0.2272124807
-0.2269179224
-0.2262723704
-0.2351734552
-0.2208541151
-0.1185180226
-0.2262675799
-1.228572494
-2.299974575
-2.956256182
-2.709639498
)


100
(
-0.8785734343
-5.166877079
-4.613247655
-4.372249201
-4.498444103
-4.098204168
-4.199217307
-3.953063232
-3.853173739
-3.833938787
-3.507541966
-3.419932917
-3.358488087
-3.095840278
-2.931988895
-2.897877662
-2.744526044
-2.527618068
-2.405676167
-2.388835821
-2.269156596
-2.109860114
-1.973996907
-1.957003309
-1.924345544
-1.802545344
-1.706746922
-1.622809365
-1.605107764
-1.587100156
-1.515605025
-1.441394644
-1.358395574
-1.307349372
-1.290740869
-1.263670403
-1.186476863
-1.107179691
-1.038180719
-1.020215543
-1.007225031
-0.9603979496
-0.903702706
-0.8677331654
-0.8410168638
-0.8324976935
-0.8313277617
-0.8113499013
-0.7744574253
-0.7276463057
-0.6909079989
-0.6928059125
-0.6902881907
-0.6550046976
-0.6243465424
-0.6183152359
-0.6147713357
-0.6223813661
-0.6218799411
-0.588610095
-0.5429232335
-0.5120484471
-0.5183733902
-0.5155478202
-0.4905644519
-0.4791092734
-0.4712711315
-0.4625134988
-0.4520996785
-0.4398215552
-0.4284141359
-0.4179971923
-0.4098655947
-0.3970055051
-0.3839082165
-0.3721376673
-0.3637020372
-0.3573996961
-0.3469932974
-0.3380257985
-0.3361013918
-0.3274604057
-0.3263329706
-0.3110177505
-0.3012531487
-0.2987085982
-0.2936043954
-0.2904966073
-0.2863322549
-0.2887803992
-0.2918968763
-0.2883651909
-0.2946897425
-0.2793630356
-0.1730670584
-0.2644198153
-1.058142254
-2.071419336
-2.765071978
-2.615450772
)


100
(
0.4315039035
-4.518760529
-4.234327823
-4.357125848
-4.12585402
-4.134120844
-3.960591687
-4.034317976
-3.727944615
-3.744153943
-3.638190653
-3.349758665
-3.322372587
-3.246699132
-3.006013075
-2.86243577
-2.839942626
-2.702814376
-2.508162682
-2.373575924
-2.36032446
-2.277337499
-2.127514341
-2.007650693
-1.948856615
-1.924319882
-1.846628187
-1.760053669
-1.689574237
-1.630603156
-1.613471058
-1.587565163
-1.501906122
-1.408838305
-1.319957091
-1.301400931
-1.298316935
-1.239555649
-1.160101789
-1.092440671
-1.045340514
-1.034547006
-1.030031223
-1.001817447
-0.973605235
-0.9306169616
-0.8815528472
-0.872774981
-0.8792498414
-0.8406715252
-0.7918942126
-0.753184787
-0.7402308576
-0.7457924641
-0.7490460722
-0.7340216339
-0.7091841891
-0.6710359645
-0.6576272308
-0.6626080494
-0.6331997749
-0.5908036406
-0.571788768
-0.5703962747
-0.5691377387
-0.5650396884
-0.5536530213
-0.5386127045
-0.5265113915
-0.5151204666
-0.502069256
-0.4884242335
-0.4751378885
-0.4622540426
-0.4502787557
-0.4398958584
-0.4366623177
-0.4296261431
-0.4194670119
-0.40523883
-0.3984885509
-0.3888395229
-0.3857435429
-0.3818788447
-0.3694251134
-0.3651865188
-0.3590316292
-0.3550592011
-0.3518896323
-0.3489463558
-0.3570837328
-0.362355976
-0.3598893062
-0.330354925
-0.1783371476
-0.274209439
-0.9168658619
-1.996316848
-2.726027372
-2.650608835
)


100
(
0.139480928
-4.177575421
-4.117597387
-4.081339153
-3.837623049
-4.067769604
-3.809586049
-3.863404296
-3.796383263
-3.598142466
-3.635398002
-3.4875459
-3.245591835
-3.237053939
-3.15686685
-2.937270165
-2.796046281
-2.785778185
-2.67639431
-2.499156595
-2.345741653
-2.334824495
-2.305578636
-2.154850586
-2.043576349
-1.949311697
-1.933833004
-1.920983288
-1.832131949
-1.75477985
-1.652423335
-1.621821932
-1.609561581
-1.55150532
-1.453674455
-1.364676954
-1.307154753
-1.307406559
-1.290066524
-1.22631399
-1.167592657
-1.132719085
-1.09696052
-1.098286686
-1.098031503
-1.069167438
-1.009459063
-0.9492672301
-0.913162557
-0.9216989568
-0.9136152675
-0.8729843132
-0.8516086958
-0.8339232007
-0.8194673351
-0.814630351
-0.8123906315
-0.7656071453
-0.7163363074
-0.6920217456
-0.6939531981
-0.6894492689
-0.6646653235
-0.6532621785
-0.6414228968
-0.6309285385
-0.619872016
-0.6058536325
-0.5915116415
-0.578794941
-0.5717387844
-0.5660949585
-0.552237402
-0.538366353
-0.5260548009
-0.5134973579
-0.4990736481
-0.4847166716
-0.48057344
-0.4817270212
-0.4741511358
-0.4600898511
-0.4414168543
-0.4394367407
-0.4406113976
-0.4416405986
-0.4334131104
-0.4243375086
-0.4192219152
-0.4168066594
-0.4177898417
-0.4268313499
-0.4266595765
-0.3896168154
-0.2088675997
-0.4731112647
-0.7849466095
-1.945220012
-2.623743739
-2.499929537
)


100
(
-0.7237473081
-3.9501194
-3.899006419
-3.688438494
-3.792061591
-3.782131252
-3.819311315
-3.657171399
-3.784376208
-3.627255827
-3.523218113
-3.561131137
-3.368778959
-3.169180272
-3.167139084
-3.089236338
-2.889197345
-2.747202036
-2.741820616
-2.664645822
-2.500371724
-2.372674271
-2.31874835
-2.295240695
-2.198353717
-2.099931609
-2.019775161
-1.961907659
-1.942838454
-1.894967146
-1.807208261
-1.704694126
-1.621451804
-1.61188266
-1.599627667
-1.502238221
-1.41577415
-1.356239212
-1.329544056
-1.324361266
-1.326647094
-1.28652394
-1.244402109
-1.181149806
-1.141666964
-1.14735279
-1.1556884
-1.089536437
-1.027745037
-0.9892023816
-0.9764182844
-0.9890250394
-0.9957284754
-0.9722855986
-0.9180829304
-0.86208761
-0.856194932
-0.8581488805
-0.8188189075
-0.7774441748
-0.763251122
-0.7571560118
-0.7483117449
-0.735359898
-0.7236851049
-0.7070604597
-0.694917063
-0.6823246717
-0.6665271645
-0.6518242845
-0.6388731513
-0.6271570474
-0.6161207197
-0.6058232028
-0.5973221921
-0.5930212631
-0.5770443199
-0.5593807922
-0.5514412146
-0.5477142947
-0.5320278014
-0.5268548673
-0.515702838
-0.5082337834
-0.5058268206
-0.5036495858
-0.5016674062
-0.4978850746
-0.4925846656
-0.4911988122
-0.4904925193
-0.4944580092
-0.4966929845
-0.4492584542
-0.1999453938
-0.8356030188
-0.5945890782
-1.944984312
-2.569452163
-2.481411654
)


100
(
-1.324661522
-3.575441719
-3.491160258
-3.412502032
-3.704532945
-3.512927791
-3.70724673
-3.608577051
-3.605751844
-3.683265367
-3.492889661
-3.436756316
-3.469725392
-3.264120605
-3.094126441
-3.102618522
-3.032197225
-2.858086855
-2.704195504
-2.699831184
-2.682036688
-2.520973298
-2.404615355
-2.314775984
-2.301148935
-2.283480481
-2.181168095
-2.086387922
-1.971274072
-1.947755413
-1.949323706
-1.85463491
-1.750238059
-1.652173517
-1.614237648
-1.606142315
-1.569471274
-1.487323271
-1.442992878
-1.410487763
-1.394610429
-1.391549026
-1.390436195
-1.330493288
-1.258519047
-1.193588164
-1.189835009
-1.197132286
-1.179588416
-1.128431713
-1.110354958
-1.078899272
-1.062272312
-1.065551263
-1.047698151
-0.9809428205
-0.919269123
-0.9012421271
-0.9012113691
-0.8959415695
-0.8735971584
-0.8559334101
-0.8397940228
-0.8252274453
-0.8095639626
-0.791224853
-0.7716781735
-0.7536772939
-0.7388230175
-0.7320711622
-0.7200066663
-0.7067733635
-0.6953167133
-0.6855985718
-0.673760862
-0.6582621011
-0.6436687574
-0.6334732307
-0.6340657219
-0.6294732117
-0.6120595035
-0.5970000445
-0.5899241961
-0.5905655138
-0.589349296
-0.5802619513
-0.5755308003
-0.5736036756
-0.5712983969
-0.5674408376
-0.5712861011
-0.5722146104
-0.5750501874
-0.5129599794
-0.2149174372
-1.142512868
-0.3732287179
-1.921358306
-2.555359623
-2.538264633
)


100
(
-0.4962153661
-3.162550307
-3.125785157
-3.291511402
-3.388100384
-3.451926387
-3.479117355
-3.60048246
-3.468063273
-3.535426215
-3.548038597
-3.368407527
-3.348972954
-3.368244079
-3.184622784
-3.022868386
-3.04173255
-2.992286665
-2.837194344
-2.712464792
-2.677024314
-2.660603546
-2.552575976
-2.451524742
-2.365368246
-2.328300761
-2.30979749
-2.240887822
-2.139021687
-2.020787268
-1.94729995
-1.94714078
-1.907539357
-1.799399917
-1.709445086
-1.643977731
-1.627335722
-1.625083499
-1.604972767
-1.570461632
-1.518184986
-1.446975441
-1.430402035
-1.442726382
-1.410369847
-1.336492578
-1.275388322
-1.247677694
-1.254653807
-1.270718384
-1.265548647
-1.221331206
-1.150189252
-1.095138519
-1.110794559
-1.106544931
-1.049273957
-1.007517307
-0.9919968477
-0.9819532404
-0.9668576132
-0.9478683871
-0.9359685195
-0.923661155
-0.9086704207
-0.8910661313
-0.8691165454
-0.8504123538
-0.8325021589
-0.8158499991
-0.8009793332
-0.7883619488
-0.7715595833
-0.7664745986
-0.7614214184
-0.7458750026
-0.7318821953
-0.7232794983
-0.7046497361
-0.688929872
-0.6937374837
-0.6850062547
-0.6786727635
-0.6761367512
-0.6713852903
-0.6688762962
-0.6649175738
-0.6602317676
-0.6571304537
-0.6537932284
-0.6565512057
-0.6606008687
-0.6628429506
-0.5985533612
-0.1976458066
-1.332110289
-0.1637454325
-1.902295651
-2.594274912
-2.586243023
)


100
(
0.1214676731
-2.828145717
-2.934150416
-3.120920302
-3.102873488
-3.36712488
-3.277808701
-3.412670137
-3.456741098
-3.359136027
-3.456773639
-3.432179257
-3.267683165
-3.273530965
-3.282966033
-3.11936973
-2.969295009
-2.983463065
-2.980139062
-2.833076701
-2.724315494
-2.652546326
-2.646398032
-2.61366348
-2.521432423
-2.428393694
-2.327112316
-2.310151788
-2.303789839
-2.182065606
-2.064944682
-1.954929669
-1.941852926
-1.932539502
-1.862898899
-1.782720695
-1.738950337
-1.69045269
-1.698254283
-1.700080196
-1.672506195
-1.606576001
-1.53180536
-1.466941807
-1.479345885
-1.474707319
-1.42340298
-1.386612115
-1.378803762
-1.3351752
-1.327644918
-1.334531714
-1.282127809
-1.207548306
-1.150788784
-1.151384762
-1.153260637
-1.14518898
-1.121058679
-1.096533374