/*--------------------------------*- C++ -*----------------------------------*\
| =========                 |                                                 |
| \\      /  F ield         | OpenFOAM: The Open Source CFD Toolbox           |
|  \\    /   O peration     | Version:  2.3.1                                 |
|   \\  /    A nd           | Web:      www.OpenFOAM.org                      |
|    \\/     M anipulation  |                                                 |
\*---------------------------------------------------------------------------*/
FoamFile
{
    version     2.0;
    format      ascii;
    class       dictionary;
    location    "constant";
    object      PM36;
}
// * * * * * * * * * * * * * * * * * * * * * * * * * * * * * * * * * * * * * //

PM36_table
100
(

100
(
7.181858525
-1.804850222
-1.695110028
-1.231873644
-1.208911673
-1.189666123
-0.8132623239
-0.9288257068
-0.7438222784
-0.7030955614
-0.7751956445
-0.5410498254
-0.5772034007
-0.5569107801
-0.404707632
-0.4207493433
-0.4538990169
-0.2831348548
-0.2917795388
-0.3295454103
-0.2370726951
-0.2006971873
-0.2157716053
-0.2136664103
-0.13886738
-0.1440855191
-0.1589782128
-0.1422393853
-0.08644176273
-0.08800819449
-0.09752591748
-0.08012876759
-0.05335111405
-0.05426052266
-0.05920029995
-0.05491664936
-0.02941928255
-0.0206595791
-0.02107406506
-0.01805226828
-0.007083132863
-0.002298224752
-0.0007423572512
0.001925775584
0.006506663926
0.008085276791
0.0112468754
0.01392898066
0.01361298156
0.01001104901
0.009738559475
0.01258202764
0.009961382261
0.005816569799
0.005144146928
0.007275018249
0.005754944299
0.003775881225
0.00534151362
0.007207378275
0.004068212672
-0.008268933672
-0.01038621593
-0.006668210877
-0.01070732342
-0.02638302764
-0.0279032395
-0.02527064288
-0.03755637647
-0.0493347033
-0.05009838606
-0.05287705985
-0.07190747958
-0.07492291691
-0.07523350737
-0.08506603204
-0.1003843753
-0.1017418409
-0.1092268857
-0.1255465953
-0.1264927022
-0.1390303325
-0.147506217
-0.1489137777
-0.1672298426
-0.1684955361
-0.1760102351
-0.1839183051
-0.186757055
-0.193766925
-0.1956802566
-0.2000993843
-0.2013573636
-0.2024980105
-0.2016487907
-0.2001304535
-0.1962670648
-0.1836658444
-0.02479523879
0.1941788472
)


100
(
8.304301944
-1.485995728
-1.415343947
-1.083366568
-1.232658317
-1.003903461
-0.9118286726
-0.8062820327
-0.7554366321
-0.6076667543
-0.6586551856
-0.4964894813
-0.4847752613
-0.4805801344
-0.3684904637
-0.3461533589
-0.3576205904
-0.2798525112
-0.2316578592
-0.2475268191
-0.2117815473
-0.1728959694
-0.1590658937
-0.1575571903
-0.1305575513
-0.1105629839
-0.1088515584
-0.1016111826
-0.08117998773
-0.06614991468
-0.06057374294
-0.05409134588
-0.04483939514
-0.03795956375
-0.03458672753
-0.032869455
-0.02339691605
-0.01710361693
-0.01230919552
-0.009258697011
-0.005492033475
-0.003117250037
-0.001549642835
-0.0002329097744
0.0009191324339
0.001686624746
0.002217484596
0.002457610186
0.001414483942
0.0005294345626
-0.0005968392989
-0.002475330379
-0.007343440028
-0.008969902691
-0.009976036826
-0.01220942334
-0.01903881979
-0.01935747272
-0.01904724492
-0.02050844449
-0.02805701788
-0.02846802076
-0.03536787853
-0.04226185638
-0.04342399134
-0.04518486942
-0.05482764543
-0.06452352004
-0.06334844437
-0.07074392643
-0.08218668541
-0.08938859965
-0.09197347656
-0.1027535189
-0.1118721796
-0.112859451
-0.1197250662
-0.1297497594
-0.1355990064
-0.143458946
-0.1497445084
-0.1542334071
-0.1652528156
-0.1660097001
-0.1720334612
-0.1821365384
-0.1839036008
-0.1903847043
-0.1960033791
-0.1998041698
-0.2034000869
-0.2059794426
-0.2098872076
-0.2114619949
-0.2139435778
-0.2156716929
-0.2199010822
-0.2687208093
-0.1669277044
-5.338153823
)


100
(
5.027980023
-1.166265024
-1.09810152
-1.197373949
-1.179858166
-0.8072236366
-0.9457001116
-0.6444929979
-0.7007000398
-0.5405324176
-0.5075803177
-0.4650099856
-0.3498055939
-0.3666604322
-0.3297157317
-0.2496649175
-0.240222696
-0.2382238536
-0.1819886583
-0.1391215192
-0.1488766726
-0.1274671461
-0.09633958334
-0.07622157107
-0.08412230448
-0.06343134979
-0.04714302971
-0.0373812828
-0.04396443894
-0.02949567685
-0.01793101188
-0.008270819078
-0.0110231605
-0.005725746505
-0.001688850319
0.001478295048
0.0007792602289
0.001058506483
0.004228942524
0.006342016545
0.007248171793
0.006507586379
0.005788194152
0.004774845644
0.003141814767
0.001225593535
-0.001010651961
-0.003098178063
-0.005640027701
-0.009494336458
-0.01146283844
-0.01404925293
-0.01777706188
-0.02463225798
-0.02821252244
-0.03080751544
-0.03591409533
-0.04714823906
-0.0518547092
-0.05374997762
-0.06172139812
-0.06798830261
-0.07029775172
-0.08237034389
-0.09274544074
-0.09114271
-0.09377407437
-0.1085570243
-0.1149408341
-0.1157385086
-0.122288571
-0.1327949308
-0.1332467877
-0.1409604664
-0.1526741573
-0.1557807219
-0.1583605469
-0.1675883809
-0.1725087642
-0.1796783675
-0.1849466946
-0.1877365383
-0.1969690997
-0.2024584496
-0.2030050655
-0.2114989796
-0.2171699793
-0.2176778487
-0.222503115
-0.225673527
-0.2319490758
-0.2329401493
-0.2354449605
-0.2406092584
-0.2452095052
-0.2510586962
-0.2955558364
-0.4360088539
-2.096933579
-3.042151608
)


100
(
1.538357521
-1.426450205
-1.274764014
-1.366933142
-0.953097119
-0.8628805038
-0.7923346176
-0.6891938338
-0.5853429643
-0.5683189132
-0.4075377673
-0.4208956848
-0.348756911
-0.2727745807
-0.2849561377
-0.24163285
-0.1759586671
-0.1667168879
-0.1682172001
-0.1207322921
-0.08190300976
-0.08440413784
-0.07439896898
-0.04701122317
-0.02390539474
-0.02825258028
-0.02000791253
-0.005814144078
0.006102431879
0.003721918803
0.004877074878
0.01443084017
0.02194486945
0.02559561129
0.02159747077
0.02349216291
0.02464627139
0.02786563398
0.02271195481
0.02139915721
0.02187556819
0.02176007424
0.02096568168
0.01702898127
0.01463276033
0.01151604746
0.008307492568
0.004515557584
0.001355343793
-0.00403080774
-0.01168309681
-0.01511431203
-0.01640005075
-0.02314704213
-0.03414803669
-0.03947870164
-0.03862982153
-0.04877912633
-0.06391029989
-0.07147051824
-0.07210285372
-0.08345009871
-0.09059516588
-0.09459596335
-0.1043922024
-0.1146450264
-0.1173318079
-0.1216490832
-0.1315103725
-0.1373884678
-0.1418737442
-0.1473032301
-0.153986042
-0.1553983611
-0.1623015067
-0.1700983591
-0.174761923
-0.1828831884
-0.1844274963
-0.1930527075
-0.2030170301
-0.2040556157
-0.2090879108
-0.2148031245
-0.2187411559
-0.2221078747
-0.2317861292
-0.2379344522
-0.2379896899
-0.2399327428
-0.2418794395
-0.2510483429
-0.2486714024
-0.2524097911
-0.2581770128
-0.2650300378
-0.3613718562
-0.8356807601
-4.586263986
-5.387684724
)


100
(
0.3205482023
-1.689972848
-1.445122678
-1.127462699
-0.8371146037
-0.9748445491
-0.6833003987
-0.7585429683
-0.5430606551
-0.535755003
-0.4520955476
-0.3588293414
-0.3735653137
-0.2809300775
-0.2276795884
-0.2375444097
-0.1930389248
-0.1348802979
-0.1240011257
-0.1321435771
-0.08817858483
-0.05212184333
-0.0461531232
-0.04732053464
-0.0217203779
-0.0004180521029
0.005319165448
0.002393927719
0.01456263445
0.02457372203
0.03107992707
0.02340675848
0.02874026128
0.03519133239
0.04593610016
0.03912761717
0.03590934924
0.03616811855
0.04604988961
0.04024429749
0.0353303186
0.03203419055
0.03480951639
0.03317653589
0.02867030543
0.0227087556
0.0201130524
0.01519519393
0.01052190531
0.006882322646
-0.0003565881287
-0.01073390642
-0.01589701399
-0.01743474864
-0.02581292858
-0.03857134381
-0.04446974476
-0.04431863498
-0.05172436948
-0.06364539687
-0.07014553264
-0.07254097173
-0.08034968547
-0.08718614153
-0.09390515446
-0.1024312528
-0.1094420134
-0.1152324211
-0.1228404605
-0.1284118756
-0.1351169674
-0.1416995196
-0.1499141563
-0.1531389011
-0.1568148019
-0.1638668976
-0.1666246555
-0.1750984515
-0.1813430651
-0.1823757791
-0.1882610491
-0.1951167797
-0.2018073881
-0.2051743486
-0.208067302
-0.2094227603
-0.2135808423
-0.2208313834
-0.2259341782
-0.2256615468
-0.225907021
-0.2305472649
-0.2344416558
-0.2323622514
-0.2335010156
-0.2486368031
-0.3949670169
-1.603321475
-5.226811297
-4.813987282
)


100
(
0.6992561832
-1.357606656
-1.209327791
-0.9436033024
-0.9573203669
-0.8874879895
-0.7454814626
-0.6958830656
-0.6352897391
-0.4948887611
-0.5227231693
-0.3913803275
-0.3419378477
-0.3389275468
-0.2515331513
-0.21075158
-0.2204609529
-0.1781552148
-0.1245453714
-0.1086601446
-0.1176244154
-0.08300502461
-0.0483826657
-0.03113467095
-0.03816274621
-0.01612563454
0.006065245756
0.01115218952
0.002412527783
0.008980638474
0.0242632769
0.03909639914
0.03152179573
0.02568969731
0.03854300264
0.05439607675
0.04804560391
0.0360390259
0.04302775671
0.05452316751
0.04881703088
0.04222461433
0.03820667213
0.04158203976
0.03950998771
0.03338975569
0.02779048672
0.02531582656
0.0203718445
0.01537407068
0.01162780069
0.004585891243
-0.00468223011
-0.009437057088
-0.01138685437
-0.01741942349
-0.02606111173
-0.03115146246
-0.03402332055
-0.03736771031
-0.04274871274
-0.04875182252
-0.05532727904
-0.06171337133
-0.06710823551
-0.07454912179
-0.08265394389
-0.08715479504
-0.09424416409
-0.1007359522
-0.1066442652
-0.1127557809
-0.1211428411
-0.1287972314
-0.1347014655
-0.1410285078
-0.1415967701
-0.1428293999
-0.1486791181
-0.1543560726
-0.158693497
-0.1574889512
-0.1650835743
-0.1711797962
-0.1730981192
-0.1763749855
-0.1770513957
-0.1805124498
-0.1840045955
-0.1836727258
-0.1865277965
-0.1851925394
-0.1891278155
-0.1861946044
-0.1842216455
-0.2201874719
-0.4339364794
-2.469664693
-5.411264235
-4.753148774
)


100
(
1.637253853
-1.104544741
-1.01734583
-0.9632795712
-1.095333314
-0.7997920445
-0.8738229223
-0.6452364769
-0.699465177
-0.5564758035
-0.5016893122
-0.4841683889
-0.3620195136
-0.3405146995
-0.323653569
-0.2457167875
-0.2105629014
-0.2206242952
-0.1839433775
-0.1330250897
-0.1074025025
-0.1141190791
-0.08839274939
-0.05192239208
-0.02083956931
-0.02807345978
-0.0198264084
0.002139210371
0.005011580212
-0.002201762034
-0.007741863767
0.0268813941
0.04030838373
0.03307155473
0.01702095307
0.04220965058
0.0573040217
0.05018298167
0.02992034181
0.04489432958
0.05669676386
0.05150795988
0.04047609986
0.04046940243
0.04414573605
0.04200678712
0.03544954558
0.03078278488
0.03003506887
0.02667122606
0.02318605068
0.02010943984
0.0162644536
0.01111224964
0.006831020914
0.003474791578
-0.0002022145214
-0.004329686272
-0.01050379162
-0.01702557319
-0.02131488221
-0.02384865029
-0.0289534225
-0.0356769138
-0.04055515582
-0.04363608251
-0.04911111956
-0.05378174347
-0.05839271259
-0.06566993506
-0.07172597038
-0.07592948397
-0.08303733468
-0.09051834825
-0.09335813794
-0.0989471965
-0.102996605
-0.1070105054
-0.1115711832
-0.1116521888
-0.1190920133
-0.1242570681
-0.1223573499
-0.1255674569
-0.1255017338
-0.1293251033
-0.1289594216
-0.1317780038
-0.1343755064
-0.1340771314
-0.1328819447
-0.1347335094
-0.1315744178
-0.1283757912
-0.1258031968
-0.1796543342
-0.5156627173
-3.168081561
-5.559165677
-4.331396343
)


100
(
1.0391814
-0.9774141313
-0.9970260868
-1.102211145
-0.9731412623
-0.8501718111
-0.8433388008
-0.7336178637
-0.6678447206
-0.6646922591
-0.5003217671
-0.4966410464
-0.4468534728
-0.3411940428
-0.3369930774
-0.3138032317
-0.2430813175
-0.2080171047
-0.2162373009
-0.1839981781
-0.1308262733
-0.09154873553
-0.09873561863
-0.08842493987
-0.05509958074
-0.02185011018
-0.02113992117
-0.01270657171
0.009184110907
0.008772479489
-0.004584707577
-0.01189213367
0.03370865684
0.04496209885
0.02988842192
0.01902832405
0.04744402234
0.06181166316
0.04486182123
0.03318094836
0.04784719362
0.0600704288
0.05154144932
0.04469652785
0.04500592406
0.0493223672
0.04673293255
0.04231029454
0.03810956938
0.03911445416
0.03663038404
0.03525895115
0.03275639718
0.02941593351
0.02586571142
0.02153140962
0.0165261284
0.01248483634
0.008684904737
0.003510447835
-0.002344263572
-0.006215964688
-0.008316928451
-0.01056638591
-0.01380267486
-0.01659219324
-0.02217796141
-0.02907577091
-0.03188976942
-0.03579703899
-0.04274921554
-0.04742507988
-0.05006997979
-0.05377402822
-0.05608333571
-0.06229498616
-0.06888972636
-0.07019122197
-0.07723036925
-0.08144720522
-0.08005092826
-0.08240384694
-0.08311187955
-0.08662372328
-0.08606092675
-0.08492074745
-0.08667014832
-0.08763119334
-0.09245847385
-0.09215775691
-0.08979764291
-0.08919024094
-0.08756631863
-0.08279746467
-0.07890349219
-0.1435698465
-0.6408253932
-3.449318074
-5.57773922
-5.019958609
)


100
(
0.2734911201
-1.085085556
-1.112675154
-1.079740726
-0.8580433095
-0.9622930518
-0.7691035582
-0.8397440316
-0.6392871715
-0.654825454
-0.5877411419
-0.4639420655
-0.4809677468
-0.4117244272
-0.318676125
-0.3232625651
-0.2970318954
-0.2266667607
-0.1800548167
-0.1870097668
-0.1690929965
-0.1220172781
-0.07359606433
-0.08319949161
-0.09164233738
-0.05808070661
-0.02428875997
-0.007866949891
0.003769460702
0.02438734068
0.02171617408
-0.01361374933
0.003140675039
0.04735584438
0.05643746585
0.02757136672
0.03112524073
0.05878880914
0.06920058925
0.05118035731
0.04400933096
0.05704074341
0.06682197494
0.06165435997
0.05557027115
0.05523318775
0.05689770194
0.05632863694
0.05566329315
0.05134798118
0.048522231
0.0468729228
0.04517709559
0.04272910572
0.03978822133
0.03561107956
0.03247774017
0.02883454959
0.02626916936
0.02434317307
0.02139631676
0.01784926861
0.0148307148
0.01043636975
0.004671316414
0.001559509809
-0.0006856978897
-0.006727766536
-0.0124401342
-0.01402109916
-0.01506017942
-0.01647627628
-0.01905456907
-0.0270283736
-0.03163790719
-0.03268967719
-0.03919864368
-0.04217710886
-0.04156041286
-0.04321127311
-0.04539498343
-0.0485543519
-0.0496352552
-0.04971142311
-0.05169979947
-0.05048687316
-0.0525207438
-0.05396111011
-0.05502063879
-0.05529687545
-0.05330490074
-0.05343766546
-0.0502141656
-0.04941522532
-0.04904933532
-0.1212429691
-0.8161497966
-3.469021793
-5.373941617
-4.844772541
)


100
(
-0.07688393352
-1.115692545
-1.084518065
-0.9323701616
-0.8955092062
-0.9263776903
-0.7906798
-0.7803482787
-0.7217066061
-0.606930454
-0.6348224037
-0.5233514789
-0.4463392757
-0.457150501
-0.3767907691
-0.2838286845
-0.2860766339
-0.2618209861
-0.1999335265
-0.1493179716
-0.1613479513
-0.161116079
-0.1152225116
-0.0678719986
-0.06077613147
-0.0754005459
-0.05380148068
-0.02001236659
0.009285463534
0.02668238761
0.0461748935
0.0322589979
-0.001363626575
0.02428023539
0.06677239419
0.06265584469
0.04520338789
0.04929915873
0.07560194
0.07748098781
0.06827067617
0.05987380044
0.06992133336
0.07249145665
0.07632123885
0.07303792453
0.0682409917
0.0672688691
0.06782417363
0.06805446931
0.06783804347
0.06141058521
0.05795388435
0.05638391139
0.05447563348
0.05287222918
0.05268603728
0.05000702486
0.04853853897
0.04686982082
0.04459531081
0.04018063203
0.03606750943
0.03214422459
0.02622126821
0.02035617452
0.01909840316
0.01916851739
0.01808437928
0.01645192668
0.01191295351
0.00596696323
0.005787420515
0.002259860977
-0.003908665354
-0.004916574086
-0.004307579156
-0.005991040102
-0.00899932307
-0.01171507388
-0.0131089469
-0.01439839717
-0.01680625215
-0.01824037995
-0.0196607653
-0.02387820979
-0.02145522482
-0.02588338516
-0.02500148107
-0.02464442006
-0.02461742215
-0.02440757561
-0.02127947361
-0.0178707841
-0.02085660963
-0.1138115218
-1.090861299
-3.388202349
-4.893318992
-4.34272976
)


100
(
-0.04617993594
-0.9584238273
-0.9423620242
-0.8396930638
-0.9891059804
-0.8303157478
-0.8814222315
-0.7136690406
-0.7769232371
-0.6409069649
-0.5959759209
-0.6068989189
-0.4786436503
-0.4220448445
-0.4246061105
-0.3368932424
-0.2506849094
-0.2592531076
-0.2510520225
-0.1936291495
-0.1307664184
-0.1414025646
-0.1592817485
-0.1124434412
-0.06631578075
-0.04085011755
-0.05650472279
-0.0534114498
-0.01989020023
0.009304320353
0.04664648325
0.06545901658
0.02750935749
0.01647368845
0.04257459188
0.08148731557
0.0719138695
0.06272482138
0.06383055404
0.07963229183
0.08507097897
0.08255082592
0.0747339266
0.07398276049
0.07789114236
0.08441538705
0.08854485636
0.08350071996
0.07587449951
0.0765036979
0.07725698774
0.07757912821
0.07600231187
0.07416568302
0.07236904115
0.07231848269
0.07162046744
0.07241190516
0.07076133712
0.06640696706
0.06244663107
0.0588023285
0.05456938826
0.05262236388
0.05263247203
0.0510157646
0.04896177827
0.04731566883
0.04449329994
0.04307437137
0.04030969404
0.03394695749
0.03162270716
0.03245698818
0.0322087566
0.03052414331
0.02789640663
0.02567331687
0.0242155591
0.02195497752
0.01970569843
0.01797561005
0.01554876108
0.01109865844
0.01088816442
0.007332938013
0.00820380436
0.008897948285
0.007640375861
0.007475085833
0.006128915077
0.0072470376
0.009310736944
0.014274369
0.002504083714
-0.1173292132
-1.465482498
-3.37832898
-4.511324176
-4.283549552
)


100
(
0.2669410958
-0.8131151223
-0.8171598129
-0.910447603
-0.940868993
-0.8245343112
-0.8724580905
-0.7782640187
-0.7379798832
-0.7406856367
-0.59513547
-0.5947524467
-0.5683243146
-0.4466861622
-0.4022446795
-0.4157466713
-0.3365897575
-0.254337802
-0.2571470604
-0.2629150449
-0.2048045848
-0.145374016
-0.1382460421
-0.1575005679
-0.1283310294
-0.0829598805
-0.04215734894
-0.05279777788
-0.06650971969
-0.03641654891
-0.006458795019
0.04609642789
0.0579415215
0.0309900768
0.02230548161
0.04693549051
0.06534380451
0.07272153659
0.06228033815
0.05912077165
0.06554972847
0.07614400057
0.08670427416
0.08383181777
0.07300005745
0.07300185625
0.07987720302
0.08586747615
0.08780432172
0.08309641894
0.07714440663
0.08106749525
0.08335151738
0.08563657011
0.09048073559
0.08772067664
0.08178274592
0.08007960706
0.07936520389
0.07854268118
0.07662809666
0.07423181912
0.07454005951
0.07416459486
0.0748724683
0.07674168022
0.07363104626
0.06985451815
0.06484154622
0.06131127836
0.06306072389
0.06291058723
0.06176997337
0.06238222347
0.06005067523
0.05676791836
0.05560146805
0.05423985663
0.053014429
0.05099562035
0.04695734673
0.04496605916
0.04367463689
0.04152879459
0.03821167864
0.03783011376
0.03691028238
0.03746874392
0.03609938501
0.03673588168
0.03712397515
0.03754297959
0.03926709934
0.04318799402
0.02681354393
-0.1633578112
-1.811090905
-3.46665207
-4.28796748
-4.04657028
)


100
(
0.2302832966
-0.7421991889
-0.8471414635
-0.9804776521
-0.8488554689
-0.9192381894
-0.8240327069
-0.891148184
-0.7299986502
-0.7583710434
-0.7082121421
-0.5783178388
-0.5959128903
-0.5541960837
-0.4483128902
-0.4196586992
-0.4403994421
-0.3647314717
-0.2826379733
-0.2745730554
-0.3002507691
-0.23953714
-0.1812918228
-0.1552081907
-0.1750436789
-0.1673922759
-0.1212786458
-0.0817859712
-0.06703398317
-0.08083521081
-0.07388329653
-0.0422433535
0.01665570142
0.02889758529
0.01478704828
0.0002216088554
0.01250282715
0.02406903991
0.04547019207
0.05224426358
0.04067627704
0.03957107405
0.0518487203
0.06441625512
0.07402640429
0.06599506684
0.05752518393
0.06117295624
0.06864910813
0.07389736446
0.08120651109
0.0810451056
0.07768047435
0.07554164042
0.07914496277
0.0840764317
0.08727542346
0.07948802965
0.07531392007
0.07742978992
0.08052606395
0.08390172712
0.0866371111
0.08555063652
0.08210060117
0.08177063782
0.0814446721
0.07870593083
0.07826113853
0.07786071314
0.07872586024
0.07975683963
0.07673705609
0.07446725151
0.07388357986
0.07448364521
0.07368602646
0.07315938256
0.06959876571
0.06661804665
0.06600119485
0.06514246154
0.06396136139
0.06156347039
0.06069574039
0.06022706774
0.05652643861
0.05868687616
0.05935979997
0.05930110796
0.0626315054
0.06308364319
0.0666873206
0.06849546531
0.05214441916
-0.3017123497
-1.991052888
-3.696228094
-4.069386976
-3.832265179
)


100
(
-0.002206888245
-0.7622330051
-0.8962687696
-0.8799292518
-0.8423787137
-0.9452268301
-0.8412004333
-0.8749280805
-0.841426886
-0.7460825467
-0.7868068687
-0.687312176
-0.5976097662
-0.618640167
-0.5748211991
-0.471063353
-0.4465100241
-0.47334401
-0.4037747686
-0.3249353854
-0.3033974987
-0.3294556786
-0.2866705006
-0.2297716845
-0.180080616
-0.2007458667
-0.2148013613
-0.1719619284
-0.1331508136
-0.1021736331
-0.1042590355
-0.1143854847
-0.08727216723
-0.04750697606
-0.03173100136
-0.01798572923
-0.02671656882
-0.03574746964
-0.01818260167
0.006045945392
0.02746046927
0.02445506116
0.008463478639
0.0174477044
0.03132523108
0.04181161971
0.04704254247
0.04678826752
0.042052888
0.04584076397
0.05155006685
0.06297538191
0.07376464882
0.06615701476
0.05409226971
0.05962404354
0.06717269001
0.07149327644
0.0760978608
0.07317232683
0.07077325773
0.07222873341
0.07860418923
0.08415553988
0.07796789235
0.07299395422
0.07663273151
0.08060399188
0.08247740685
0.08346638299
0.08063113849
0.07886178884
0.0767390175
0.0771562805
0.07811504222
0.07988435205
0.07818035318
0.07594757432
0.07453799253
0.07571173897
0.07661062582
0.07524229526
0.07216666951
0.07252159631
0.07309890934
0.07181149434
0.07016873966
0.07060884078
0.07026260987
0.07351710688
0.07424211311
0.07860895476
0.08370202573
0.09135084221
0.07757476424
-0.4716325508
-2.124443669
-3.750106975
-4.150353891
-3.972867511
)


100
(
-0.1400615366
-0.7315021991
-0.8169936447
-0.7860413693
-0.9087066019
-0.8738535372
-0.9296055156
-0.8320833419
-0.9155316137
-0.8124310334
-0.767960099
-0.8029743119
-0.6853086553
-0.618238654
-0.6430980618
-0.596971484
-0.4959334397
-0.4655345236
-0.4983283382
-0.4406836864
-0.3648701106
-0.324047989
-0.3506215142
-0.3301321643
-0.2747735098
-0.2286061714
-0.2192645155
-0.2340018055
-0.2225802474
-0.1827903311
-0.1519135855
-0.1161834305
-0.1229270533
-0.1322963263
-0.1067384919
-0.079622175
-0.04598291538
-0.03921744487
-0.05808801478
-0.05749214573
-0.03138787823
-0.008502760322
0.005182462507
-0.002222467381
-0.01092907474
-0.0002551613199
0.0117066672
0.0209511811
0.04220742964
0.03779031916
0.02517178136
0.02532986318
0.04034825619
0.05412258486
0.05813487176
0.04796513973
0.04211384469
0.05072380695
0.05392238742
0.07000942654
0.07135018289
0.06072802134
0.05807584333
0.06640343799
0.07204579212
0.0750880126
0.0756729529
0.07868491313
0.07833281424
0.07735531569
0.07485297253
0.07212771981
0.07648143513
0.07948137318
0.08131480167
0.07852988135
0.07669023143
0.0763336572
0.07963527114
0.08134324961
0.07880039425
0.07647568797
0.07881307178
0.08189078639
0.07919975242
0.07721824683
0.08016199063
0.08211919166
0.08150897033
0.08051621998
0.08232478157
0.08174920175
0.08195100662
0.08934511965
0.1047701282
-0.5918344264
-2.04405868
-3.561482452
-3.900864407
-3.514824651
)


100
(
-0.09017839872
-0.6433233956
-0.71914659
-0.7792613698
-0.9021335524
-0.8319140752
-0.9314084842
-0.8742452372
-0.8728510862
-0.9057152559
-0.7761627453
-0.7754438503
-0.7902927634
-0.6804512191
-0.6264990509
-0.658166855
-0.6131344901
-0.5146000147
-0.4748942546
-0.5088047893
-0.4687217737
-0.3956700986
-0.3317175212
-0.3571827313
-0.3713417937
-0.310391599
-0.2667068269
-0.2253964443
-0.2406596489
-0.2502786422
-0.2153010002
-0.1808721329
-0.1394874733
-0.124310072
-0.1391734588
-0.1463460704
-0.1136804521
-0.07956322083
-0.04738031788
-0.05980773168
-0.07553716225
-0.0611826108
-0.03740195717
-0.02516750719
-0.008656503408
-0.007679187903
-0.0138662622
-0.01194924154
0.0004915098783
0.02204424443
0.04115783014
0.02308244452
0.0101565895
0.02547384293
0.03892328173
0.04331883606
0.05251307294
0.04710372272
0.035086217
0.0436779427
0.06098163156
0.07313333855
0.0590093552
0.05355393489
0.06568630862
0.07246358536
0.07564731433
0.07348395285
0.07188020986
0.07159709521
0.07276664436
0.07917079031
0.08268613873
0.08281510394
0.08031915598
0.07805228948
0.07921753727
0.0836772265
0.08714004919
0.08580027105
0.08290583264
0.08540705663
0.08853317548
0.08642604027
0.08537048995
0.09587515424
0.09583945118
0.09154053723
0.09741907267
0.09792448713
0.1019253326
0.1115581835
0.1037231485
0.1158275932
0.1299945089
-0.6231782165
-1.802500624
-3.245689282
-3.620361781
-3.350249689
)


100
(
0.04475451061
-0.5546082946
-0.6571035629
-0.8062979249
-0.8101461453
-0.8770631094
-0.8640756819
-0.942741598
-0.8371229607
-0.8788737549
-0.8624264131
-0.7461970463
-0.7767528943
-0.7789484299
-0.672264546
-0.6241804741
-0.6607962468
-0.6192057716
-0.5287366257
-0.473737324
-0.5071874464
-0.4898448159
-0.4192678555
-0.3640875242
-0.3531423184
-0.3696497271
-0.3394561703
-0.2986625923
-0.2587002139
-0.2253492157
-0.2356587174
-0.2470198182
-0.2116416656
-0.1668686699
-0.1189568278
-0.1323728824
-0.1590391094
-0.1396633294
-0.1043270888
-0.07508982239
-0.05641887702
-0.06751319324
-0.07699141736
-0.06126688241
-0.04709318259
-0.02470970679
0.004355276049
-0.004874240334
-0.03052456761
-0.01420078046
0.008608496163
0.02794163039
0.03002692764
0.02042605655
0.01422433151
0.02347296139
0.0362846779
0.05952867787
0.05840321957
0.03388605369
0.04196449605
0.05931336895
0.06938364267
0.07345105771
0.07821891125
0.07337242367
0.07182298803
0.07182763394
0.06949784902
0.07084186394
0.07887735448
0.08692670888
0.08658005536
0.08589168015
0.08471539463
0.08930524347
0.09330244689
0.09462998918
0.09127561119
0.09065861871
0.09267963252
0.1019110404
0.1010393323
0.09678650996
0.1018009141
0.1034596302
0.1063352383
0.1073048212
0.1015498829
0.1118360377
0.108298109
0.1213473404
0.1321549386
0.14189452
0.1750789514
-0.6143630004
-1.576630395
-3.043920737
-3.431836572
-3.260797831
)


100
(
0.01444093434
-0.5200778122
-0.6600734637
-0.7565418237
-0.7446999137
-0.886818775
-0.8334519359
-0.8991366735
-0.8999275524
-0.8258033079
-0.8823262363
-0.8411918369
-0.7407400267
-0.7806478359
-0.7754616673
-0.6728540094
-0.6188702889
-0.6609577689
-0.6318657473
-0.5470467343
-0.4721457498
-0.5035312419
-0.5228732769
-0.4465130474
-0.3945339436
-0.3486887605
-0.3660136574
-0.3766915847
-0.3218616787
-0.2858388742
-0.2222543943
-0.2272812317
-0.2525429691
-0.2418751191
-0.193305767
-0.1482891415
-0.122894435
-0.1497931633
-0.1621746607
-0.1322141142
-0.1049449928
-0.08842521886
-0.05720327909
-0.06579881512
-0.08100275924
-0.0757425895
-0.04633320121
-0.01451755026
0.002575004513
-0.02346914499
-0.03191819313
-0.007268820338
0.005366278804
0.0189195351
0.02977525571
0.02165467952
0.004125346129
0.02838109358
0.05440835742
0.06235298988
0.04663117957
0.04516513082
0.06295979466
0.07002833324
0.07016764472
0.06950044005
0.0687877113
0.06938215852
0.07669219097
0.08852901296
0.0928428158
0.0863785625
0.08444453524
0.08386326495
0.08839959721
0.09493840523
0.1012979239
0.1030111691
0.1029701247
0.1021173707
0.1058779888
0.1035265942
0.1075434655
0.1133022006
0.1184976725
0.106914681
0.1087449117
0.1209710246
0.130354333
0.1214479933
0.1259153595
0.1126770528
0.1228189626
0.1531268725
0.2018986401
-0.841432264
-1.358887538
-2.886627861
-3.181766773
-3.050335663
)


100
(
-0.07474165325
-0.5045690318
-0.6374978223
-0.6717029339
-0.7636986205
-0.8142729431
-0.8741967353
-0.8399262111
-0.9282202482
-0.8711140253
-0.8474396282
-0.9079143572
-0.8342128065
-0.7500217474
-0.7925109782
-0.7843711097
-0.6861332757
-0.6243980816
-0.665931446
-0.6557422231
-0.5746119932
-0.5126110505
-0.5066068305
-0.5257688048
-0.4847920965
-0.4368593827
-0.3886667751
-0.3573668162
-0.3727896758
-0.36549844
-0.324398598
-0.2662890803
-0.2221132735
-0.2508063474
-0.2804158696
-0.2277698729
-0.1835329109
-0.1535616345
-0.1475850954
-0.1600853582
-0.1714981487
-0.1442149931
-0.1276003936
-0.08381591724
-0.06202964034
-0.08428434932
-0.1137018146
-0.07552549211
-0.04232887919
-0.0237068649
-0.02011147246
-0.0326842266
-0.04047438322
-0.03260520445
-0.002323421661
0.03268953924
0.01830306208
-0.00536885447
0.01449652671
0.04053260322
0.04950905808
0.05481793162
0.05625497057
0.05571132347
0.05119835437
0.05290991661
0.05129925139
0.05997726137
0.07245403546
0.07979506087
0.08106490993
0.0825707162
0.08226600391
0.08973080894
0.09970258112
0.09543374776
0.08959470345
0.09375646509
0.09972778452
0.1087200424
0.1163017565
0.1063397258
0.1095476338
0.121616147
0.1187385908
0.122620105
0.1319507137
0.1271406082
0.1392320631
0.1398076531
0.1508185075
0.1428158865
0.151813227
0.1781035189
0.2543902971
-1.229192167
-1.067941451
-2.798309581
-3.013331971
-2.981215951
)


100
(
-0.1366241701
-0.45699651
-0.5649053767
-0.6211979588
-0.7710708716
-0.7466763236
-0.8667101582
-0.854784163
-0.8761226653
-0.9396823329
-0.8631097163
-0.8642765871
-0.9236385162
-0.8325851774
-0.7590851798
-0.8069840752
-0.7995465305
-0.7116584321
-0.6339300587
-0.6738906523
-0.7007664562
-0.6150140008
-0.5578551955
-0.5165723929
-0.5376130523
-0.5442117353
-0.481087167
-0.434187063
-0.3632132073
-0.3773484428
-0.4189355948
-0.3710993685
-0.3134945143
-0.254667433
-0.2542482603
-0.2825147404
-0.2799865931
-0.2301326464
-0.2064149031
-0.1780901341
-0.1639381466
-0.1761143894
-0.2006030231
-0.1710268873
-0.125575594
-0.0796398334
-0.09208781792
-0.1163994353
-0.1178177674
-0.0831583054
-0.07728518501
-0.04369627913
-0.04021324228
-0.06085881371
-0.06741756463
-0.02981222654
0.007567301332
0.006801962176
-0.002778532968
-0.0002127115906
0.01939141558
0.02371610948
0.02602814939
0.0260091333
0.02650072291
0.02765793111
0.04275051461
0.05909965637
0.06626518587
0.05682010939
0.05380270458
0.05500085308
0.06457599788
0.0754609821
0.0816406413
0.08841540604
0.08834991468
0.09117951202
0.09235922118
0.0921755532
0.09772975026
0.1051772436
0.1131001058
0.1116370835
0.1059980238
0.1211520759
0.1247239391
0.1333418765
0.1211655483
0.1369667463
0.1341027227
0.1355872883
0.150237437
0.1839771298
0.2901390403
-1.517488424
-0.7112971061
-2.729245562
-2.956328622
-2.998143393
)


100
(
-0.05205947663
-0.4026747997
-0.5007267744
-0.6191469733
-0.6971892617
-0.7624034467
-0.8098916171
-0.8936860994
-0.8468834652
-0.9032858705
-0.9349124623
-0.8573302575
-0.8791863462
-0.9306722102
-0.8443525926
-0.7681649755
-0.8215722001
-0.8253533618
-0.7445016611
-0.6801114659
-0.6884521302
-0.7138321639
-0.6630307504
-0.6124687067
-0.5587277599
-0.5439262838
-0.5613406062
-0.5395010577
-0.4892198872
-0.4181135165
-0.3869979903
-0.427434264
-0.4309635265
-0.365780957
-0.3137189328
-0.2788405943
-0.2893929082
-0.3056871441
-0.2947676459
-0.2697845152
-0.2371730998
-0.1776781015
-0.1813102233
-0.2244583158
-0.2208974306
-0.1719535036
-0.1309142816
-0.112122348
-0.1258462109
-0.1453898942
-0.150258761
-0.1362052105
-0.0822446911
-0.04216217765
-0.07955301004
-0.09820973958
-0.06292682466
-0.03399616141
-0.02070984651
-0.01263639388