/*--------------------------------*- C++ -*----------------------------------*\
| =========                 |                                                 |
| \\      /  F ield         | OpenFOAM: The Open Source CFD Toolbox           |
|  \\    /   O peration     | Version:  2.3.1                                 |
|   \\  /    A nd           | Web:      www.OpenFOAM.org                      |
|    \\/     M anipulation  |                                                 |
\*---------------------------------------------------------------------------*/
FoamFile
{
    version     2.0;
    format      ascii;
    class       dictionary;
    location    "constant";
    object      PM37;
}
// * * * * * * * * * * * * * * * * * * * * * * * * * * * * * * * * * * * * * //

PM37_table
100
(

100
(
-0.07548235545
0.02694199283
0.01842806677
0.01262630047
0.01128567599
0.009993521541
0.007046790882
0.006989128578
0.005605890353
0.00488204092
0.00495460941
0.003609434279
0.003558998653
0.003308083852
0.002544052473
0.002469736087
0.002466775626
0.001766380058
0.001681129555
0.001711472659
0.00135169367
0.001162859349
0.001134202783
0.001069965002
0.0008374933407
0.0007939137023
0.0007845034962
0.000705825679
0.000543164793
0.0005088539042
0.0004974724323
0.0004430176388
0.0003704886532
0.0003506221057
0.0003401263258
0.0003127448315
0.0002469039105
0.0002131385144
0.0002026030727
0.0001867889453
0.0001547694639
0.0001330389665
0.0001251415997
0.0001153318595
9.92808054e-05
8.654497869e-05
8.111316205e-05
7.689102948e-05
6.349723288e-05
5.301627859e-05
4.733632177e-05
4.394673016e-05
3.78106885e-05
3.272053595e-05
2.940834538e-05
2.684177301e-05
2.390255559e-05
2.181417328e-05
2.128261449e-05
2.232844447e-05
2.353336534e-05
1.997789662e-05
1.606775723e-05
1.538559631e-05
1.561798473e-05
1.310909835e-05
1.089170667e-05
1.104090033e-05
1.035009531e-05
8.56374671e-06
7.543162057e-06
7.561670276e-06
6.571022725e-06
5.666275972e-06
6.329992697e-06
6.236952679e-06
4.526877436e-06
4.584712819e-06
4.453763677e-06
3.173956475e-06
3.424843088e-06
2.845494833e-06
2.434974835e-06
2.685640299e-06
1.874891067e-06
1.965196087e-06
1.817603713e-06
1.4918764e-06
1.611393132e-06
1.309348175e-06
1.337509449e-06
1.233364174e-06
1.327667465e-06
1.257620142e-06
1.362417144e-06
1.274065005e-06
1.30142865e-06
1.240542156e-06
5.766016032e-07
2.243806755e-07
)


100
(
-0.08644296022
0.02074423711
0.01443377442
0.009969341419
0.009905747006
0.007560039715
0.006395659156
0.00529960077
0.004695707489
0.003667065006
0.003641773092
0.002775301321
0.002554007894
0.002394776187
0.001893189719
0.00170834528
0.001640566169
0.001338293065
0.001130994956
0.001096770328
0.0009530267228
0.0008097012936
0.0007288595604
0.0006810526133
0.000593080227
0.0005217569025
0.0004859665239
0.0004438333429
0.0003839135324
0.0003354408101
0.0003050683633
0.0002783285193
0.000249797935
0.0002258582453
0.0002081437775
0.0001929586582
0.0001682719698
0.0001486620987
0.0001323419478
0.0001199548199
0.0001071289011
9.666140543e-05
8.797734031e-05
7.979025471e-05
7.284096809e-05
6.6752977e-05
6.158557311e-05
5.719667515e-05
5.076122696e-05
4.572912656e-05
4.172492182e-05
3.84642273e-05
3.502324022e-05
3.275677852e-05
3.094478531e-05
2.910668174e-05
2.709006831e-05
2.580202265e-05
2.487655505e-05
2.431128454e-05
2.46264065e-05
2.600356556e-05
2.443913414e-05
2.137463303e-05
1.972166055e-05
1.920629867e-05
1.74282821e-05
1.543506097e-05
1.479423258e-05
1.37602923e-05
1.215858541e-05
1.100220144e-05
1.048735506e-05
9.305750177e-06
8.607900567e-06
9.646484131e-06
1.014489553e-05
8.791069601e-06
8.494303303e-06
8.020823803e-06
7.266400762e-06
7.564966778e-06
6.565288147e-06
7.230836674e-06
6.869660652e-06
6.158670761e-06
6.52927496e-06
6.090878921e-06
6.063099522e-06
6.316402511e-06
6.333062245e-06
6.381352742e-06
6.61820658e-06
7.144514535e-06
7.282236316e-06
7.659556568e-06
7.65144471e-06
4.685533929e-06
2.887957689e-06
-1.586451897e-05
)


100
(
-0.05656426394
0.01444533793
0.009387105177
0.007910874287
0.00696362218
0.004658783187
0.004333641779
0.00314039697
0.002899662075
0.002275651156
0.002011083666
0.001679730059
0.00132699529
0.001222812705
0.001036868796
0.0008398165085
0.0007545047864
0.0006656936719
0.0005649658099
0.000475795339
0.0004375894483
0.0003899323994
0.0003379062306
0.0002961581088
0.0002738582401
0.0002474986171
0.0002200594927
0.0001993400385
0.0001871244295
0.0001704098942
0.0001520550811
0.0001370349043
0.0001294683641
0.0001212405315
0.0001130341257
0.0001069081209
0.0001027888038
9.792409528e-05
9.117036096e-05
8.507688603e-05
8.080083484e-05
7.834635858e-05
7.561042285e-05
7.352190557e-05
7.205569626e-05
7.121179431e-05
6.978164254e-05
6.865107753e-05
6.733119286e-05
6.576397729e-05
6.417971835e-05
6.166066954e-05
5.890945937e-05
5.589287746e-05
5.386322955e-05
5.192034969e-05
4.933261607e-05
4.574267729e-05
4.306279475e-05
3.984496784e-05
3.557584275e-05
3.608580962e-05
3.887142879e-05
3.629735221e-05
3.198766498e-05
3.12255364e-05
3.114999552e-05
2.749758309e-05
2.597082452e-05
2.679885244e-05
2.681779836e-05
2.554429066e-05
2.637631248e-05
2.689289542e-05
2.390006627e-05
2.281129282e-05
2.664193987e-05
2.609012584e-05
2.437158251e-05
2.699880931e-05
2.502797396e-05
2.551428314e-05
2.585220151e-05
2.397517469e-05
2.706772823e-05
2.599149617e-05
2.700399934e-05
2.948761619e-05
2.889358626e-05
3.123964656e-05
3.283816423e-05
3.507027012e-05
3.553276471e-05
3.845095431e-05
4.130118618e-05
4.381639353e-05
4.122248922e-05
2.184971451e-05
-3.097382464e-05
-5.048452986e-05
)


100
(
-0.02233615688
0.01343324602
0.007922141017
0.006086703507
0.004363736871
0.003379695819
0.002754132301
0.002191974267
0.001792586824
0.001534043855
0.00120161283
0.00106628116
0.0008761777705
0.0007189206049
0.0006446055798
0.0005521741331
0.0004666750157
0.0004223075576
0.0003915347793
0.000346614015
0.0003066644481
0.0002919459898
0.0002748051188
0.0002503150206
0.0002311500384
0.0002261786057
0.0002161117484
0.0002033616728
0.0001947981003
0.0001930053874
0.0001870946005
0.0001748806387
0.0001652944166
0.0001610959581
0.0001598484
0.0001561232531
0.0001536505842
0.0001526309151
0.0001555796905
0.0001546735967
0.00014936955
0.0001433521006
0.0001391305658
0.0001392635741
0.0001351597389
0.0001292736989
0.0001220242042
0.0001220407569
0.000121324381
0.0001161678575
0.0001086907739
0.0001069649753
0.0001063841433
9.921118836e-05
9.049947941e-05
8.64814136e-05
8.690611353e-05
8.033096315e-05
7.277992893e-05
6.828848331e-05
6.518100705e-05
5.789455271e-05
5.647094785e-05
5.882197165e-05
5.871505716e-05
5.669408958e-05
5.784005051e-05
5.917651846e-05
5.683151247e-05
5.615888755e-05
5.68164404e-05
5.792082231e-05
5.814538998e-05
6.226090808e-05
6.501134486e-05
5.942202044e-05
5.696234765e-05
6.328296217e-05
6.179224046e-05
6.003649128e-05
6.469191115e-05
6.284855076e-05
6.737623452e-05
6.823819635e-05
7.056896222e-05
7.339179341e-05
7.324818678e-05
7.85042287e-05
8.355844196e-05
8.820396246e-05
9.068428804e-05
9.479687532e-05
0.000100557111
0.0001029581543
0.0001103485204
0.0001165818288
9.328439783e-05
1.948624088e-07
-0.000367519159
-0.0008556404344
)


100
(
-0.01154795602
0.01128078607
0.006116259453
0.003924303575
0.002739145154
0.002475369287
0.001778397144
0.001606743869
0.001247568155
0.001111230598
0.0009463046422
0.0007872612871
0.0007162013776
0.0006020291125
0.0005245097176
0.0004951324969
0.0004485257387
0.000404082749
0.0003898509017
0.0003888346856
0.0003574580999
0.000335439885
0.0003317496071
0.000330881617
0.0003129168227
0.0003036179466
0.0003058045518
0.0003100707141
0.0003012332292
0.0002953457788
0.0002946326211
0.0003005886395
0.0002906369336
0.0002767590711
0.0002639819232
0.0002644115177
0.0002631978573
0.0002548801929
0.0002396580717
0.0002407656177
0.0002449158202
0.0002401464478
0.0002202608282
0.0002068387915
0.0002044942558
0.000205217625
0.0001853397766
0.000167037925
0.0001650478287
0.000168235462
0.0001553604184
0.0001421859203
0.0001384324169
0.0001398042355
0.0001315845209
0.0001209627149
0.0001181187966
0.000121878758
0.0001192569862
0.0001140262482
0.0001133983829
0.0001145864649
0.0001102397811
0.0001085241859
0.0001088132095
0.0001090287718
0.0001091405988
0.0001108635136
0.000111317587
0.0001113385131
0.0001097398316
0.0001093239744
0.0001078245325
0.0001088337973
0.0001166901812
0.0001234572678
0.0001147719591
0.0001174706965
0.0001255479502
0.0001232273023
0.0001284503461
0.0001327476918
0.0001319476179
0.0001402553745
0.0001479276408
0.000155418396
0.0001594986046
0.0001626067419
0.0001711393603
0.0001800970995
0.0001892943755
0.0001963863545
0.000202488246
0.0002166787121
0.0002235447773
0.000232842033
0.0001540954099
-0.0002697219905
-0.001176684244
-0.002669110558
)


100
(
-0.009541810633
0.007543795642
0.003852621687
0.002280546083
0.001996869261
0.001690191708
0.001355312107
0.00119517772
0.001070789452
0.0009086754055
0.0008850797452
0.0007563336297
0.0006862810002
0.0006527674605
0.0005766067582
0.0005406616375
0.0005410882594
0.0005146574187
0.0004893742372
0.0004903723631
0.0005049582827
0.000482375743
0.0004645552798
0.000462777001
0.000474638118
0.000461472007
0.0004559659714
0.0004656779748
0.0004831255905
0.0004757299743
0.0004552690153
0.0004381579787
0.0004431823452
0.0004436878681
0.0004100555005
0.0003754046934
0.0003693605249
0.0003747825367
0.0003464554975
0.0003112188431
0.0003041065835
0.0003061315271
0.0002987565868
0.0002695303828
0.0002525294805
0.0002561183132
0.000258855253
0.0002330244816
0.0002118108668
0.0002144407474
0.0002181642023
0.0002050809555
0.0001922929695
0.0001924747719
0.0001987101774
0.0001953644169
0.0001892565991
0.0001914061865
0.0001950560415
0.000197526958
0.0001965401017
0.0001956135425
0.0001944006902
0.0001924187651
0.0001912452136
0.0001879718436
0.000184471511
0.0001870175147
0.0001884394719
0.0001905866812
0.0001914361289
0.0001916771344
0.0001915394025
0.000189204793
0.0001862690973
0.000196864591
0.0002122400634
0.0002123345111
0.0002167065713
0.0002224904909
0.000231196966
0.0002439614874
0.0002483515119
0.0002533093692
0.0002633189348
0.0002712604287
0.0002852674923
0.0002950100125
0.0003151605492
0.0003280076758
0.0003368168896
0.0003557192342
0.0003704531073
0.0003947399429
0.0004109990355
0.0004039394201
0.0001982866705
-0.0009591009757
-0.00269491771
-0.006310285712
)


100
(
-0.01083600904
0.004390781452
0.002020373891
0.001340272213
0.001375366779
0.001127197342
0.001138648054
0.0009636754822
0.001004702823
0.0009081365639
0.0008725378107
0.0008601776735
0.0007704839056
0.000752386222
0.0007384405845
0.000686184229
0.0006740538786
0.000698471617
0.0006914329622
0.0006744899827
0.0006803825632
0.0007049563346
0.0006920973341
0.0006656000557
0.0006473605854
0.0006547643091
0.0006486615393
0.0006339273742
0.000641305112
0.0006557463412
0.000652171235
0.0005887848823
0.0005509385557
0.0005476166746
0.0005537336191
0.0004946751335
0.0004490243878
0.000443087692
0.0004620300348
0.0004165510619
0.0003726709629
0.0003631801534
0.0003723436121
0.0003571584028
0.0003241899606
0.00031032603
0.0003228183303
0.0003287385009
0.0003036288796
0.0002904511784
0.0003005372358
0.0003116574489
0.0003071248059
0.0003004189976
0.0002994575204
0.000301761376
0.000304912996
0.0003085377507
0.0003040659212
0.0002995006241
0.0003003427058
0.0003039031961
0.0003000871184
0.0002943871094
0.0002950043215
0.0003013791083
0.0003026475008
0.0003046728245
0.000308754268
0.0003094429776
0.0003137054095
0.0003178265082
0.0003181578552
0.0003186174268
0.0003262466383
0.000325213509
0.0003388232062
0.0003502840096
0.0003607583991
0.0003725027168
0.0003790047193
0.0003892032183
0.0004112734365
0.0004240367295
0.0004421429341
0.0004603843044
0.0004765771757
0.0004896293914
0.0005163000234
0.0005570203021
0.0005790844137
0.000605450736
0.0006419009885
0.0006810760338
0.0007266858226
0.0006689862262
0.0001457625569
-0.002153692031
-0.005557446285
-0.01344231572
)


100
(
-0.007629373348
0.002224223521
0.00077658715
0.0006053478821
0.0007620116992
0.0008295790362
0.0009229891252
0.0009310243244
0.0009538837162
0.00101388807
0.0009413731527
0.0009756737059
0.0009636037519
0.0009085564177
0.0009295412254
0.0009341166306
0.0008976364555
0.0008916965253
0.0009452404236
0.0009518824332
0.0009269160301
0.0009155312132
0.0009369001863
0.0009328478314
0.0008848663322
0.0008331432898
0.0008089854206
0.0007790344176
0.000747218231
0.0007541799438
0.0007772430262
0.0007705536215
0.000675517358
0.0006296782718
0.0006346186149
0.0006318326958
0.0005602286379
0.0005127307764
0.0005269857722
0.0005366498063
0.0004893777046
0.0004450869931
0.0004454757468
0.0004541333935
0.0004405765469
0.0004112671151
0.0004160972429
0.0004358416218
0.0004549687066
0.0004405140531
0.000441535403
0.0004440628162
0.0004527283567
0.0004588963778
0.0004548506523
0.0004411449186
0.0004280801064
0.0004260388167
0.0004299571141
0.0004275237966
0.0004233042056
0.0004281242526
0.0004390891323
0.0004496300528
0.0004518915824
0.0004577203977
0.0004586713886
0.0004568379733
0.000468877829
0.0004757376072
0.0004737433723
0.0004795015987
0.0004903054755
0.000499880811
0.0005133022811
0.000518904937
0.000522912493
0.0005439848193
0.0005566725443
0.0005707369154
0.0005956097322
0.0006163706689
0.0006402766218
0.0006710164027
0.0007033387009
0.0007382552741
0.0007714705276
0.0008035843547
0.0008246808901
0.0008788253587
0.0009327996131
0.0009770027781
0.001042956898
0.001105405108
0.001178924615
0.001032740269
-0.0001587059713
-0.003674661884
-0.01053022684
-0.02658887288
)


100
(
-0.004772553388
0.0005040034319
-0.0003311694213
-8.876119527e-05
0.0002807982698
0.0006208072881
0.000750395514
0.0009561747091
0.0009607527458
0.001081522642
0.001124641492
0.001107555688
0.001190783044
0.001177168871
0.001150853069
0.001205741668
0.001227390225
0.001191959982
0.001189320454
0.001232445853
0.001240033336
0.001188383141
0.001133575474
0.00113863618
0.001144795655
0.001072816038
0.0009885614636
0.000919736551
0.0008621643192
0.0008196084013
0.0008319581522
0.0008909941961
0.0008464527524
0.0007428788606
0.0007000916791
0.0007279011407
0.0007063004763
0.0006311750183
0.0005944987892
0.0006215485643
0.0006326838369
0.0005930958212
0.0005604907033
0.0005732483981
0.0005947963712
0.0005953302343
0.0005888699523
0.0005951213933
0.0006055010978
0.0006227327786
0.0006270500059
0.0006171283331
0.0006001028491
0.0005873722479
0.0005943860449
0.000612372661
0.0006029782795
0.0005921223463
0.000590730542
0.0005973716622
0.0006066728826
0.0006121958554
0.0006250059427
0.0006285617134
0.0006270647852
0.0006393212838
0.0006549242973
0.0006524663431
0.0006541075326
0.0006759090867
0.0006993639987
0.0007191244925
0.0007332902482
0.0007286583478
0.0007414663065
0.0007739004309
0.0007840598878
0.0008064406147
0.0008447686121
0.0008754913779
0.0009027484475
0.0009383685337
0.0009804187293
0.00102603232
0.001072520199
0.001130528122
0.001182469372
0.001228835487
0.001277954558
0.001345033642
0.001427963228
0.001506498844
0.001590711577
0.001695188906
0.001810163771
0.001471380518
-0.0009706949806
-0.005559229048
-0.01829597324
-0.04599069759
)


100
(
-0.003704843571
-0.001206561842
-0.00132233768
-0.0006698583842
-7.058475583e-05
0.0003850372818
0.0006701214726
0.0009047037131
0.001073121563
0.001154964541
0.001332363226
0.001356080344
0.001401077959
0.001514074522
0.001490996248
0.001470327111
0.001538578953
0.001575126915
0.001509385568
0.001462208674
0.001486221173
0.001494775599
0.001409480298
0.001315961162
0.001282518542
0.001289188549
0.001226014999
0.001121784323
0.001015872275
0.0009332911841
0.0008791873332
0.0009154711534
0.0009821372628
0.0009218069928
0.0008193736866
0.0008038739637
0.0008274667098
0.0008097298369
0.000740735431
0.0007368888385
0.0007687901206
0.000804233707
0.0007858411638
0.0007795529006
0.0007781717158
0.0007949441735
0.0008112286565
0.0008100111438
0.0007937414786
0.000774635168
0.0007674089985
0.0007880049587
0.0007957020929
0.0007826697511
0.0007687946267
0.0007769372635
0.0007945313814
0.0008219020642
0.0008313261077
0.0008377930979
0.0008316257608
0.0008197400366
0.0008360938951
0.0008594832466
0.0008585827109
0.0008574048334
0.0008828658222
0.0009140489094
0.0009443216285
0.0009704630114
0.0009758625688
0.0009766991235
0.001025140561
0.001050484813
0.001058927036
0.001097837045
0.001153898784
0.001192336818
0.001227903311
0.001274068581
0.001332139678
0.001387905971
0.001442895786
0.001502419011
0.00157750832
0.001630651231
0.001731065129
0.001789071313
0.001870404667
0.001961682116
0.002051464068
0.002159014658
0.002275424401
0.002435939596
0.002559576235
0.001914739926
-0.002923512215
-0.007852628188
-0.02851702235
-0.07000673536
)


100
(
-0.002829081913
-0.00229729776
-0.002053047297
-0.001155704819
-0.000429090916
0.0001663798958
0.0006238140037
0.0008694967623
0.001188208431
0.001317369763
0.0014821798
0.001695506518
0.001706341091
0.001787007049
0.001910552778
0.001855917292
0.001806377137
0.001864201681
0.001877487921
0.001780071372
0.001673379402
0.001673005031
0.001694777756
0.001586871861
0.001468502775
0.001397482915
0.001404945943
0.001376101576
0.00126678135
0.001148503515
0.001023343897
0.0009755479843
0.001052602575
0.001091506571
0.00103657602
0.0009481157171
0.0009628442424
0.0009941963507
0.001001728656
0.0009723642416
0.0009802233422
0.001009075423
0.001052938502
0.001061136175
0.001040123627
0.001004745298
0.0009789355718
0.0009945324348
0.00102302954
0.001009481807
0.0009878296053
0.0009757681969
0.0009873235938
0.001018032074
0.001045234771
0.001052418334
0.001064333236
0.001058709753
0.001061197932
0.001096194384
0.001121664852
0.001108000283
0.001092760857
0.001118400188
0.001169114235
0.00120661293
0.001233518295
0.001245501236
0.001243331631
0.001305796913
0.001355288651
0.001355941691
0.00138470157
0.00145395527
0.001516311123
0.001554865461
0.00160427068
0.001672712646
0.001747616613
0.001815820421
0.001883423899
0.001962470172
0.002037520395
0.00209729463
0.002201751617
0.002282600486
0.002411838149
0.00253115827
0.002638525501
0.002765378655
0.002880278611
0.003008140137
0.003133094097
0.003325996459
0.003357223571
0.0020942785
-0.00671787534
-0.01036509455
-0.04112864624
-0.0997237093
)


100
(
-0.001980602308
-0.003192033474
-0.002631949799
-0.001703822733
-0.0007507072416
-1.405420323e-05
0.0005209068439
0.0009155577358
0.001234800439
0.001561996503
0.001694355339
0.001931276496
0.002122752045
0.002129712024
0.002208825191
0.002324147831
0.00222535768
0.002118941579
0.002128617412
0.002136194509
0.002001949456
0.001862732825
0.001823853837
0.001842600205
0.001761783167
0.001633578138
0.001533611252
0.001537711382
0.001549522134
0.001453676851
0.001342929108
0.00118988517
0.00115740277
0.00123651587
0.001289896375
0.00125557563
0.001227412907
0.001237044577
0.001284777778
0.001315683924
0.001311981443
0.001282736805
0.001253172475
0.001262651421
0.001303340137
0.001300387226
0.00126008945
0.001221698282
0.001221531117
0.001257739109
0.001297875626
0.001305620134
0.001314076039
0.001317990017
0.001314339326
0.001348626825
0.001403585109
0.001410541404
0.001386024483
0.001371330558
0.001405528489
0.001478616128
0.001526206584
0.001551476472
0.001570466251
0.001581835845
0.001643824131
0.001701407591
0.001678834985
0.001680355796
0.001781052327
0.001880088352
0.001933248936
0.002008063355
0.002079993582
0.002155054747
0.002225620219
0.002307943158
0.002399179409
0.002485714106
0.002564232186
0.002670385392
0.002785707348
0.002875792393
0.00296494421
0.003104070701
0.003251263369
0.003404960693
0.003551096099
0.003734600503
0.003899521641
0.004034141259
0.004196520942
0.004401392354
0.004277197968
0.001510632219
-0.01187251759
-0.01341241271
-0.05719983706
-0.1392341884
)


100
(
-0.002044252176
-0.004023934862
-0.003390424829
-0.002292811341
-0.001019076785
-0.0002098273925
0.0004018335334
0.0009715162745
0.001317677011
0.001732969708
0.002032403312
0.002179562741
0.002447950422
0.002584032454
0.002551847317
0.002599878567
0.002686088177
0.002538612795
0.002374390153
0.002340887688
0.002366458021
0.002210067178
0.002052482897
0.001978951797
0.002001342253
0.001968816016
0.001843681578
0.001744047205
0.001716526511
0.001744924008
0.001723602724
0.001621076829
0.001471394443
0.001477337147
0.001554522009
0.001643259506
0.001654542153
0.001644614857
0.001598330066
0.001585035932
0.001623518587
0.001632659175
0.001588870467
0.001537089041
0.001511441984
0.001551981559
0.001603177821
0.001601984
0.001582414454
0.001598596072
0.001616606737
0.00166259362
0.00172918284
0.001760253852
0.00173306714
0.001686529871
0.001676451786
0.001767746835
0.001839999788
0.001858852869
0.001890959277
0.001924703621
0.001981071338
0.002082373915
0.002148650421
0.002106446292
0.002073039152
0.002160527523
0.002285216135
0.002313094606
0.002397041296
0.002490716543
0.002579876895
0.002674352894
0.00277807897
0.002893816275
0.002994569484
0.003094895509
0.003191681715
0.00329706617
0.003418216797
0.003551183717
0.003673313022
0.003813904481
0.003973651953
0.004132961072
0.004215083377
0.004449205888
0.004651313651
0.004888052447
0.005128127342
0.005329898288
0.00555638091
0.005808240999
0.005283094672
-0.0009430360423
-0.01666337183
-0.01720751635
-0.08187947081
-0.1960551022
)


100
(
-0.002618894877
-0.005089805478
-0.004195459496
-0.002593277576
-0.001314251942
-0.0004414006041
0.0003039018204
0.0009236477167
0.001482271963
0.001878181126
0.002347339851
0.002565308279
0.002711195684
0.002942418224
0.002997194752
0.002890819969
0.002889182739
0.002950609157
0.002782800965
0.002591902981
0.002525376992
0.002549102294
0.002425972593
0.002264588064
0.002155199733
0.002187717789
0.002215903338
0.002118181333
0.002032376641
0.001991320531
0.00202473516
0.002071946906
0.002032824126
0.001957669169
0.001961951781
0.001972665332
0.002023517093
0.002075003415
0.002029057608
0.001951820799
0.001884263238
0.001901511212
0.001964259948
0.001947058863
0.00190635774
0.001888720293
0.001912060825
0.001978307341
0.002061965262
0.002104016992
0.002121601806
0.002083314874
0.002049418443
0.002115940017
0.002230291023
0.002219135736
0.002187475209
0.002203992059
0.002292409654
0.002426644849
0.002568057617
0.002618373681
0.002558548535
0.002513138265
0.002645729132
0.002777392136
0.00278024013
0.002835723999
0.00295159151
0.003073615662
0.003163229349
0.003234163986
0.003319522937
0.003450783417
0.003590701543
0.003728155531
0.003847623319
0.003969575573
0.004119089376
0.004285653795
0.004423972544
0.004596893187
0.004749726883
0.004927823932
0.005092307968
0.005267401827
0.00544355486
0.005659033866
0.005917403411
0.006170400534
0.00647600454
0.006780561973
0.00709235628
0.007324038428
0.006353309753
-0.005208657895
-0.02137426091
-0.02115084073
-0.1092941264
-0.2535125471
)


100
(
-0.003091029989
-0.00575732916
-0.004519426808
-0.002838837064
-0.00169826223
-0.0006566676628
0.0001889641794
0.0008637135078
0.00158607088
0.002084746733
0.002515494954
0.002966270776
0.003059268207
0.003147336607
0.003319447053
0.003293374477
0.003125952548
0.003077609474
0.003135943641
0.002986260816
0.002789799719
0.002690261626
0.002725353391
0.002661149726
0.002514124157
0.002415123201
0.002417989989
0.002477821617
0.00248469284
0.002425878762
0.002400103466
0.00239077607
0.002458930192
0.002525428049
0.002481479895
0.002415974435
0.002331691522
0.002323879055
0.002397162277
0.002410214455
0.002329843953
0.002256283171
0.002242474535
0.002309255404
0.002386354367
0.002409080577
0.00243412396
0.002462901729
0.002453884872
0.002509047152
0.002607853336
0.002631810879
0.002574157331
0.002524101552
0.002581186954
0.002731239406
0.00288380563
0.002931888587
0.003009989134
0.003008922352
0.003049603877
0.003206056824
0.003283407896
0.003211327369
0.003203417973
0.003361398604
0.003549970075
0.003695486543
0.003800766857
0.003901397776
0.004016985042
0.004136003259
0.004251479918
0.0043817811
0.004513994358
0.004653100038
0.004817076119
0.005000871316
0.005206596849
0.00541175824
0.005536107559
0.005679898142
0.005951530785
0.006194758527
0.006388990947
0.006520888777
0.006776026408
0.00705102086
0.007353797632
0.007619141335
0.007858830838
0.008128025531
0.008583563647
0.008824247252
0.007507371344
-0.01015533395
-0.02535839559
-0.02586594074
-0.1520767114
-0.3658293259
)


100
(
-0.002332425065
-0.005891393509
-0.004672499146
-0.003217721057
-0.002044191628
-0.0008679685714
1.648813622e-05
0.0008388675869
0.001559242045
0.002285086375
0.002683500461
0.003087210732
0.003413224767
0.003407686767
0.003429480806
0.003559140035
0.003489030426
0.003290466268
0.003213765865
0.003280462198
0.003179185215
0.002990451812
0.002859817173
0.002917145328
0.002952488401
0.002826198441
0.002749934734
0.002725153166
0.00281966623
0.002926575267
0.002922448904
0.002891993241
0.002825438522
0.00281218003
0.002878237475
0.00292500846
0.002830333682
0.002714909395
0.002632511927
0.002697581246
0.002791024419
0.002786181986
0.00274133777
0.002758404423
0.002799876519
0.002891694084
0.003011345683
0.00306224848
0.003040456616
0.002966894833
0.00292682905
0.003059543794
0.003196670518
0.003186104445
0.003195352331
0.00332089675
0.00343994347
0.003625179601
0.003787237072
0.003759895366
0.003655240755
0.003623913389
0.003857662233
0.004058809254
0.004098828813
0.004240929523
0.004389827946
0.004528884458
0.00466237194
0.004795191326
0.004954260549
0.00512636664
0.005315962082
0.005448031622
0.005579529535
0.005725715127
0.005914822816
0.006146938337
0.00631214228
0.006491359316
0.006802337294
0.007027525205
0.007343246457
0.007422528403
0.007596539123
0.007977509383
0.008268886362
0.008515843715
0.00876872667
0.009130377978
0.00949608989
0.009831435694
0.01011991326
0.01042828598
0.009171134687
-0.01424695315
-0.02852016917
-0.03067639971
-0.1984217385
-0.4659853216
)


100
(
-0.001084567581
-0.005868341965
-0.004863488429
-0.003687444328
-0.002256502851
-0.001143996805
-0.0001676942112
0.0007735672865
0.001541288372
0.002294432472
0.002888312378
0.003159444003
0.003497270114
0.003694261214
0.003603149665
0.003581237448
0.00369544218
0.003623277965
0.003429538191
0.003332108763
0.00341905247
0.003392518804
0.003230616217
0.003133096965
0.003159942885
0.00324908062
0.003239388532
0.003203810358
0.003204398041
0.003233370034
0.00334240655
0.003439299306
0.003367545205
0.003244673045
0.003120638831
0.003175296263
0.003292315233
0.00325870369
0.003152777482
0.00308344073
0.003093017781
0.003215559386
0.003364388037
0.003424825048
0.003474284608
0.00344809711
0.003381106893
0.003470803035
0.00364632913
0.003627464402
0.003560443861
0.003537838272
0.003647346158
0.003857627341
0.004069033159
0.004173795466
0.004210891397
0.004139214151
0.004217540461
0.004454129484
0.004485612639
0.004423146365
0.004524159267
0.004751966463
0.004980732618
0.005190630429
0.0053424265
0.005469147009
0.005635814328
0.005825806348
0.006016150647
0.006190038963
0.006344459632
0.006491442322
0.006664848023
0.006878034359
0.007191580538
0.0074374001
0.00764679844
0.007779181638
0.008042122849
0.008268655462
0.008570167947
0.008899722301
0.009075783941
0.009398110933
0.00970675004
0.0100227136
0.01036670572
0.01059448844
0.01106096546
0.01150962421
0.01179218221
0.01184247288
0.009574141098
-0.01802154656
-0.03157368934
-0.03478873894
-0.2378418256
-0.5474991039
)


100
(
-0.001374383512
-0.00609636178
-0.005281431061
-0.003929255822
-0.00246619091
-0.001451202455
-0.000343995566
0.0006155818385
0.00155029309
0.002255664717
0.00294036917
0.003338177877
0.003481902981
0.003740006413
0.003846972633
0.003712332247
0.003662473349
0.003788258767
0.003757125795
0.003582917237
0.003472235054
0.003588993083
0.003685151514
0.003555412218
0.003496959863
0.003498646345
0.003642798969
0.00379705687
0.003772079674
0.003736880662
0.003640919576
0.003695852283
0.003817544524
0.003810862401
0.003663258828
0.003519947125
0.003487189076
0.003636035203
0.00375848595
0.003731762289
0.003715046434
0.003771132188
0.003818307615
0.003980151173
0.004146362468
0.00419351766
0.00409103691
0.003968853558
0.003965328289
0.004188591858
0.004364819378
0.004373592443
0.004482940672
0.004596411387
0.004710158473
0.004879860461
0.005092774526
0.004996162024
0.004869615925
0.004923438291
0.005197406721
0.005459197079
0.00554070268
0.005734008871
0.005896569002
0.006061152179
0.006238097118
0.006416310727
0.006619047387
0.006832314346
0.007093690429
0.007386381821
0.007572935983
0.007764980811
0.00798709497
0.008205278968
0.008366373977
0.008508315183
0.008823571897
0.009259253686
0.009550236771
0.0097306934
0.009766494106
0.01013125165
0.01059801557
0.01105534012
0.01135256038
0.0115998003
0.01193260626
0.01219380596
0.0124905362
0.01284691922
0.01325060031
0.01328956614
0.01043225118
-0.02784872107
-0.03449385986
-0.03764906549
-0.2786245026
-0.660974008
)


100
(
-0.002224346626
-0.006399238504
-0.005533388923
-0.003993724396
-0.002809056645
-0.001681918087
-0.0005723431567
0.0004521992498
0.001457618643
0.002258206484
0.002857716838
0.003407357769
0.003598693736
0.003658133191
0.003867642719
0.003936999953
0.003796007625
0.003738656118
0.00388028744
0.003934483641
0.003807219626
0.003738360015
0.003830501512
0.003987959069
0.004006309106
0.004004561901
0.004038352981
0.004114385919
0.00425760276
0.004324113131
0.0042411907
0.004091124221
0.003999978569
0.004125626876
0.004262540135
0.00413615022
0.00401716932
0.003999035577
0.004107429317
0.004299114792
0.004527991644
0.004589484916
0.004605175851
0.004506851682
0.004487153612
0.004676960784
0.004912635968
0.004803752911
0.004713981076
0.004754157666
0.004943588325
0.005273043207
0.00558072478
0.005687002393
0.005567893356
0.005406534145
0.005597966973
0.005891961245
0.005889904843
0.005867185189
0.006067771936
0.006322785938
0.006546653688
0.006727578522
0.006933507444
0.007096445093
0.007322419386
0.007568814818
0.007788739756
0.00800676301
0.008204029335
0.008407982574
0.008666297868
0.008972083936
0.009275046663
0.009638403623
0.009813428793
0.009958887157
0.01024334684
0.01058396204
0.01069054728
0.01103170644
0.01130952212
0.01160196309
0.01196338692
0.01233718826
0.01279459917
0.01319319636
0.01348435621
0.01377322215