/*--------------------------------*- C++ -*----------------------------------*\
| =========                 |                                                 |
| \\      /  F ield         | OpenFOAM: The Open Source CFD Toolbox           |
|  \\    /   O peration     | Version:  2.3.1                                 |
|   \\  /    A nd           | Web:      www.OpenFOAM.org                      |
|    \\/     M anipulation  |                                                 |
\*---------------------------------------------------------------------------*/
FoamFile
{
    version     2.0;
    format      ascii;
    class       dictionary;
    location    "constant";
    object      PM38;
}
// * * * * * * * * * * * * * * * * * * * * * * * * * * * * * * * * * * * * * //

PM38_table
100
(

100
(
-0.008559931702
0.003442288551
0.002998248261
0.00221674392
0.002209482863
0.002122912952
0.001390205318
0.001574106198
0.001212325598
0.001098990899
0.001223919693
0.0007911895256
0.0008510767648
0.0008104033397
0.0005609342815
0.0005886374745
0.0006346042615
0.000371458197
0.0003837503152
0.000434037455
0.0002991826387
0.0002475488086
0.0002658919712
0.0002601279239
0.0001644391827
0.0001713413361
0.0001878548811
0.0001669229515
0.0001002081708
0.000103389071
0.0001133209069
9.644762553e-05
6.724669757e-05
7.085571855e-05
7.664932716e-05
7.203213623e-05
4.443433149e-05
3.493246166e-05
3.777810668e-05
3.61048059e-05
2.402748336e-05
1.751130977e-05
1.92335916e-05
1.874834842e-05
1.372930791e-05
1.008043072e-05
1.120593779e-05
1.241634884e-05
7.756392444e-06
4.200623439e-06
3.396992346e-06
3.795717401e-06
2.289356881e-06
1.078986003e-06
8.200360711e-07
9.864638966e-07
6.37712258e-07
3.612614113e-07
4.809426672e-07
6.591161226e-07
3.746026505e-07
-6.355093335e-07
-6.41872424e-07
-3.840257029e-07
-6.056531049e-07
-1.260216984e-06
-1.117656075e-06
-9.922984052e-07
-1.376071305e-06
-1.51605198e-06
-1.355065043e-06
-1.407207749e-06
-1.693279938e-06
-1.543263641e-06
-1.686291394e-06
-1.878798484e-06
-1.687889837e-06
-1.701992833e-06
-1.778833224e-06
-1.543392837e-06
-1.639729748e-06
-1.555591233e-06
-1.453836343e-06
-1.586181521e-06
-1.353807642e-06
-1.41270791e-06
-1.419516458e-06
-1.268936876e-06
-1.399023481e-06
-1.246866797e-06
-1.299732027e-06
-1.268730667e-06
-1.380902872e-06
-1.355492345e-06
-1.45811504e-06
-1.390793902e-06
-1.3874155e-06
-1.168572649e-06
-6.250566195e-08
1.60948452e-07
)


100
(
-0.009673841354
0.002546801444
0.002247427279
0.001676828081
0.001948009994
0.00150024178
0.001321177164
0.001110689291
0.001014472389
0.0007530419559
0.0008207005831
0.0005681883949
0.0005417079116
0.0005304610139
0.0003819570808
0.0003490945283
0.000357120248
0.0002682596237
0.000210790292
0.0002232826218
0.0001866758758
0.0001465800438
0.0001306186593
0.0001276291706
0.0001045440127
8.611987404e-05
8.310623653e-05
7.689720702e-05
6.152489997e-05
4.942914094e-05
4.444652111e-05
4.061851255e-05
3.488938167e-05
3.015158112e-05
2.759731028e-05
2.690048292e-05
2.085134912e-05
1.651567591e-05
1.27184028e-05
1.074773738e-05
8.46400224e-06
6.814574779e-06
5.422142961e-06
3.711744461e-06
3.115888097e-06
2.71400673e-06
2.407417593e-06
2.042654918e-06
8.003474637e-07
2.321713608e-07
-2.172684837e-07
-7.620484554e-07
-1.83765056e-06
-1.92158469e-06
-1.899752188e-06
-2.03244013e-06
-2.743161525e-06
-2.486634911e-06
-2.251550352e-06
-2.260061633e-06
-3.009600646e-06
-3.078239825e-06
-3.491748187e-06
-3.580796101e-06
-3.322275498e-06
-3.280742321e-06
-3.593501701e-06
-3.739947912e-06
-3.442958915e-06
-3.556513043e-06
-3.669454378e-06
-3.617427567e-06
-3.501557115e-06
-3.507355066e-06
-3.56963756e-06
-3.937059204e-06
-4.333470219e-06
-4.17798066e-06
-4.20589407e-06
-4.21838331e-06
-4.068759519e-06
-4.302570716e-06
-4.154234743e-06
-4.475406454e-06
-4.471731754e-06
-4.376207487e-06
-4.617475584e-06
-4.581857713e-06
-4.727524207e-06
-5.034121712e-06
-5.22611734e-06
-5.400051055e-06
-5.745800942e-06
-6.270263486e-06
-6.509697974e-06
-6.912031828e-06
-7.303270692e-06
-5.939357965e-06
-1.962954411e-06
-3.689087565e-05
)


100
(
-0.006153180422
0.00169326873
0.001363596339
0.00137696633
0.001339072522
0.0008287355599
0.0008918760949
0.0005724964091
0.0005858802434
0.0004220651478
0.0003782790392
0.0003164150209
0.0002173683
0.0002169596214
0.0001814936926
0.0001275097595
0.0001167071426
0.0001085246183
8.011907455e-05
5.745207427e-05
5.912497814e-05
4.956332183e-05
3.623233448e-05
2.74776594e-05
2.95071267e-05
2.232759642e-05
1.621522128e-05
1.2609556e-05
1.472485165e-05
1.012872322e-05
6.164760222e-06
2.871774265e-06
3.934859679e-06
2.150069794e-06
6.630273409e-07
-6.124174243e-07
-3.442152639e-07
-5.05406934e-07
-2.210284937e-06
-3.704815118e-06
-4.947808019e-06
-5.398220898e-06
-6.051535553e-06
-6.782213474e-06
-7.442302139e-06
-8.60320919e-06
-8.758114384e-06
-8.928811236e-06
-9.082884724e-06
-1.066877216e-05
-1.024900088e-05
-1.053330827e-05
-1.092998766e-05
-1.25415297e-05
-1.243994754e-05
-1.204129206e-05
-1.215286768e-05
-1.377606704e-05
-1.332420376e-05
-1.196851737e-05
-1.16177302e-05
-1.242066561e-05
-1.297231277e-05
-1.353460352e-05
-1.308033703e-05
-1.217546002e-05
-1.200686136e-05
-1.219586438e-05
-1.208072356e-05
-1.223050955e-05
-1.264590821e-05
-1.306021345e-05
-1.332121514e-05
-1.405928744e-05
-1.372186124e-05
-1.346374852e-05
-1.522647295e-05
-1.568899653e-05
-1.529031771e-05
-1.692784751e-05
-1.640426878e-05
-1.670933397e-05
-1.752537796e-05
-1.707583655e-05
-1.824502534e-05
-1.859413644e-05
-1.947089644e-05
-2.074864526e-05
-2.104629867e-05
-2.239864386e-05
-2.401621216e-05
-2.535497458e-05
-2.62310109e-05
-2.839659273e-05
-3.100857449e-05
-3.352653252e-05
-4.026330907e-05
-3.924011841e-05
-0.0001091458219
-0.0001562952415
)


100
(
-0.002366316797
0.001654456779
0.001214846713
0.001108768362
0.0007707020585
0.0006161823923
0.0005152152355
0.0004058988031
0.0003203561656
0.0002848469831
0.0001905250713
0.0001818132285
0.0001380688575
9.894008142e-05
9.631549932e-05
7.704876371e-05
5.339016067e-05
4.860901945e-05
4.796505039e-05
3.422889012e-05
2.288904477e-05
2.369803724e-05
2.117932218e-05
1.35422041e-05
7.028451297e-06
8.579809366e-06
6.273806284e-06
1.881938478e-06
-2.067461631e-06
-1.326940002e-06
-1.818131138e-06
-5.616102005e-06
-9.045476637e-06
-1.138891966e-05
-1.026994046e-05
-1.204301597e-05
-1.389578999e-05
-1.764254297e-05
-1.576763261e-05
-1.623500083e-05
-1.856317856e-05
-2.140615424e-05
-2.411627031e-05
-2.240411721e-05
-2.309724516e-05
-2.543130021e-05
-3.067760085e-05
-2.879446422e-05
-2.752198095e-05
-2.920689605e-05
-3.351092609e-05
-3.210351647e-05
-2.955516734e-05
-3.070686641e-05
-3.34678779e-05
-3.28220923e-05
-2.959573145e-05
-3.107139776e-05
-3.346949073e-05
-3.289299007e-05
-2.971982756e-05
-2.887434248e-05
-2.92801252e-05
-3.024084308e-05
-3.132114504e-05
-3.181190262e-05
-3.193329933e-05
-3.247996127e-05
-3.283551306e-05
-3.316644464e-05
-3.370198193e-05
-3.443805577e-05
-3.540842933e-05
-3.753445726e-05
-4.021797287e-05
-3.853275405e-05
-3.801108703e-05
-4.268739616e-05
-4.137974433e-05
-4.189875715e-05
-4.593068407e-05
-4.491220735e-05
-4.823239679e-05
-5.000594441e-05
-5.186875957e-05
-5.383666426e-05
-5.53475478e-05
-5.949205818e-05
-6.275457864e-05
-6.643498511e-05
-6.83919224e-05
-7.314308774e-05
-7.708303851e-05
-8.098583039e-05
-8.838506055e-05
-9.785271039e-05
-0.0001251408168
-0.0001951941189
-0.0007984214694
-0.001668266831
)


100
(
-0.001209018204
0.001439756363
0.0009807994862
0.0006752669451
0.0004576911139
0.0004758183227
0.0003056164203
0.0003085291949
0.0002096682376
0.0001948841113
0.0001567467865
0.0001170605666
0.0001150122268
8.215035359e-05
6.348716794e-05
6.494885794e-05
5.254612344e-05
3.695498049e-05
3.479902279e-05
3.852890247e-05
2.64114554e-05
1.627271002e-05
1.517965782e-05
1.638981274e-05
7.873814085e-06
1.619019505e-07
-2.217422771e-06
-1.063566712e-06
-6.833192422e-06
-1.229918147e-05
-1.671881586e-05
-1.339055945e-05
-1.734477298e-05
-2.255692596e-05
-3.165637372e-05
-2.846997105e-05
-2.773396227e-05
-3.029042538e-05
-4.291862465e-05
-4.045318115e-05
-3.77221683e-05
-3.715828523e-05
-4.607958547e-05
-4.986140221e-05
-4.652134207e-05
-4.119007461e-05
-4.881133137e-05
-5.683275388e-05
-5.305733521e-05
-4.723890377e-05
-5.165622148e-05
-5.695757023e-05
-5.552965561e-05
-5.169574129e-05
-5.356379802e-05
-5.705396534e-05
-5.654380794e-05
-5.413052765e-05
-5.611048997e-05
-6.000288629e-05
-6.202486537e-05
-6.150359581e-05
-6.152834538e-05
-6.230940423e-05
-6.38243072e-05
-6.582289804e-05
-6.696926583e-05
-6.794946671e-05
-6.901149698e-05
-6.933706699e-05
-6.990397595e-05
-7.061927417e-05
-7.090818179e-05
-7.079940413e-05
-7.602046634e-05
-8.285549368e-05
-7.71871064e-05
-8.10981133e-05
-8.821692202e-05
-8.663121123e-05
-9.186983425e-05
-9.659367679e-05
-9.815150044e-05
-0.0001044764292
-0.0001106200287
-0.0001166522192
-0.0001200545422
-0.0001235207641
-0.0001330685714
-0.0001398459995
-0.0001460093938
-0.0001547363836
-0.000161191921
-0.0001741924769
-0.0001848613417
-0.0002134862446
-0.0002777339652
-0.0007856930684
-0.002160812039
-0.004549304582
)


100
(
-0.001004436103
0.0009313855474
0.0005947034248
0.0003708815622
0.0003551521985
0.0003122360419
0.0002437443908
0.0002181655338
0.0001951937501
0.0001495483585
0.0001581366777
0.000117220501
0.0001012643475
0.0001001359351
7.364868278e-05
6.248533079e-05
6.775790379e-05
5.695766553e-05
4.199971812e-05
3.910419395e-05
4.525172648e-05
3.358994643e-05
2.085633224e-05
1.443128342e-05
1.891794274e-05
8.500786011e-06
-3.457687659e-06
-6.861960718e-06
-1.584083768e-06
-6.203628102e-06
-1.765302189e-05
-3.005597399e-05
-2.537777313e-05
-2.169078494e-05
-3.406321481e-05
-5.047962321e-05
-4.598835159e-05
-3.589889066e-05
-4.578680633e-05
-6.337023293e-05
-6.018185322e-05
-5.405573058e-05
-5.27584e-05
-6.542821336e-05
-6.972766595e-05
-6.185636652e-05
-5.685509061e-05
-6.778156417e-05
-7.815938892e-05
-7.208557632e-05
-6.813494208e-05
-7.396881549e-05
-8.083486113e-05
-8.176501417e-05
-7.971536542e-05
-8.29072437e-05
-8.751330509e-05
-8.891191139e-05
-8.923112195e-05
-9.007523268e-05
-9.330987774e-05
-9.706554508e-05
-0.0001004001467
-0.0001030387258
-0.0001037707423
-0.0001049811975
-0.0001068862694
-0.0001092645078
-0.0001132280502
-0.0001158590677
-0.0001177852307
-0.0001197749031
-0.0001228482664
-0.0001230902434
-0.0001199643256
-0.000128283383
-0.0001380815842
-0.0001372824012
-0.0001430967518
-0.0001489572925
-0.0001559687771
-0.0001629065076
-0.0001706674971
-0.000178493791
-0.0001860265241
-0.0001941448265
-0.0002068765851
-0.0002123123631
-0.0002301755322
-0.0002450774692
-0.0002518312892
-0.0002649561112
-0.0002831457143
-0.0003036189507
-0.0003268416605
-0.0004076560895
-0.0005684099401
-0.001958083089
-0.004532008019
-0.01013391858
)


100
(
-0.001157303781
0.0005239001874
0.0002990865309
0.0002221804978
0.0002603826774
0.0001993533363
0.0002226324567
0.000168332159
0.0001922197416
0.0001593525125
0.0001502583509
0.0001516775953
0.0001165865214
0.0001137952046
0.0001122657758
8.786340303e-05
7.924616717e-05
8.890627633e-05
7.95234699e-05
6.187451894e-05
5.411905032e-05
6.182518064e-05
5.091199978e-05
3.174556107e-05
1.35936764e-05
1.930078887e-05
1.439622346e-05
-1.649973595e-06
-4.091500227e-06
1.885165312e-06
6.889272334e-06
-2.474118429e-05
-3.819957286e-05
-3.218879332e-05
-1.717600497e-05
-4.43466242e-05
-6.255126729e-05
-5.591170823e-05
-3.458444746e-05
-5.540534401e-05
-7.626199747e-05
-7.308756613e-05
-5.963352791e-05
-6.477512853e-05
-8.062898032e-05
-8.509635123e-05
-7.548409118e-05
-7.213883128e-05
-8.715857313e-05
-9.793598389e-05
-9.683962577e-05
-9.425212093e-05
-0.0001000377943
-0.0001067801988
-0.0001119059775
-0.0001159864748
-0.0001172131158
-0.0001186139977
-0.0001219012054
-0.0001247211568
-0.0001266251484
-0.0001258360891
-0.0001284159098
-0.0001332449343
-0.0001396627816
-0.0001451016814
-0.0001503748288
-0.0001535339097
-0.0001586048898
-0.000166025357
-0.0001734518032
-0.0001769173078
-0.0001804613234
-0.0001861591972
-0.0001928096637
-0.0001915721254
-0.0002008495205
-0.0002085307237
-0.0002182044614
-0.0002226091706
-0.0002334369825
-0.000243051229
-0.0002532593715
-0.0002651255059
-0.0002797863194
-0.0002973579125
-0.0003116365488
-0.0003234425062
-0.0003381625715
-0.0003743887774
-0.0003991431395
-0.0004181972961
-0.0004469161233
-0.0004792457321
-0.0005309819115
-0.0007116132612
-0.001149509658
-0.003841941121
-0.008968214142
-0.0200155799
)


100
(
-0.0008066758996
0.0002610060852
0.0001156725722
0.0001066517601
0.000138982244
0.0001520865276
0.0001780669586
0.0001749368493
0.0001772834561
0.0001962182948
0.0001601694644
0.000172655784
0.0001662240845
0.000135235049
0.0001429059039
0.0001417282084
0.0001159993339
0.0001053036647
0.0001197002429
0.0001102374383
8.404534644e-05
6.311399072e-05
7.207363483e-05
6.806230017e-05
4.415150336e-05
1.815354004e-05
1.804849034e-05
1.118413974e-05
-8.425090009e-06
-8.398484426e-06
4.56460947e-06
1.224598213e-05
-3.561731046e-05
-4.85105975e-05
-3.29416928e-05
-2.170557914e-05
-5.634782661e-05
-7.608049804e-05
-5.644261595e-05
-4.352480926e-05
-6.738587125e-05
-9.220871014e-05
-8.371804181e-05
-7.646336476e-05
-8.403381796e-05
-0.0001032584363
-0.0001069341608
-0.0001014496413
-9.758718896e-05
-0.0001123504139
-0.0001192389731
-0.0001278483238
-0.0001301943272
-0.0001295466704
-0.0001328075756
-0.0001409350138
-0.0001494563496
-0.0001542234609
-0.0001543841845
-0.0001572303287
-0.0001620371638
-0.000168800343
-0.0001748636236
-0.0001787689663
-0.000183665919
-0.0001905528083
-0.0002018497112
-0.0002114533008
-0.0002158120828
-0.0002198660599
-0.0002281891368
-0.0002414151848
-0.000252466662
-0.0002603908615
-0.0002692409748
-0.0002818183652
-0.000290194596
-0.0002975753106
-0.0003141235636
-0.0003271128971
-0.0003382760089
-0.000355350229
-0.0003675481461
-0.0003932403334
-0.0004129399318
-0.0004365103718
-0.0004632552819
-0.0004934751531
-0.0005090391702
-0.0005440472235
-0.0005887917897
-0.0006243036601
-0.0006822147003
-0.0007308137474
-0.0007990634655
-0.001164215289
-0.002345351457
-0.006285157757
-0.01639556504
-0.04025432226
)


100
(
-0.0004952605178
6.170636911e-05
-5.169136335e-05
-1.57044258e-05
4.899467085e-05
0.0001212575073
0.0001386668649
0.0001933847827
0.0001735667457
0.0002060372864
0.0002093617993
0.0001846903802
0.0002120804817
0.0001966390733
0.0001661007856
0.0001829168828
0.0001810715571
0.0001467168602
0.0001250481538
0.0001386090572
0.0001333698687
0.0001009189386
6.365247759e-05
7.451186246e-05
8.53085476e-05
5.541547558e-05
2.354021891e-05
7.705544982e-06
-3.747258848e-06
-2.498528671e-05
-2.307682466e-05
1.503115116e-05
-3.583377023e-06
-5.550427028e-05
-6.762626891e-05
-3.388797767e-05
-3.978878857e-05
-7.860589762e-05
-9.63125165e-05
-7.363938983e-05
-6.661206301e-05
-9.296636035e-05
-0.0001181316118
-0.0001160002428
-0.0001100042862
-0.0001166505934
-0.0001299790914
-0.0001382962217
-0.0001446219158
-0.0001406695773
-0.0001418537902
-0.0001501031375
-0.0001629870111
-0.0001738509885
-0.0001770036212
-0.0001722480857
-0.0001804723092
-0.0001921387166
-0.000205104884
-0.000216257273
-0.0002227162049
-0.000229114407
-0.0002369069498
-0.0002501815525
-0.0002620358422
-0.0002663209264
-0.0002670838551
-0.0002776309797
-0.000293382921
-0.0003107175022
-0.0003223498184
-0.0003331696821
-0.0003509195286
-0.0003702335371
-0.0003842732019
-0.0003982167207
-0.000421738506
-0.0004422507261
-0.0004603880301
-0.000485618658
-0.0005007789435
-0.0005326835205
-0.0005575558226
-0.0005833671204
-0.0006164988925
-0.0006525908268
-0.0006921513227
-0.0007310426147
-0.0007704649261
-0.0008195849793
-0.0008753855455
-0.0009416601887
-0.0009846912537
-0.001089601255
-0.001253659969
-0.00179536337
-0.004414005044
-0.009240363877
-0.0273180422
-0.06573209572
)


100
(
-0.000380746326
-0.0001508500811
-0.0002075732843
-0.0001138632933
-1.268075145e-05
7.44838817e-05
0.0001261600251
0.0001763860843
0.0002077279547
0.0002087870306
0.0002569921165
0.0002411877117
0.0002329847592
0.0002662691363
0.0002379546062
0.000196288856
0.0002138596912
0.0002111261162
0.0001677852098
0.000130807502
0.0001471201275
0.0001535074681
0.0001128541708
6.785612339e-05
6.202169707e-05
7.918938739e-05
5.771196153e-05
2.164095227e-05
-1.009058974e-05
-2.93040255e-05
-5.164747125e-05
-3.736878136e-05
1.653393814e-06
-3.054683752e-05
-8.69207239e-05
-8.410085221e-05
-6.290784383e-05
-7.189604068e-05
-0.0001158414991
-0.0001248488603
-0.000114695255
-0.0001058263309
-0.0001313301141
-0.0001455141651
-0.0001621847742
-0.0001627516423
-0.0001596202604
-0.0001667675337
-0.0001804642839
-0.0001953918266
-0.0002083418877
-0.0001988735803
-0.0002002249243
-0.0002139937323
-0.0002299835734
-0.0002433343462
-0.0002585437191
-0.0002612050877
-0.0002731476239
-0.0002878275232
-0.0003110078715
-0.0003291208115
-0.0003326286405
-0.0003347523061
-0.0003488784146
-0.0003675614645
-0.0003870523414
-0.0004023078365
-0.000413508841
-0.0004322521123
-0.0004619576262
-0.0004853385826
-0.0004968469626
-0.0005199919819
-0.0005587719035
-0.0005911743138
-0.0006219104001
-0.0006583670888
-0.0006815159382
-0.0007183966872
-0.000758891363
-0.000796560003
-0.0008465311688
-0.0008717993407
-0.0009279056907
-0.000971105625
-0.001038184836
-0.001094111221
-0.001158938061
-0.00122483705
-0.001298601863
-0.001390696835
-0.001481980978
-0.001598485755
-0.0018775545
-0.00282322698
-0.00782635282
-0.0125685603
-0.03970467907
-0.09348140057
)


100
(
-0.0002910013705
-0.0002816043224
-0.0003136557269
-0.0001912714618
-8.137225539e-05
3.088128751e-05
0.000124824223
0.0001619411711
0.0002399642877
0.000245562622
0.000272985504
0.0003273693608
0.0002931926379
0.0002914557413
0.0003238913135
0.0002750255441
0.0002197891864
0.0002411718539
0.0002444888447
0.0001930886123
0.0001331953902
0.0001473136128
0.0001713776143
0.0001232117088
7.33407388e-05
4.583002192e-05
6.501664142e-05
6.29701845e-05
2.368951794e-05
-1.11579268e-05
-5.64476234e-05
-8.134502511e-05
-3.520941958e-05
-2.217862039e-05
-6.01882536e-05
-0.0001204590872
-0.0001112066289
-0.0001014398453
-0.0001083444675
-0.0001418470846
-0.0001590842011
-0.0001606024783
-0.0001515455743
-0.0001573396591
-0.000174950423
-0.0002008681156
-0.0002224249473
-0.0002200262315
-0.0002100161509
-0.0002250922138
-0.0002451296592
-0.0002648036208
-0.0002750134306
-0.0002818527793
-0.000290198657
-0.000309074808
-0.0003292687863
-0.0003615759485
-0.0003832816797
-0.0003820303498
-0.0003853832889
-0.0004104585135
-0.0004380312054
-0.0004590468652
-0.0004788627086
-0.0004968285899
-0.0005193282188
-0.0005556363569
-0.0005899457076
-0.0005953357649
-0.0006095291484
-0.0006478181276
-0.0007020766407
-0.0007375727456
-0.0007790338329
-0.0008278333407
-0.0008617886406
-0.0009061435581
-0.0009711842865
-0.001024082967
-0.00108499609
-0.001132437128
-0.001193112063
-0.001253608462
-0.001319280539
-0.001387135654
-0.001469914927
-0.001558255038
-0.001643863892
-0.001753697347
-0.001860870394
-0.001964913317
-0.002074906138
-0.002256027312
-0.002740841665
-0.004273725439
-0.01293275825
-0.01597612199
-0.05486179331
-0.1304448827
)


100
(
-0.0002062111449
-0.0003826451228
-0.0003901376018
-0.0002956168985
-0.0001415619534
-2.633694143e-06
0.0001047709732
0.0001800683007
0.0002435625493
0.0003182280229
0.0003113848258
0.0003664621312
0.0004044041477
0.0003561688264
0.0003536753145
0.0003945813684
0.0003344894457
0.0002641377604
0.0002764042828
0.0002912055152
0.0002291803822
0.0001636268838
0.0001579365761
0.0001847888942
0.000153443738
9.994883962e-05
5.150924475e-05
6.621819379e-05
8.59099686e-05
4.787755568e-05
8.6763256e-06
-6.309133793e-05
-8.153068519e-05
-4.562027002e-05
-3.466828829e-05
-7.676776775e-05
-0.0001124096993
-0.0001313052167
-0.0001171965276
-0.0001160481145
-0.0001342482262
-0.0001624488203
-0.0001923142912
-0.0001930621419
-0.000175473598
-0.0001842302024
-0.0002133260788
-0.0002432567218
-0.0002628624756
-0.0002612354034
-0.0002549675071
-0.0002830210591
-0.000308777337
-0.0003363192905
-0.0003751323811
-0.0003812985082
-0.0003733102229
-0.0003916974624
-0.000427156983
-0.000464493615
-0.0004818604979
-0.0004876739871
-0.0005177729185
-0.0005521448659
-0.0005954684159
-0.0006481061523
-0.000652951182
-0.0006618179097
-0.0007036344618
-0.0007514480125
-0.0008029897646
-0.0008389386155
-0.0008915790459
-0.0009476615207
-0.0009806858473
-0.001017136526
-0.001093550341
-0.001161765355
-0.001241835127
-0.001315516067
-0.001363905191
-0.001451426963
-0.001534702526
-0.001634851021
-0.001689174694
-0.00179067032
-0.001890002974
-0.001981440243
-0.002091217365
-0.002269531439
-0.002397237409
-0.002481280715
-0.002593276113
-0.002754184072
-0.003853484285
-0.006632768572
-0.01945191195
-0.02050621763
-0.07341440612
-0.1744299605
)


100
(
-0.0002122092019
-0.000481926174
-0.0005197938439
-0.0004163723636
-0.0001874056354
-4.204507849e-05
7.964307205e-05
0.0002074944353
0.0002606466221
0.0003606131654
0.0004181811492
0.0004058103901
0.0004782907504
0.000497234444
0.0004386447791
0.0004398789924
0.0004862385298
0.0004136713307
0.0003277053064
0.0003253410825
0.0003636496732
0.0002917760037
0.0002209609477
0.0001916196529
0.0002217069238
0.0002172155509
0.0001594077586
0.0001093831406
9.248610126e-05
0.0001155239556
0.0001093929635
6.431809927e-05
-2.624543115e-05
-4.759467273e-05
-2.544304746e-05
-4.007726898e-07
-2.372938771e-05
-4.782700705e-05
-9.404585932e-05
-0.0001120682659
-9.059714933e-05
-9.162394383e-05
-0.0001248852398
-0.0001615717483
-0.0001936854158
-0.0001803307278
-0.0001649710881
-0.0001849727981
-0.0002194593187
-0.000249480826
-0.0002875351878
-0.000299046659
-0.0002984869359
-0.0003046919667
-0.0003396625694
-0.0003865507339
-0.0004259124537
-0.0004069104822
-0.0004065008874
-0.0004464667456
-0.0004962889155
-0.000544164661
-0.0005843722429
-0.0005983474845
-0.0006073959323
-0.0006621039873
-0.0007232796661
-0.0007398625618
-0.0007769646547
-0.0008403359772
-0.0009054200853
-0.0009674967665
-0.0009944139304
-0.001026944273
-0.001084965047
-0.001174296373
-0.001259727727
-0.001344745284
-0.001381205788
-0.001445795843
-0.001560271182
-0.001663354841
-0.001765113645
-0.00182590331
-0.001956482847
-0.002075340652
-0.002151832692
-0.002295662324
-0.002502603587
-0.002567306192
-0.002828345702
-0.002912256167
-0.003124211347
-0.003375509526
-0.00483693376
-0.01168506696
-0.02689342928
-0.02574613064
-0.1063965527
-0.2487505896
)


100
(
-0.0002689160296
-0.0006314957563
-0.0006701532866
-0.0004623888266
-0.0002456943608
-9.124231201e-05
6.186300998e-05
0.000198304165
0.0003208353644
0.0003908579566
0.000517769509
0.0005347386772
0.00053072277
0.0006074843625
0.0006095040111
0.0005289493255
0.0005244061327
0.0005759268485
0.0004997672277
0.0004068447176
0.0003865637151
0.0004281678888
0.0003759941362
0.0003019300052
0.0002402185861
0.0002752026836
0.0003039943051
0.0002492673212
0.0001981865069
0.000157948431
0.0001682097056
0.0001928772206
0.0001535389244
8.674145569e-05
6.040021407e-05
3.562357268e-05
5.502055241e-05
7.694692044e-05
4.071224443e-05
-1.404411873e-05
-6.608693959e-05
-6.114744549e-05
-2.205599421e-05
-4.743314672e-05
-8.907418933e-05
-0.0001246464391
-0.0001470355979
-0.0001530085404
-0.000143825222
-0.0001640442707
-0.00019349887
-0.0002482446858
-0.0003044166599
-0.0002843832143
-0.0002435159171
-0.0002837755435
-0.0003412726606
-0.000384861154
-0.0004285416696
-0.0004276517989
-0.0004302014472
-0.0004619374857
-0.0005365733004
-0.0006117847994
-0.0005964431255
-0.0005925952505
-0.0006731243799
-0.0007612457676
-0.0008207695205
-0.0008736561677
-0.0008930983674
-0.0009306461866
-0.0009705296168
-0.001043825538
-0.001124386193
-0.001221175976
-0.001280745822
-0.001334653691
-0.001393791953
-0.00151289929
-0.001643891748
-0.00172420932
-0.001783132946
-0.001920990591
-0.002069382989
-0.002164687104
-0.002279013662
-0.002412364625
-0.002515311539
-0.002708909552
-0.002801688934
-0.003057626698
-0.003345192246
-0.003943915058
-0.005820716134
-0.01891288968
-0.03490409414
-0.03206863774
-0.1417014282
-0.3142460659
)


100
(
-0.0003156343524
-0.000723909626
-0.0007170555716
-0.0004958209856
-0.0003343613651
-0.0001336588249
4.111003978e-05
0.0001833434015
0.0003634792259
0.0004597691008
0.0005501082243
0.0006827443839
0.0006564227153
0.0006492536923
0.0007238844203
0.0007061784032
0.0006078456827
0.0005886296458
0.0006480512702
0.0005822391951
0.0004865376328
0.000439919468
0.0004867713564
0.0004664062413
0.0003917697065
0.0003321824348
0.0003294605365
0.0003658121611
0.0003620287671
0.000308707992
0.0002674274333
0.0002140835194
0.0002362907989
0.0002654569054
0.0002221658904
0.0001712171216
0.0001019534698
8.993177517e-05
0.0001387838124
0.0001432238555
8.126665327e-05
2.288583893e-05
-1.457702695e-05
6.544717347e-06
3.37391266e-05
8.245855597e-07
-3.961246326e-05
-7.402627563e-05
-0.0001553169251
-0.0001444476701
-0.0001003214009
-0.0001055798334
-0.0001766488848
-0.0002488525481
-0.0002801142362
-0.0002416013953
-0.0002227003466
-0.0002818318153
-0.0003147869333
-0.0004276266169
-0.0004542142499
-0.0004038251407
-0.0004084388514
-0.0005001604656
-0.0005799798219
-0.0006397686348
-0.0006799169098
-0.0007464118271
-0.0007862256723
-0.0008216625823
-0.0008421694863
-0.0008616148692
-0.0009740562551
-0.001078322256
-0.001170272584
-0.001194757433
-0.001234514479
-0.001308661374
-0.001453467953
-0.001574606053
-0.001632766706
-0.001684340268
-0.001831917185
-0.002012763637
-0.002076167105
-0.002185196985
-0.002389493151
-0.002557414028
-0.00264213036
-0.002699959341
-0.002851147786
-0.002936547656
-0.002991118536
-0.003569792784
-0.006636528698
-0.02656269295
-0.04219046811
-0.04005309235
-0.2006695611
-0.4745376402
)


100
(
-0.0002394044132
-0.0007335323095
-0.0007283831433
-0.0005734910349
-0.0004099492653
-0.0001761930938
3.657155334e-06
0.0001855209364
0.000353211717
0.000539820197
0.0005938155852
0.0007000016185
0.0008031729645
0.0007489936195
0.0007328017081
0.0008083529661
0.0007794587688
0.0006699089595
0.0006344157894
0.0006987147727
0.0006566992052
0.0005608108119
0.0004805739361
0.0005324231857
0.0005697429663
0.0004866608521
0.0004297218046
0.0003785039989
0.0004227628203
0.000461507915
0.0004151518119
0.0003628992157
0.0002901314522
0.0002673977664
0.0003103444496
0.0003387461581
0.0002711840598
0.0001950965479
0.0001201421387
0.0001581393427
0.000209313766
0.0001774950563
0.000113457
8.000404498e-05
2.881885217e-05
2.667378232e-05
5.022821416e-05
4.509958863e-05
-1.929627606e-06
-8.988289277e-05
-0.0001743530731
-0.000101935836
-4.703437003e-05
-0.0001239110566
-0.0001992060347
-0.0002326602573
-0.0002938360848
-0.0002743646645
-0.0002136743974
-0.0002790038698
-0.0004105599672
-0.0005175855649
-0.0004391393641
-0.000421619873
-0.0005488309096
-0.0006414256111
-0.0007046446774
-0.0007195472841
-0.0007412796103
-0.0007805933242
-0.0008414869752
-0.0009709598672
-0.001072440292
-0.001136456042
-0.001167318343
-0.00120091357
-0.001288300996
-0.001439169527
-0.001585161422
-0.001647686038
-0.001677926515
-0.001832894092
-0.001992201174
-0.002062582401
-0.002152741871
-0.002560505279
-0.002699160991
-0.002683490578
-0.002983391518
-0.003096081255
-0.003315870086
-0.003803431001
-0.003561947077
-0.004323704684
-0.006888642826
-0.03357687416
-0.04858290324
-0.04806658895
-0.2597973884
-0.5969017638
)


100
(
-0.0001124886494
-0.0007202486408
-0.0007547397624
-0.000682371548
-0.0004430833176
-0.0002427015158
-3.658556633e-05
0.0001807676202
0.0003461016775
0.0005385773428
0.0006846691451
0.0007038022792
0.0008176429983
0.0008863275762
0.0008058081294
0.0007809217981
0.0008598533999
0.0008300809142
0.0007229684357
0.0006650489974
0.0007346873368
0.0007297151826
0.0006366554187
0.0005681872457
0.0005725970542
0.0006241279197
0.0005954801474
0.0005436529145
0.0004906434063
0.0004468514604
0.000488181822
0.0005351434443
0.0004745388981
0.000384312574
0.0002812373967
0.0003229774229
0.0004032966592
0.0003671649652
0.0002835269279
0.0002119428752
0.000166935642
0.000209843227
0.0002514768463
0.0002094476935
0.0001680507803
9.155374566e-05
-1.670422128e-05
1.93836081e-05
0.0001265881606
6.127580641e-05
-3.870474969e-05
-0.0001312466357
-0.0001479519504
-0.0001056542107
-7.727064952e-05
-0.0001334720058
-0.000215445917
-0.0003671963334
-0.0003745555688
-0.0002277860508
-0.0002972781755
-0.000444059065
-0.0005489835889
-0.0006119201306
-0.0006845223151
-0.0006740219186
-0.0006930496534
-0.000729347611
-0.0007439097796
-0.0008011931333
-0.0009451645196
-0.001101664655
-0.001156093167
-0.0012061785
-0.00125392376
-0.001396340796
-0.001536638345
-0.001638171006
-0.001663935855
-0.001740331404
-0.001870420087
-0.002167133821
-0.002244817997
-0.002255618695
-0.002500975348
-0.002662543746
-0.002874870888
-0.003029031462
-0.002991670272
-0.003395495006
-0.003354623953
-0.003854392861
-0.004330206786
-0.005086595893
-0.009399222808
-0.0403770617
-0.05429369811
-0.05304476791
-0.2994226265
-0.6735372897
)


100
(
-0.0001422945942
-0.0007589527842
-0.0008466423903
-0.0007283507334
-0.0004785702333
-0.0003163781897
-7.525851015e-05
0.0001432654116
0.0003674948942
0.0005176936162
0.000713639844
0.0008051644511
0.0007946732178
0.0009019398403
0.000944981196
0.0008504010516
0.0008106432127
0.0008988077646
0.0008870139536
0.0007842738536
0.0006988838781
0.0007740068463
0.0008357412832
0.0007367276202
0.0006751249426
0.0006258304712
0.0006894670693
0.0007445766857
0.0006626640055
0.0006087064209
0.0004897112974
0.0005179347018
0.0005989792749
0.0005941022469
0.0004871304267
0.0003824860792
0.000327854166
0.000416590548
0.0004724804282
0.0004023371252
0.0003339139887
0.0002943917812
0.0001991135618
0.0002384525229
0.0003058808422
0.0002970796485
0.000187774664
6.069737711e-05
-1.118173113e-05
0.0001066537712
0.0001524899516
3.641629898e-05
-2.824854839e-05
-0.0001042805458
-0.0001711430913
-0.0001297175022
-2.586127511e-05
-0.0001852079657
-0.0003698651052
-0.0004436148139
-0.0003492471924
-0.0003576265308
-0.0005248378252
-0.0006146737055
-0.0006450476913
-0.0006676710877
-0.0006922468066
-0.0007347937918
-0.0008581897811
-0.001045029945
-0.001151921492
-0.001127063639