/*--------------------------------*- C++ -*----------------------------------*\
| =========                 |                                                 |
| \\      /  F ield         | OpenFOAM: The Open Source CFD Toolbox           |
|  \\    /   O peration     | Version:  2.3.1                                 |
|   \\  /    A nd           | Web:      www.OpenFOAM.org                      |
|    \\/     M anipulation  |                                                 |
\*---------------------------------------------------------------------------*/
FoamFile
{
    version     2.0;
    format      ascii;
    class       dictionary;
    location    "constant";
    object      PM40;
}
// * * * * * * * * * * * * * * * * * * * * * * * * * * * * * * * * * * * * * //

PM40_table
100
(

100
(
-0.8988199929
-0.3184936625
-0.2137816564
-0.1074141957
-0.08503085004
-0.04970674977
-0.02086470505
-0.007110040183
0.004258594882
0.02026839074
0.02255750531
0.03457349299
0.04282919485
0.04435246662
0.0453783863
0.05258660538
0.05694131208
0.04700823524
0.05397669127
0.06100496892
0.05240234118
0.05102175564
0.05777383049
0.06040236119
0.04754258823
0.05414547322
0.06121554462
0.05943006834
0.04317219883
0.04832786259
0.05489256004
0.05250789419
0.04285936603
0.04880759347
0.05515081634
0.05542209736
0.03982439027
0.034860557
0.03988771122
0.04098904241
0.03129692824
0.02560520314
0.03010089919
0.03180858306
0.02648845783
0.02182774027
0.0261045743
0.03072504468
0.02164707923
0.01312546879
0.01153629399
0.01380526251
0.009304814825
0.004877509746
0.004046944969
0.005319531022
0.003818961927
0.002342118545
0.003184939082
0.004120408896
0.002166122752
-0.004095637874
-0.004950948544
-0.003069960243
-0.004652383092
-0.01076226456
-0.01103330405
-0.009611173121
-0.01345729227
-0.01682481691
-0.01651599835
-0.01666829584
-0.02136872657
-0.02154635543
-0.02098363944
-0.02266540057
-0.02537444209
-0.02486881494
-0.02560947525
-0.02783766534
-0.02721972803
-0.02848870022
-0.02883860221
-0.02831321936
-0.02986028244
-0.02919011371
-0.02925931335
-0.02906229886
-0.02867362493
-0.02827096484
-0.02769088437
-0.02707603167
-0.0264951928
-0.02569338975
-0.02502584452
-0.02407956552
-0.02321267172
-0.02194255426
-0.003216068297
0.02533057131
)


100
(
-1.386355006
-0.2266720329
-0.1689494684
-0.09339956327
-0.08380975814
-0.04246630982
-0.02400427195
-0.007086466875
0.003780246028
0.0153627326
0.02048170517
0.02898862817
0.03421462947
0.03834194306
0.03877285218
0.04126591342
0.04510868096
0.04359593109
0.04059187282
0.04549334022
0.04470326517
0.04134482366
0.04095877506
0.04354480312
0.04163829522
0.03891891847
0.04055830485
0.04100466663
0.03729392922
0.03353522757
0.03272104148
0.03305042808
0.03185427262
0.03044433295
0.0301474399
0.03155012231
0.02708352998
0.02350616763
0.01966357129
0.01793715043
0.0154850987
0.01355818434
0.01162129005
0.008583754178
0.007849681675
0.007421895191
0.007089839474
0.006412933276
0.002729594231
0.0008524831946
-0.0008484147333
-0.00312577014
-0.007926939108
-0.008695533032
-0.008971489408
-0.0100342364
-0.01412919194
-0.01340189459
-0.01257244689
-0.01276709737
-0.01625656323
-0.01563129973
-0.01833311003
-0.02068370918
-0.02032416653
-0.02027081009
-0.02334690726
-0.026026997
-0.02465649295
-0.02632260915
-0.02899557208
-0.03014315079
-0.02986347931
-0.03177189879
-0.03302716776
-0.03246022693
-0.03332713826
-0.03440964712
-0.03465539447
-0.03512422868
-0.03528563161
-0.03532186291
-0.03582210749
-0.03539954118
-0.03523983711
-0.03550036254
-0.03505930274
-0.03475910536
-0.03445497863
-0.0341287247
-0.03365150407
-0.03302328463
-0.03253712967
-0.03210096631
-0.0313944187
-0.03081927073
-0.03024183661
-0.03570469741
-0.02296534322
-0.2892180236
)


100
(
-1.480496446
-0.1921100356
-0.1411067063
-0.1135924857
-0.08833023062
-0.04184427093
-0.03274314357
-0.01143460343
-0.00241843947
0.007828840144
0.01266611549
0.02033202565
0.02097838509
0.02603448833
0.0290869726
0.02631916733
0.02797574338
0.03164825157
0.02800395032
0.02360877228
0.02776385906
0.02656166853
0.02224719885
0.01911648571
0.02309996276
0.01936472244
0.01577679854
0.01351813103
0.01721966917
0.01271920391
0.008465026745
0.004279100813
0.006302260208
0.003675218634
0.001216405633
-0.001185378082
-0.0006955482603
-0.00106076088
-0.004822372802
-0.008389082593
-0.01147711727
-0.01271765433
-0.01453572922
-0.01648918232
-0.0182208956
-0.02095446912
-0.02167765939
-0.02240759321
-0.0231624892
-0.02722623095
-0.02653843193
-0.02770489219
-0.02927292017
-0.03407959693
-0.03459108139
-0.0343849386
-0.03567743728
-0.04149409056
-0.04195473404
-0.04068298704
-0.0429909462
-0.04459254915
-0.04362914227
-0.047091969
-0.04955748354
-0.04738678392
-0.04676214047
-0.05032431027
-0.05103550746
-0.05003176695
-0.05067536085
-0.05244766144
-0.0514913263
-0.05243943146
-0.05333790514
-0.05255219952
-0.0532396658
-0.05367644985
-0.05274939839
-0.05442927076
-0.05336896575
-0.05282416189
-0.05354881602
-0.05252687641
-0.05237918352
-0.05216560979
-0.05205625547
-0.05194109997
-0.05102761215
-0.0509195746
-0.0510122151
-0.05058072793
-0.04970760322
-0.04964069781
-0.04971575712
-0.04946657126
-0.05257859171
-0.07072139508
-0.2149408764
-0.3616737106
)


100
(
-1.037230019
-0.2518724497
-0.1758145328
-0.1434157905
-0.07863573871
-0.0519459872
-0.0341939135
-0.01803846574
-0.007097944564
0.002303969507
0.006945847656
0.01336029641
0.01684496979
0.01676850553
0.02128588019
0.02187358271
0.01846597137
0.0196674981
0.02233652383
0.01820917713
0.01376128225
0.01557434047
0.01511125457
0.01055285739
0.005871915357
0.007540492256
0.005837336043
0.001861486858
-0.002126438555
-0.001397779504
-0.001977126849
-0.006391642534
-0.01066889477
-0.01363525097
-0.01260214645
-0.01518733427
-0.0178886425
-0.0226203904
-0.0200847461
-0.02056936369
-0.02372568514
-0.02775867652
-0.03159951499
-0.02957701892
-0.03106359404
-0.03488210497
-0.04262106446
-0.04034050599
-0.03907079898
-0.04263146759
-0.05034874358
-0.04907774717
-0.04573655532
-0.04925128545
-0.05602563883
-0.05682488166
-0.05196323616
-0.05636894368
-0.06283366131
-0.06403044433
-0.06088607186
-0.06413258025
-0.06539223913
-0.06509257857
-0.06696877069
-0.06909123462
-0.06860516751
-0.06851963975
-0.06996324771
-0.07022978434
-0.07018950086
-0.07021132646
-0.07072376122
-0.07117172566
-0.07329388556
-0.07119779548
-0.06985543594
-0.0739371544
-0.07084580115
-0.07055759473
-0.07331823802
-0.07053300877
-0.07212483989
-0.07209608957
-0.07188494407
-0.07181521412
-0.07132567712
-0.07250679037
-0.07230439206
-0.0730559621
-0.07180311164
-0.07201336178
-0.07217195852
-0.07099014749
-0.07155759482
-0.07217177522
-0.08103043455
-0.1223505109
-0.2531952153
-0.3516725811
)


100
(
-0.8004695751
-0.3164808777
-0.2148177756
-0.1294959744
-0.07582251493
-0.06750331485
-0.03527411124
-0.02688995954
-0.0111741582
-0.003214721576
0.003753139714
0.007738575536
0.01339049649
0.01424587081
0.01447679159
0.01811452061
0.01753399911
0.01418801305
0.01461036428
0.01731390031
0.01307963814
0.008628538638
0.008368422608
0.009366381412
0.004745398569
9.989650479e-05
-0.001369947258
-0.0006634045435
-0.004409724697
-0.008142833933
-0.01111012959
-0.008904780353
-0.01180101423
-0.01590019164
-0.02280568228
-0.02090619131
-0.02076120368
-0.02358382209
-0.03427052763
-0.03256414022
-0.03011802139
-0.03009460463
-0.03899596324
-0.04392403827
-0.04187422519
-0.03759394759
-0.04670545782
-0.05670916775
-0.05404208371
-0.0484601706
-0.05543620137
-0.06390380734
-0.06371143301
-0.05946360868
-0.06339749834
-0.07017189898
-0.07087613995
-0.06703616837
-0.06946542122
-0.07435017627
-0.07579626536
-0.07448781734
-0.07606364577
-0.07711527544
-0.07798464799
-0.07948169276
-0.08048501207
-0.08104107822
-0.08205998666
-0.08205075368
-0.08256026322
-0.08320675566
-0.08362837549
-0.0822928017
-0.08481640753
-0.08930138639
-0.08300494072
-0.08444765405
-0.08787351225
-0.08476934878
-0.08696709687
-0.08790620669
-0.08603304015
-0.08758801433
-0.08862144123
-0.0897002861
-0.0895164328
-0.08910639717
-0.0900373384
-0.08969128244
-0.09123859311
-0.09093095359
-0.09019379961
-0.09130782677
-0.0899809182
-0.09266126895
-0.1113684596
-0.1470971053
-0.1205309956
-0.1922407448
)


100
(
-0.7954906285
-0.2701222084
-0.1932245341
-0.117890427
-0.09454560675
-0.06934222189
-0.04443155072
-0.03080048445
-0.01846266802
-0.007551426159
-0.0008440015327
0.00479679796
0.008544003093
0.01305522515
0.01322856801
0.01365822633
0.01689963489
0.01616591137
0.0130725449
0.0127541326
0.01530143114
0.01215411492
0.007916231736
0.005593028546
0.007459400798
0.003458263606
-0.001415367357
-0.002774686873
-0.0006358605822
-0.002566059017
-0.007653000279
-0.01339729812
-0.01141051
-0.009886249983
-0.01644742558
-0.025739857
-0.02421851633
-0.01926148419
-0.02616854481
-0.03861057074
-0.0378210767
-0.0341530818
-0.03400920371
-0.04463139556
-0.04973367083
-0.04470274636
-0.04115037408
-0.05135280237
-0.06134353768
-0.05690484218
-0.05359355075
-0.05996276494
-0.0672915067
-0.06783475722
-0.06504225351
-0.0679281365
-0.0727541933
-0.07374367257
-0.07340434565
-0.07329733771
-0.07505436545
-0.07680194456
-0.07831637447
-0.07960525289
-0.07981432549
-0.08063776881
-0.0818754027
-0.08244025728
-0.08459420205
-0.08590628354
-0.08670068203
-0.0873769376
-0.08890554154
-0.0888654942
-0.0861735252
-0.08984559961
-0.09358029313
-0.0911355175
-0.09232383158
-0.09312866511
-0.09453155497
-0.09532358645
-0.09628465172
-0.09668314012
-0.09641895047
-0.09648682568
-0.09839476777
-0.09793282464
-0.1007255889
-0.0998030954
-0.09933303064
-0.1003760982
-0.1012197466
-0.1017145602
-0.1006426181
-0.1065692448
-0.1394423778
-0.1202514768
0.01763368277
-0.08776588766
)


100
(
-0.8629741703
-0.236444775
-0.1744018399
-0.1304473596
-0.1187426025
-0.0696489858
-0.05971260106
-0.03401983355
-0.02668724783
-0.01323058402
-0.005505020659
0.001164021252
0.005578935282
0.009375820988
0.01314167533
0.013268114
0.01383201882
0.01700336737
0.01668024234
0.01396785248
0.01267271044
0.01490387475
0.01289106032
0.008474012205
0.003758585278
0.005520392424
0.00424614627
-0.0004943713224
-0.001219189524
0.000560213331
0.002122294876
-0.00823674677
-0.01349677409
-0.01162245063
-0.006322127791
-0.01756910112
-0.02651292626
-0.02443907125
-0.01526134908
-0.0262135849
-0.03861476637
-0.0381514482
-0.03111970321
-0.0346833621
-0.04554988175
-0.04968438869
-0.04371070999
-0.04130402332
-0.05120934714
-0.05803973164
-0.05628340189
-0.05384708716
-0.05738582895
-0.06152615516
-0.06390206773
-0.06527371029
-0.06561410869
-0.06628672591
-0.0688977207
-0.07122444914
-0.07211020895
-0.07090396419
-0.07176735995
-0.07371832294
-0.07593420609
-0.07717779485
-0.07906990566
-0.0798601566
-0.08120744457
-0.08364181919
-0.08549391611
-0.08561577605
-0.08618199995
-0.08801252951
-0.08957695751
-0.08823528871
-0.09089054445
-0.09252749526
-0.09450824381
-0.09329205265
-0.09541356874
-0.09663154826
-0.09678202216
-0.09755094539
-0.09825859345
-0.09939250994
-0.09892216141
-0.09845632593
-0.09868910274
-0.1028793044
-0.1032194472
-0.1025120514
-0.1029515888
-0.1030905385
-0.1037711168
-0.1158595389
-0.1659895716
-0.02582654655
0.1373709805
0.148495043
)


100
(
-0.7277053527
-0.2265055711
-0.1834645567
-0.1616312059
-0.1154260702
-0.08147140025
-0.06533256177
-0.04458042334
-0.03131016063
-0.02177844833
-0.009856031684
-0.003634792058
0.002572617358
0.006153624407
0.01001903123
0.01329944871
0.01346698155
0.01394313332
0.01689459839
0.01677768504
0.01383797008
0.01093431258
0.01298563598
0.01281113698
0.008905544854
0.003924209757
0.004173629612
0.002741492601
-0.002126303399
-0.002109460091
0.001137304268
0.003181572101
-0.01017740985
-0.01479778728
-0.01022852806
-0.006914847389
-0.01944750031
-0.02798229902
-0.02106281574
-0.01637369285
-0.02692274998
-0.0388608354
-0.03574749921
-0.03241238896
-0.03626353674
-0.04623428042
-0.04790806323
-0.04456759643
-0.04176678155
-0.04825687789
-0.05070093927
-0.05383506689
-0.05418661139
-0.05350419214
-0.05479133997
-0.05836538899
-0.06202464188
-0.06339371829
-0.06294156491
-0.06434985264
-0.06684440643
-0.06956209648
-0.07127714565
-0.07168504719
-0.07266703025
-0.07393849102
-0.07723402177
-0.08004996482
-0.07986757092
-0.07972683473
-0.08118333321
-0.08376668752
-0.08533514427
-0.08632247858
-0.08754700828
-0.09022093273
-0.09134269817
-0.09099219666
-0.09411484474
-0.09530956072
-0.09497904529
-0.09693163262
-0.09687389925
-0.09941339109
-0.09966857785
-0.1002314282
-0.1010131409
-0.1011387382
-0.1006838957
-0.1027275407
-0.1045568552
-0.1041084797
-0.1056085354
-0.1048694223
-0.1044088674
-0.1253636282
-0.1935955475
0.03150265581
0.253863166
0.1550668234
)


100
(
-0.5695912373
-0.2726562602
-0.2203991637
-0.1717521449
-0.1108887063
-0.101512995
-0.06672217465
-0.0585801579
-0.03528529403
-0.02740701149
-0.01665716739
-0.007559108164
-0.002040885748
0.003533965781
0.006536036267
0.01029957455
0.01310691841
0.01293765891
0.0123970903
0.01485650873
0.01545001541
0.01288987942
0.008775264072
0.01083644605
0.01293050175
0.009087338016
0.00424876066
0.001535998277
-0.0008141331913
-0.005640036509
-0.005146604428
0.003285173644
-0.0008264870372
-0.01410099157
-0.01816109302
-0.009160520349
-0.01109898534
-0.02365306056
-0.03037209225
-0.02317160741
-0.02092783276
-0.03030767912
-0.03951014413
-0.03838159068
-0.03575328019
-0.03798905185
-0.0428842527
-0.0457305775
-0.04747689841
-0.04552011856
-0.04535945974
-0.04792909591
-0.05248267611
-0.05632556493
-0.05677306406
-0.05430116486
-0.05670927577
-0.06003323067
-0.06326547821
-0.06565458674
-0.0668856138
-0.06874559288
-0.07081555689
-0.07477166179
-0.07801034176
-0.07772470804
-0.0759666634
-0.07783741881
-0.08104744104
-0.08368191354
-0.08445655235
-0.08482172663
-0.08699281116
-0.09037724533
-0.0913894075
-0.09135727586
-0.0946743513
-0.09636912871
-0.0968310453
-0.099242919
-0.09888949676
-0.1012643518
-0.1019502816
-0.1025025891
-0.104114148
-0.1049298499
-0.1059342058
-0.1061083466
-0.1058668807
-0.1072178515
-0.1082590862
-0.1090467214
-0.1067268
-0.1084711181
-0.1133366078
-0.137459982
-0.2129533284
0.06453704666
0.3306102778
0.2847098432
)


100
(
-0.484738023
-0.3011654449
-0.2319813126
-0.1606307707
-0.1253485262
-0.1074437839
-0.07572633865
-0.06176580419
-0.04582030544
-0.03060118683
-0.02387467124
-0.0129564033
-0.005941597146
-0.0007205832358
0.004203888628
0.006512212454
0.009684547629
0.01191773956
0.0116526076
0.01042685734
0.01280141684
0.01441829663
0.01186839558
0.007900532292
0.007714759086
0.0102574545
0.008027615535
0.003357227822
-0.001767826953
-0.005709471227
-0.01059435153
-0.007471154445
0.0003216194528
-0.006296283855
-0.01949172959
-0.0195050343
-0.01457204745
-0.01707962001
-0.02916536373
-0.03197072884
-0.02896126624
-0.02621099356
-0.03287213138
-0.03652453806
-0.0404509493
-0.04016585779
-0.03918389671
-0.04128541535
-0.04555290332
-0.05024164605
-0.05361479469
-0.05025114589
-0.04992227487
-0.05345027504
-0.05772198286
-0.06055199825
-0.06331227488
-0.06266226745
-0.06446649256
-0.06683901085
-0.07168636114
-0.07563921232
-0.07531823824
-0.07461710419
-0.07742045986
-0.08097258472
-0.08331030549
-0.08436544149
-0.08455194602
-0.08646079601
-0.0911786825
-0.09412350514
-0.09221651262
-0.09327540152
-0.09774297712
-0.09951326834
-0.1005847369
-0.1033385187
-0.1034449421
-0.1050677703
-0.1064824897
-0.1072934874
-0.1100816768
-0.1092432136
-0.1109343747
-0.1123677847
-0.1137169092
-0.1150171452
-0.1150300965
-0.1149390941
-0.1152834256
-0.115910581
-0.1150065799
-0.1134412719
-0.1177350019
-0.1557856011
-0.2138380519
0.1137865231
0.3784178551
0.3256055441
)


100
(
-0.4731637691
-0.2772777808
-0.2174785434
-0.1565331073
-0.1504598421
-0.1053876656
-0.09301765617
-0.06323020863
-0.05658436432
-0.03750510898
-0.02758201848
-0.02056266485
-0.01036502501
-0.004496946247
0.0003131026975
0.004482587971
0.006192497305
0.009019298536
0.01139837223
0.01117965469
0.009009965854
0.01095939515
0.01370068157
0.01108274786
0.007421069493
0.005011055608
0.007386967568
0.00754325651
0.003159764507
-0.001697227938
-0.009687260075
-0.01454059431
-0.006114373976
-0.003782552658
-0.01075864294
-0.02285768245
-0.02127019316
-0.01918070273
-0.02065975886
-0.02790367365
-0.0315762678
-0.0316784322
-0.02936073431
-0.03024337637
-0.03384707931
-0.03945677242
-0.044120017
-0.0433632422
-0.04102918074
-0.0444745106
-0.04926722859
-0.05353575158
-0.05486351555
-0.05510027832
-0.05579761683
-0.05901224632
-0.06256290675
-0.06875317728
-0.07229975492
-0.0702308647
-0.06898647211
-0.07278234894
-0.07714502603
-0.07902812652
-0.08007865953
-0.08126381092
-0.083440046
-0.08843730606
-0.09340634519
-0.09124153309
-0.09036253899
-0.09444354531
-0.09923524939
-0.09956089911
-0.1010466431
-0.1038068194
-0.1036391432
-0.1043319661
-0.1072589912
-0.1088872473
-0.1114828122
-0.1116623422
-0.1124848514
-0.1144661416
-0.11489242
-0.1166264325
-0.1170378102
-0.118024807
-0.1184204129
-0.1190612233
-0.1197796785
-0.1193157651
-0.1175657281
-0.1170946539
-0.1216980811
-0.1686090592
-0.1748174665
0.1807372263
0.3472609049
0.2888620951
)


100
(
-0.5167872543
-0.2554270073
-0.2035047421
-0.1831364812
-0.1556521104
-0.1137542815
-0.1014668067
-0.07606726362
-0.06080910968
-0.04988950041
-0.03232174838
-0.0253094988
-0.01730430028
-0.008427732993
-0.003414194999
0.0008986461005
0.004774583562
0.006332409652
0.008748523007
0.01143024211
0.01134007242
0.009651075386
0.01033033937
0.01296614532
0.01196930768
0.008823832953
0.004954575939
0.00661343176
0.008884675338
0.005426437421
0.001106475407
-0.009097041266
-0.01222722618
-0.006642610089
-0.004927878963
-0.01119022415
-0.01683880616
-0.01969684943
-0.01744108486
-0.0172566168
-0.02033228504
-0.02533580561
-0.03066329891
-0.03082786793
-0.0275279567
-0.02878991211
-0.03383403003
-0.03917252378
-0.04211253409
-0.0411654921
-0.03963629584
-0.04402911756
-0.04804995711
-0.05231017391
-0.0581192221
-0.05818442862
-0.05555718659
-0.05783796662
-0.06336810857
-0.06864670686
-0.06920117582
-0.06729700002
-0.06936406861
-0.07252978913
-0.07711049352
-0.08294612105
-0.08123132414
-0.07991977127
-0.08490605371
-0.0899334323
-0.09225656398
-0.09256695028
-0.09544762482
-0.09744582854
-0.09697743369
-0.09675451519
-0.09939643538
-0.100333367
-0.1029330663
-0.1052636576
-0.1053196076
-0.1074496766
-0.1082410267
-0.1109277747
-0.1106353597
-0.1113056508
-0.1121112622
-0.1117538266
-0.1116683138
-0.1138243501
-0.1131380032
-0.1115246139
-0.1093037724
-0.1061209967
-0.1255402881
-0.1831110241
-0.09142452733
0.2790619096
0.3697943686
0.3452032546
)


100
(
-0.4878055362
-0.2549646018
-0.2278613532
-0.2140173527
-0.1525194472
-0.1376878662
-0.1050748213
-0.09619837068
-0.06704205871
-0.05841553557
-0.04443259276
-0.0292883221
-0.02341070806
-0.01535343154
-0.007568633079
-0.003108154629
0.0009743215485
0.00492242314
0.006675520735
0.008794876767
0.01215862983
0.01241580217
0.01139401843
0.01108183701
0.01371591689
0.01463583967
0.01209836589
0.009095290468
0.008014185145
0.01028389241
0.01030412773
0.006737264517
-0.003050500327
-0.005624354444
-0.002955228827
-4.548369814e-05
-0.002705520118
-0.0055537806
-0.01118353837
-0.01350249993
-0.01091875382
-0.01116211448
-0.01571784474
-0.02108603491
-0.02564150379
-0.02355487955
-0.02111489528
-0.02358050759
-0.02809744954
-0.0318097434
-0.03643233598
-0.03751660955
-0.03681367452
-0.03721571537
-0.04178289366
-0.04808770865
-0.05258404108
-0.04850651021
-0.04689652487
-0.05070731637
-0.05542015003
-0.0595544732
-0.06235872743
-0.06160784983
-0.06082694884
-0.06638879056
-0.07220776673
-0.07099168218
-0.07117455358
-0.07566236345
-0.07916731509
-0.08201641282
-0.08179138008
-0.08155793054
-0.08274746421
-0.08589264403
-0.08879724161
-0.09051017522
-0.08857580175
-0.08926405733
-0.09227439263
-0.09412648556
-0.09619374398
-0.0948181578
-0.09692720427
-0.09796131841
-0.09891354369
-0.09958219342
-0.1027098512
-0.09899003485
-0.1020553204
-0.09921543326
-0.09949648957
-0.09799854664
-0.1204228556
-0.2159060329
-0.01712440893
0.4467724833
0.4087200492
0.3588449206
)


100
(
-0.4245761307
-0.2876369569
-0.2620367034
-0.2085159135
-0.1638807664
-0.1543400413
-0.1167205926
-0.1041752144
-0.0852470242
-0.06466672167
-0.05702969645
-0.04055891361
-0.02850974577
-0.02293765659
-0.01505849755
-0.007605193981
-0.003345411621
0.0005652931091
0.004722349855
0.006982288642
0.008961519761
0.01232164824
0.01367245365
0.01347492762
0.01216038229
0.01490560101
0.01755447877
0.01592101139
0.01383638111
0.01158094837
0.01263991336
0.01494409604
0.01268895776
0.00769597548
0.005533970339
0.003299772673
0.005088200475
0.007074793153
0.003831562125
-0.00137251761
-0.006656524135
-0.006186383322
-0.002220515505
-0.004853616716
-0.009367874483
-0.01332189636
-0.01562816315
-0.01598909634
-0.01473043398
-0.01659851189
-0.01955626047
-0.02545220734
-0.03148843059
-0.0289505752
-0.0240210904
-0.02782335108
-0.03347895173
-0.03721083487
-0.04006121451
-0.03852367757
-0.03728225328
-0.03935471458
-0.04597644705
-0.05239236386
-0.04916099985
-0.04681777105
-0.05237307469
-0.05752954545
-0.05945742272
-0.06098421496
-0.06054779584
-0.06135986572
-0.06205598177
-0.06437806654
-0.06681701099
-0.06991981271
-0.07112241601
-0.07165487084
-0.07097134661
-0.07291133006
-0.07616647578
-0.07634077038
-0.07599504992
-0.07799262173
-0.08028006785
-0.08054780052
-0.08157000591
-0.08254647342
-0.08181284993
-0.08317521043
-0.08041939826
-0.08255309542
-0.08315140757
-0.08883702103
-0.11269716
-0.232272511
0.03708683365
0.5377176193
0.4100014083
0.3216678079
)


100
(
-0.3840808054
-0.299298773
-0.2598851607
-0.2021996756
-0.1915980645
-0.1554725911
-0.1402632731
-0.1086110493
-0.1026801321
-0.0779889784
-0.06318298444
-0.05535765573
-0.03868257273
-0.02845702181
-0.02332910589
-0.01556995934
-0.008207403421
-0.003921993699
-0.000247754786
0.00405437708
0.006867440662
0.008679723343
0.01193415263
0.01420210679
0.01473219169
0.01438481024
0.01537168215
0.01800663129
0.01908367906
0.01764184713
0.01623854417
0.01349243557
0.01532058127
0.01771249553
0.01556976721
0.01264682742
0.007869021668
0.007059736992
0.01081716687
0.01123872989
0.006600862549
0.001923911036
-0.001235492988
0.0005492984399
0.002804666366
6.888427185e-05
-0.003335148404
-0.006285894645
-0.01327172798
-0.01225509781
-0.008312309093
-0.008680085344
-0.01475809678
-0.02108317029
-0.02327899533
-0.01929554944
-0.01706727967
-0.02116828004
-0.02322614401
-0.0314648552
-0.03309986337
-0.02843830729
-0.0280932707
-0.03458312792
-0.03965772185
-0.04180839558
-0.04240401662
-0.04480205744
-0.04555069119
-0.04600209676
-0.04570548154
-0.04531496548
-0.0493439654
-0.05254263526
-0.05528860874
-0.05475225205
-0.05450217563
-0.05561760556
-0.059065943
-0.06065410604
-0.06087472614
-0.06062086498
-0.06202645713
-0.06483576514
-0.06412694462
-0.06542894243
-0.06773499207
-0.06892298626
-0.06790580846
-0.06649571507
-0.06623513769
-0.06450777706
-0.06022094816
-0.06453234961
-0.1044606727
-0.2341341715
0.05220164826
0.5662166544
0.4599571502
0.4455989911
)


100
(
-0.3903196038
-0.2864371962
-0.2488798851
-0.2172980312
-0.2070062707
-0.1607741279
-0.1535826375
-0.1241459039
-0.1079183625
-0.09631035157
-0.07114183756
-0.06120634034
-0.05259075449
-0.03749792583
-0.02854769233
-0.02414409882
-0.01660166466
-0.009158291225
-0.004750372156
-0.001380301111
0.002867670818
0.006183050271
0.00782350857
0.01086488151
0.01413109375
0.0149101834
0.01539375726
0.01486139921
0.01755991715
0.02009372799
0.01928252436
0.01808974852
0.01541991532
0.01482725916
0.01755910854
0.0195992088
0.01658165762
0.01267070623
0.008070280489
0.0105891809
0.01386042821
0.01187578204
0.007762831278
0.005524511616
0.001987099474
0.001825455075
0.003394523859
0.003042705343
-0.0001326243736
-0.006351234439
-0.01241276122
-0.00706104373
-0.003155424958
-0.008279448039
-0.01325799509
-0.0151412414
-0.01859843651
-0.01676394032
-0.01263308615
-0.01653568529
-0.02485791433
-0.03137752935
-0.02548525169
-0.02342432781
-0.02987568175
-0.03364706839
-0.03562736311
-0.03528456945
-0.03526073159
-0.03582498168
-0.0370440324
-0.04107955805
-0.04372645885
-0.04481447344
-0.04457210898
-0.04454940222
-0.04600543351
-0.04909840984
-0.0524447346
-0.05253074252
-0.05046817637
-0.05285903648
-0.0541913798
-0.05486483906
-0.05502962541
-0.06104144935
-0.06092140971
-0.05785092632
-0.06130480927
-0.06069765312
-0.06157060111
-0.06453907163
-0.05763662107
-0.06233235695
-0.0891205262
-0.2331949445
0.0428940399
0.5768190345
0.4880388411
0.4669826293
)


100
(
-0.4161026017
-0.271405251
-0.2477063594
-0.2443639568
-0.2023561026
-0.1837154836
-0.1555876392
-0.1461675852
-0.1132947985
-0.1036150407
-0.08778906406
-0.06609610835
-0.05965332162
-0.05094083743
-0.0368508498
-0.02870760469
-0.02502818239
-0.01786385938
-0.01041803616
-0.00574998589
-0.002747732264
0.00120145494
0.004924307934
0.007260938226
0.009468968008
0.01249602607
0.01443549199
0.01560035175
0.0159062662
0.01564118269
0.01791174564
0.0204453873
0.0195316257
0.01722091294
0.01344605201
0.01581082503
0.01984314514
0.01869890803
0.01526612324
0.01187287285
0.009388532035
0.01163315689
0.01373235699
0.01145481436
0.009286368906
0.005172475891
-0.0009600524516
0.001106409811
0.00705754015
0.003446116178
-0.002228353839
-0.007601810463
-0.008311220262
-0.00568530768
-0.004006413622
-0.006811244067
-0.01101409938
-0.01905301401
-0.01920314815
-0.01123763841
-0.01451898771
-0.02185763156
-0.02645889569
-0.02824579336
-0.03033329774
-0.02875324838
-0.0285564738
-0.02913461429
-0.02883486962
-0.02999542667
-0.03388801552
-0.03795160795
-0.0387650025
-0.03946246577
-0.03951198474
-0.04205411049
-0.04414943274
-0.04527517829
-0.0445456965
-0.04547302023
-0.04618058046
-0.05115320829
-0.05090359694
-0.04893782259
-0.05224369031
-0.0521963365
-0.05325392549
-0.0532573062
-0.04962071749
-0.05371163491
-0.0502670372
-0.05291739779
-0.05528074704
-0.05823334004
-0.09644300042
-0.2225710144
0.04413310639
0.5914041596
0.4603979942
0.4366393906
)


100
(
-0.3967834906
-0.2822115409
-0.2718149401
-0.2499415631
-0.2022295869
-0.2025268672
-0.1632120949
-0.15274418
-0.1328322155
-0.1072520923
-0.1002895013
-0.08310545089
-0.06427510017
-0.05931396465
-0.05070532862
-0.03725343882
-0.02913066027
-0.02620208182
-0.01975512426
-0.01217903568
-0.006992721185
-0.004267437274
-0.0008064291836
0.003302535339
0.006287220543
0.008154553157
0.01108259746
0.01417938011
0.0150425758
0.01610367664
0.01449361226
0.01628440721
0.01936847821
0.02030696938
0.01826309675
0.01558187478
0.0138237191
0.01756503458
0.01995309538
0.0174943117
0.01495745385
0.01340172535
0.009099240618
0.01081734286
0.0136801603
0.01336592422
0.008747073717
0.002927010522
-0.000538570836
0.0049722952
0.006910599743
0.001645168659
-0.001261988063
-0.004577052265
-0.007360058837
-0.005446549796
-0.001061278683
-0.007774876837
-0.01596766075
-0.01891960313
-0.01422498538
-0.01395732497
-0.02006665623
-0.02271950804
-0.0231934991
-0.02345402473
-0.02367436223
-0.02430537177
-0.02728517524
-0.03204345041
-0.03399875579
-0.03180026051
-0.03158719463
-0.03207951217
-0.0342796002
-0.0370038916
-0.04019266331
-0.04203901467
-0.04198514269
-0.04109125092
-0.04245581936
-0.04195849465
-0.04524217793
-0.04692564112
-0.04798788294
-0.04225378627
-0.04246538523
-0.0467236459
-0.04941668892
-0.04520099364
-0.04500065284
-0.03852177464
-0.03933246235
-0.04710023509
-0.08417124596
-0.1943398703
0.0600099437
0.5936273973
0.4362109832
0.4729315919
)


100
(
-0.3667956159
-0.3038249825
-0.2883685881
-0.2422815038
-0.2250938492
-0.2029086258
-0.1860370857
-0.1559898107
-0.1503532981
-0.1236990036
-0.1067744237
-0.100903064
-0.0811714318
-0.06465824363
-0.06048745281
-0.05205895082
-0.03889298258
-0.03046980033
-0.02796396364
-0.02243590268
-0.01457444999
-0.009153067881
-0.005843216205
-0.002630903457
0.001484055115
0.00514944507
0.007796757429
0.009737827633
0.01256201949
0.01492348528
0.01619679631
0.01578371382
0.01476417655
0.01779541271
0.02128385712
0.01936168717
0.01749578071
0.01591639259
0.01611526346
0.01819457499
0.02032578332
0.01815523116
0.01721620556
0.01214666281
0.009440771048
0.01310267988
0.01805828326
0.01275593857
0.007631163113
0.004449550332
0.003830457969
0.006274989584
0.007878063437
0.006588748986
0.0004978437402
-0.007409673054
-0.004243626815
0.001265482834
-0.003592052525
-0.01057580314
-0.01317490541
-0.01468287222
-0.01525674492
-0.01534181624
-0.01429096763
-0.01505956079
-0.01491243388
-0.01775985671
-0.02176993457
-0.02433314318
-0.02527365518
-0.02625444813
-0.02638493671
-0.02883465011
-0.03215557812
-0.03070861442
-0.0291923585
-0.03138190733
-0.03342254947
-0.03591090001
-0.03910568902
-0.03538669866
-0.03667851738
-0.04022914056
-0.03836049667
-0.03850993052
-0.04033755515
-0.03787769147
-0.04035525345
-0.03954028111
-0.04072069451
-0.03678503791
-0.03637254367
-0.04102501522
-0.0851465341
-0.1303837767
0.07257922406
0.5707581242
0.3997030258
0.4766478601
)


100
(
-0.34313617
-0.3001267837
-0.2807962081
-0.2449086179
-0.2481561664
-0.2028251645
-0.2016182625
-0.1726982665
-0.1556711548
-0.1465263423
-0.1192974842
-0.10694621
-0.1016038434
-0.08080501199
-0.06579320789
-0.06259182552
-0.05455531986
-0.04183200696
-0.03242480201
-0.03004657221
-0.02644114379
-0.01796080127
-0.01187008409
-0.007482212297
-0.004340197442
-0.0005744393661
0.003550538152
0.006945980769
0.008567361352
0.0110896825
0.01444840155
0.01575793928
0.01625568152
0.01529691841
0.01655212
0.01957025008
0.02109758279
0.01934429205
0.01899968746
0.01763084204
0.01709235481
0.01905270721
0.02246398019
0.02055004324
0.01642462982
0.01114322103
0.01320875482
0.01690870294
0.01756788086
0.01298731743
0.01250240241
0.007310431804
0.006915897798
0.01063511317
0.01219903143
0.005795856675
-0.001567661126
-0.001439156485
0.0005921575576
4.601836471e-05
-0.004296414401
-0.005346066914
-0.005974966007
-0.006095898252
-0.006330945946
-0.006714952181
-0.01052518658
-0.0147984247
-0.01685912185
-0.01453661101
-0.01391692703
-0.01447697625
-0.01717931086
-0.02001679587
-0.02181822938
-0.02409551819
-0.02419643906
-0.02470372863
-0.02463931145
-0.02450165117