/*--------------------------------*- C++ -*----------------------------------*\
| =========                 |                                                 |
| \\      /  F ield         | OpenFOAM: The Open Source CFD Toolbox           |
|  \\    /   O peration     | Version:  2.3.1                                 |
|   \\  /    A nd           | Web:      www.OpenFOAM.org                      |
|    \\/     M anipulation  |                                                 |
\*---------------------------------------------------------------------------*/
FoamFile
{
    version     2.0;
    format      ascii;
    class       dictionary;
    location    "constant";
    object      PM42;
}
// * * * * * * * * * * * * * * * * * * * * * * * * * * * * * * * * * * * * * //

PM42_table
100
(

100
(
8.253728972
-1.393083973
-1.725117682
-1.415857866
-1.459592476
-1.60499571
-1.185423105
-1.435355306
-1.22385635
-1.261132605
-1.389447766
-1.12025394
-1.237654317
-1.221512714
-0.9910646302
-1.068678727
-1.155555146
-0.816745388
-0.8824264507
-0.9962836831
-0.7918894297
-0.7264906863
-0.8045128628
-0.8257389513
-0.6131449982
-0.6782525631
-0.7614287149
-0.7234423124
-0.5043720142
-0.5518507983
-0.623385502
-0.5828488711
-0.4638269482
-0.5207884885
-0.5862012722
-0.5837560172
-0.4080831486
-0.3512648266
-0.398661962
-0.4064385883
-0.3045762657
-0.2462284601
-0.2875492219
-0.3019860703
-0.2482677582
-0.2029027527
-0.2414932528
-0.2838028674
-0.1972885165
-0.1184183696
-0.1034236429
-0.1232117502
-0.08239720568
-0.04294513319
-0.03550103968
-0.04651092289
-0.03328170273
-0.02036712403
-0.027649925
-0.03566767012
-0.01865738123
0.03518527754
0.04244068794
0.02625717012
0.03970901463
0.09163458718
0.09374099413
0.08153715996
0.1141247188
0.1424195042
0.1396198371
0.1409437577
0.1807385144
0.1819777834
0.1774328151
0.1919573388
0.2147753429
0.2109210672
0.2177616869
0.2366354531
0.2322530557
0.2434763772
0.2469739993
0.2437293713
0.2568780209
0.2525024453
0.2533842117
0.2526941834
0.2502990948
0.2474398054
0.2434568289
0.2391982175
0.235308041
0.2290361043
0.2242328159
0.2162544932
0.2089033003
0.1967083308
0.02779141036
-0.2263753628
)


100
(
9.799545813
-1.254874017
-1.470988934
-1.252582897
-1.500927277
-1.358105405
-1.315120398
-1.246229371
-1.23346953
-1.079450024
-1.192766441
-1.006692049
-1.028780918
-1.053668784
-0.8823648196
-0.8662022424
-0.9136549854
-0.7816003018
-0.6845483713
-0.7472185967
-0.6880540445
-0.603484097
-0.5803021563
-0.6005084066
-0.5475386588
-0.4971395497
-0.509640478
-0.5038734162
-0.4432888793
-0.3897820897
-0.3751865132
-0.3708288679
-0.3496533139
-0.3291674601
-0.3229105528
-0.334102747
-0.2812051952
-0.2403239789
-0.1987874599
-0.1792701261
-0.1523934778
-0.1319218549
-0.1120945609
-0.08209025019
-0.07422646049
-0.06962485489
-0.06611432771
-0.0595111079
-0.02507310977
-0.007768712714
0.007683065589
0.02812309476
0.070747288
0.07713121626
0.07926496322
0.08824568157
0.1236958624
0.1169208696
0.1095091033
0.1109032539
0.1406708352
0.1347401766
0.1577153264
0.1775138865
0.1740209502
0.1732453447
0.1991390573
0.2214876186
0.2095029013
0.2234757263
0.245760143
0.2551310065
0.2527052202
0.2687742336
0.2791811199
0.2745613216
0.2821245177
0.291287749
0.2937329411
0.2983218371
0.2998838854
0.3007234199
0.3057360925
0.3028118979
0.3022924618
0.3055488805
0.3027250923
0.3010340615
0.2998303684
0.2980197919
0.2946871366
0.2902581515
0.2874679673
0.2842832481
0.2798454231
0.2763340245
0.2727572088
0.3244083913
0.2025978308
-0.6751985012
)


100
(
6.481601366
-0.9831897918
-1.120415677
-1.339376685
-1.406655537
-1.058150894
-1.31577631
-0.9682970897
-1.105648879
-0.9210873238
-0.8994713924
-0.888964378
-0.7166477014
-0.7802418483
-0.7450332
-0.5996079256
-0.5968298977
-0.6210995678
-0.5062261365
-0.4054577432
-0.452914242
-0.4113502338
-0.3296802096
-0.2739593807
-0.3191725852
-0.2583712935
-0.2046342392
-0.1714287082
-0.2131093458
-0.1535997567
-0.09994815423
-0.0495198907
-0.07145903423
-0.04091549412
-0.01332761374
0.01281535254
0.00741982222
0.01116363095
0.05008490739
0.08593570523
0.1159685679
0.1268870458
0.1434572059
0.1611198124
0.176105817
0.2004930504
0.2056058101
0.2111387455
0.2164960033
0.2524925436
0.2443561756
0.2536459436
0.2659416118
0.3072358857
0.3099331985
0.3067617211
0.3163802988
0.3655557639
0.3678458215
0.355829684
0.3750471536
0.3874632633
0.3776680939
0.4066281916
0.4267243216
0.4073370692
0.4013496975
0.4308462077
0.435573396
0.4262622119
0.431144051
0.4451581681
0.4359678417
0.4434345096
0.4508815134
0.4434513744
0.4480741927
0.452596303
0.445035596
0.4584667965
0.4502227994
0.4461017901
0.4526465909
0.4446303708
0.4446682889
0.4432026831
0.4435507258
0.4424863817
0.4356963465
0.4356484972
0.4370097073
0.4337580446
0.4267796105
0.4279183039
0.4286380161
0.4285857245
0.4631262118
0.6392042075
1.923157061
2.550377732
)


100
(
2.496675171
-1.19044679
-1.262965052
-1.476728545
-1.113080928
-1.092795156
-1.07564246
-0.998125179
-0.8988741715
-0.9255962369
-0.7036799578
-0.7679181311
-0.6812336519
-0.5628485148
-0.614761823
-0.5510589846
-0.4223657833
-0.4165324905
-0.4386908037
-0.3330175584
-0.2376642597
-0.2556751547
-0.2367558223
-0.1582791901
-0.08488162215
-0.1053314683
-0.07902086758
-0.02446564823
0.02724924166
0.01750438713
0.02422539722
0.07657273667
0.1249803427
0.1566012532
0.1421739238
0.1686816666
0.1953977167
0.243502197
0.2135430534
0.2164506138
0.2464079357
0.2839085923
0.3191318618
0.2958913471
0.3078646656
0.3409562082
0.411421884
0.3860104873
0.3716778279
0.4016183642
0.4694787141
0.4546030245
0.4218344912
0.4508412024
0.5081080201
0.5124419682
0.4668721381
0.5032429928
0.5560356732
0.5633739677
0.5340795126
0.5610615177
0.5694398069
0.564363704
0.5785847092
0.5949627042
0.5891571778
0.5872212236
0.5981767258
0.5987100255
0.5972444341
0.5967337412
0.600011689
0.6003800613
0.6147505678
0.5990438566
0.5868084964
0.616849563
0.592853976
0.5904698289
0.6118056807
0.5892737316
0.6001429743
0.5982283398
0.5959381056
0.5947605916
0.5917880945
0.6000208608
0.5962173389
0.598565777
0.5885174885
0.5911626894
0.5881641417
0.5784658555
0.5820239825
0.5852710815
0.6705440622
1.109829331
2.47731724
0.7792279932
)


100
(
1.037247385
-1.399320585
-1.38448347
-1.18987058
-0.9520645823
-1.190454154
-0.9019120376
-1.056607241
-0.8089900968
-0.841253105
-0.7518100406
-0.6314930322
-0.6926062319
-0.5550395938
-0.4735579981
-0.5153386153
-0.4409156285
-0.324018404
-0.3097597653
-0.342669287
-0.2413648201
-0.1500797339
-0.1386234512
-0.1483449763
-0.07193142007
-0.001457940111
0.01938623727
0.00912628319
0.05889714743
0.1056521521
0.140813485
0.1105898738
0.1435439512
0.1886804852
0.2649168589
0.2388168023
0.2339014659
0.2604585681
0.3715570216
0.3483202305
0.3197740044
0.3156952207
0.4021729623
0.4466127105
0.4227822082
0.376349592
0.4602743577
0.5502015074
0.5201351137
0.4641625137
0.5255046617
0.5982453497
0.5921521508
0.5502050589
0.5821035936
0.6381710621
0.6408727866
0.6040200577
0.6218790259
0.6596985481
0.6676587966
0.6529651365
0.6642151461
0.670204985
0.674679888
0.6847950783
0.6907990564
0.6934173146
0.7009143846
0.6993062683
0.7016472197
0.704983976
0.7078680479
0.6960053522
0.7116500634
0.7424066567
0.6938308527
0.7039150018
0.727270012
0.6999180197
0.7141189996
0.719282916
0.703671534
0.7126747046
0.7164308997
0.7198493627
0.7167864333
0.7131265727
0.7160797897
0.7094841458
0.7158831028
0.7107348811
0.7035857819
0.7046103142
0.6911505103
0.7077013881
0.873068261
1.487159064
1.272552362
-1.052128811
)


100
(
1.263510931
-1.126951783
-1.137738522
-0.9675245195
-1.0564759
-1.056383354
-0.951944926
-0.9431842245
-0.9107635645
-0.7534969896
-0.8332769754
-0.6629866544
-0.6094220547
-0.635378739
-0.500904781
-0.4401636464
-0.4787709135
-0.406626054
-0.2987110417
-0.2709118253
-0.3039252504
-0.2255311937
-0.138257824
-0.09297106166
-0.1185513601
-0.05268175211
0.02079379281
0.03967990744
0.008881484939
0.03482637307
0.1004700798
0.1713178573
0.1432114822
0.1217723538
0.1972766237
0.3013776533
0.2794026014
0.2194970211
0.2917853683
0.4207207877
0.4061704731
0.3644224113
0.3584790875
0.4618148682
0.5075587744
0.4538298353
0.4146647698
0.5087680305
0.5980991573
0.5503391229
0.5157014351
0.5707858392
0.6325226119
0.632137688
0.6022274494
0.6239165005
0.6624729994
0.6672602552
0.6612998063
0.6567424542
0.667868513
0.6785664487
0.6874752228
0.6950257662
0.693498737
0.6978969371
0.7056556226
0.7061118349
0.7201275251
0.7278612063
0.7316936191
0.7344473746
0.7447415745
0.7436523588
0.722520641
0.7477199692
0.7705232081
0.7481629217
0.7545015732
0.7572547481
0.7640487119
0.7652328794
0.7688109887
0.767913774
0.7627772583
0.7586191622
0.7657839441
0.760827205
0.7756613892
0.7626154687
0.756341065
0.7580543331
0.75889712
0.7553677943
0.7403650155
0.7792278477
1.053689926
1.519523736
0.03188167621
-1.859367472
)


100
(
2.065531307
-0.9145416885
-0.9377963961
-0.9590510921
-1.170544949
-0.925544616
-1.074618404
-0.8501374642
-0.9672183719
-0.8182853271
-0.7751466024
-0.784835231
-0.6216083154
-0.6122630656
-0.6119147864
-0.4917570746
-0.4407460767
-0.4792373699
-0.4190753151
-0.318330418
-0.2677672585
-0.2947025164
-0.2389316121
-0.1476902858
-0.06220977678
-0.08729332029
-0.06449369267
0.00727135093
0.01754724663
-0.007920109235
-0.02914498578
0.1090413699
0.1734853681
0.146987587
0.07849118827
0.2119733675
0.3118106517
0.2840323204
0.175369815
0.2943885756
0.4228225648
0.4118919184
0.3336846129
0.3669084505
0.4726446889
0.5089302847
0.445651237
0.417863303
0.5098337105
0.5688121221
0.5463354731
0.5189810473
0.5478707102
0.5808203068
0.5971211138
0.6047922824
0.6033707821
0.6054509578
0.6256454022
0.6433127385
0.6481938976
0.6341654197
0.6384078648
0.6512874467
0.664977255
0.6698600857
0.681642726
0.6845920038
0.6911387763
0.7065120546
0.717191737
0.7146734238
0.7170073813
0.7287658114
0.736482967
0.7238855829
0.7407894703
0.7490215541
0.7598744679
0.7467063683
0.7590110824
0.7645611215
0.7611238332
0.7616691475
0.7604731927
0.7650414087
0.7553661169
0.7482293245
0.7486866301
0.770068071
0.7641562181
0.7575076507
0.7538505857
0.7487045734
0.7467248772
0.8253895758
1.232779819
1.063033328
-0.9647037448
-3.446561862
)


100
(
1.379420644
-0.8059514127
-0.9005642821
-1.065523496
-1.016292333
-0.9528245586
-1.007107227
-0.9336270668
-0.8978540855
-0.9383348748
-0.7491274683
-0.7765734777
-0.7348998402
-0.5920839595
-0.6103574836
-0.5969948119
-0.4881886713
-0.4369124627
-0.4708173026
-0.4186615824
-0.312803715
-0.2287239015
-0.2551519552
-0.2375579882
-0.1556092464
-0.06496692041
-0.06582112559
-0.04146101551
0.03122137715
0.03048741935
-0.0162314989
-0.04405550098
0.1353782986
0.1910972408
0.1302289427
0.08635040438
0.2354774939
0.3308071662
0.2464925284
0.189523006
0.3040781814
0.428226155
0.3883956523
0.3491696621
0.3848583882
0.4819190307
0.492867014
0.4554524449
0.4231528655
0.4827663642
0.5000954286
0.5250816478
0.5239793178
0.5136461502
0.521764717
0.5505675904
0.5794391092
0.5874278704
0.5792032572
0.5883715203
0.6069278423
0.626205556
0.6361115621
0.6349930328
0.6390109483
0.6442254304
0.6665428656
0.6859809452
0.6809824472
0.6765849346
0.6847909953
0.6999613168
0.7064999373
0.7102344534
0.7152389517
0.7310561841
0.7359574839
0.7297286128
0.7504619807
0.755641167
0.7479618259
0.7573679127
0.7521252206
0.7675667729
0.7648784256
0.763713684
0.7651915427
0.7609363761
0.7557865913
0.766742459
0.7730719921
0.7643276899
0.7708427183
0.759524166
0.7507403792
0.8869468621
1.419820977
0.8267340643
-1.773480543
-3.40009037
)


100
(
0.5672605283
-0.8802888051
-0.9810239978
-1.018085624
-0.8724013844
-1.041821905
-0.8924550289
-1.027740013
-0.8345382249
-0.8951473396
-0.8464058448
-0.7041235478
-0.7599954639
-0.6852331208
-0.55809186
-0.58942234
-0.5680155801
-0.4574316911
-0.3797380613
-0.4080629081
-0.3839076593
-0.2908622772
-0.183503165
-0.2139838489
-0.2429234935
-0.1613394908
-0.07117765865
-0.02434725237
0.01230080717
0.08280149669
0.07484066113
-0.04733005719
0.01152641151
0.1883844871
0.2361269261
0.1174972662
0.1393312207
0.2875783851
0.3611647605
0.2728449743
0.2434549552
0.344339798
0.438627602
0.4195590611
0.3864867432
0.4051502827
0.4502611623
0.4735721162
0.4868090266
0.4629591783
0.4575166797
0.4783069167
0.517457603
0.5495918822
0.5499768195
0.5225525424
0.5412381272
0.5668295863
0.5899709749
0.6048115618
0.6098996804
0.6215867534
0.6342848317
0.6632361736
0.6867684935
0.6805468172
0.6616007719
0.6734234898
0.6952727923
0.7110345493
0.7119510923
0.7099494486
0.7208663875
0.742038001
0.7455526871
0.7414332153
0.7629020708
0.7709471477
0.7694222075
0.7826696827
0.7757672776
0.790099077
0.7915769459
0.7910453441
0.7992522333
0.8021052303
0.8065358068
0.8022417001
0.7959371632
0.8018605987
0.8058553895
0.8087645111
0.7884226095
0.798520692
0.8294112268
0.9819138362
1.547698031
0.7527088354
-2.336045135
-3.972595597
)


100
(
0.1924279325
-0.8904215708
-0.9366911863
-0.8586540964
-0.8841723092
-0.9762645925
-0.8889124267
-0.9270304428
-0.9076346387
-0.8066592112
-0.8801456997
-0.7660111777
-0.6843392753
-0.7291090398
-0.6333773918
-0.5012635381
-0.5250683191
-0.5022569304
-0.4039342869
-0.3155296475
-0.3515656334
-0.3627365829
-0.2718901758
-0.1674804991
-0.1547203921
-0.1967271999
-0.1461177051
-0.05742235841
0.02836657753
0.0866127826
0.1561486772
0.1096847198
-0.004675919116
0.08829094324
0.2619605318
0.2556440019
0.1882697653
0.2154739448
0.3570313049
0.3831083997
0.3431597448
0.306504164
0.376836895
0.4097745654
0.4460494599
0.4371551745
0.4219449329
0.4394126625
0.4782928927
0.5205399094
0.5500262103
0.5118043197
0.5043415924
0.5338813386
0.5693475109
0.5899291396
0.6096541132
0.5972617237
0.608242577
0.622773848
0.6587491142
0.6875699546
0.6800118006
0.6699161587
0.6902647886
0.7161225016
0.7299432019
0.7327942317
0.7293098133
0.7393152466
0.7707557948
0.7890472427
0.7692892679
0.7732588623
0.8028652164
0.8109064036
0.8143088355
0.8303014629
0.82627712
0.8350460489
0.8429698991
0.8451506112
0.8623144269
0.8520212812
0.8621643587
0.8697038899
0.8788575521
0.8853921373
0.8815339843
0.8770779644
0.8751869912
0.8772883564
0.868539439
0.856292306
0.8851157349
1.13206471
1.519103285
0.6737477062
-2.928079428
-4.144016409
)


100
(
0.1705329539
-0.7571961293
-0.7989299722
-0.7541051615
-0.9468820763
-0.8527737221
-0.9564397011
-0.8239348857
-0.9411450365
-0.8246268861
-0.8035386801
-0.8530305536
-0.7099129734
-0.6530131839
-0.6828065688
-0.5709368179
-0.4455673464
-0.4769690748
-0.4808292027
-0.3899506166
-0.275257241
-0.3060993288
-0.3539698039
-0.2612475978
-0.1611230732
-0.1026558994
-0.1450920096
-0.1414634252
-0.05560521852
0.02779007086
0.1491669512
0.2173481544
0.09117490486
0.05558829224
0.1519223472
0.310028956
0.2814540502
0.2496981289
0.2628386065
0.3454915853
0.3824174781
0.3780526713
0.3461912304
0.351745233
0.3866130982
0.4419629408
0.4864965615
0.4732574024
0.4438354561
0.4754225285
0.5188135929
0.5559316013
0.5631311331
0.5590816803
0.5594490706
0.5842670482
0.6101055123
0.660180241
0.6864308971
0.6623259611
0.6461617398
0.6747120988
0.7072765926
0.7178205313
0.7211630522
0.7263799406
0.739398674
0.773709763
0.8084918828
0.786369199
0.7752451332
0.8030202019
0.8362930979
0.8337572938
0.8405051577
0.8560446739
0.8495892339
0.8517920497
0.8721163584
0.8809616593
0.8971943824
0.8953262258
0.8991777925
0.9109870825
0.912451073
0.9222556155
0.9265904721
0.9333753079
0.9342171713
0.9374853578
0.939708325
0.9336116084
0.9191055007
0.9163430676
0.9464332667
1.23851456
1.183779936
0.5848730637
-3.161276494
-3.796886267
)


100
(
0.4024546237
-0.6332995105
-0.6795719922
-0.7957716797
-0.8791735878
-0.8230182296
-0.9199662086
-0.8697424204
-0.8683094872
-0.9165566785
-0.7801916294
-0.8124004432
-0.8105827417
-0.670151308
-0.6275319779
-0.6724900477
-0.5724907236
-0.452231351
-0.4719799099
-0.4994603389
-0.4085930783
-0.302994894
-0.2964732553
-0.3457319358
-0.2926514261
-0.1978034649
-0.1042492956
-0.1333552005
-0.1719274542
-0.09879629156
-0.0186621354
0.1432155435
0.1863753922
0.1000715844
0.07297976401
0.1599858449
0.2319940853
0.2643145211
0.2295124516
0.2227349357
0.2565488634
0.3122661889
0.3706604207
0.3678215895
0.3253373141
0.3357106296
0.3870611142
0.4396498903
0.4660008812
0.4506041255
0.4289223645
0.4692974221
0.5035122049
0.538317403
0.5882454247
0.5822959547
0.5520263096
0.5689903012
0.6148827595
0.6577788215
0.6576635127
0.6353151395
0.6493485243
0.6717267917
0.7043297845
0.7477779939
0.7278778234
0.7122439636
0.7482399264
0.7846768743
0.8005869618
0.7996190081
0.8190874048
0.8311999307
0.8235881272
0.8177408896
0.8354791091
0.8396393993
0.857164471
0.8724002834
0.869226173
0.8850875695
0.890525419
0.909226604
0.9032143878
0.908885038
0.9163823054
0.9142457969
0.9133982988
0.9335389965
0.9265084499
0.9097573694
0.8917524136
0.870064941
1.019002445
1.332252547
0.6661859633
0.3215973127
-3.79642486
-4.302624373
)


100
(
0.3387485548
-0.5688564418
-0.6880721876
-0.8345372497
-0.7739084158
-0.8888433723
-0.846625193
-0.9607020458
-0.8346890997
-0.907926084
-0.8946895571
-0.770161645
-0.8239908031
-0.8004392098
-0.6785791242
-0.6577335408
-0.7125785223
-0.6185780972
-0.4999606302
-0.5005572581
-0.5635959346
-0.4713854538
-0.3726659239
-0.3290776047
-0.3791769884
-0.3737714988
-0.2826988525
-0.1978737701
-0.1662053113
-0.2045287321
-0.1936661711
-0.1173360182
0.04940937511
0.08793728441
0.04532733447
0.0006840213666
0.03952698357
0.07846101887
0.1532861722
0.1809036165
0.1438442125
0.1444129595
0.1986636882
0.2601800876
0.3108803313
0.282401958
0.2503585667
0.2750314581
0.3212083373
0.3562555151
0.400556341
0.406242375
0.3939456362
0.3935664478
0.4346099112
0.4913468455
0.5309491964
0.4868070169
0.4678380592
0.5005640222
0.5398678203
0.5725669218
0.5928713372
0.5818162715
0.5703186303
0.6134397358
0.6583112263
0.643670138
0.642391247
0.6770803557
0.7031970718
0.7241259956
0.7185259567
0.7137266525
0.7220095584
0.74707875
0.768402436
0.7803706316
0.7614709412
0.7640607079
0.788293681
0.8032373816
0.8183354445
0.8060322953
0.8244774396
0.8340210577
0.8377575492
0.8483241005
0.878301497
0.8506034713
0.8824289503
0.8579594357
0.863387448
0.8529241914
1.028037189
1.501279682
0.398926819
-0.7317986122
-4.219291501
-4.619742217
)


100
(
0.1217019851
-0.5705725302
-0.7104955537
-0.7342031516
-0.7474159123
-0.8885960041
-0.8402818231
-0.9177704577
-0.9295150998
-0.8687132729
-0.9573939386
-0.8836670052
-0.805538226
-0.8633643287
-0.8360816454
-0.7154215056
-0.6998848402
-0.7630797092
-0.6800263839
-0.5700025716
-0.5483404301
-0.6115557836
-0.5549823951
-0.4646176291
-0.3766819231
-0.4287405951
-0.4695386898
-0.3902839046
-0.3132743807
-0.2471118403
-0.2571005988
-0.2886109506
-0.229226008
-0.1306275943
-0.08979281198
-0.05191981929
-0.07822180746
-0.1063553028
-0.05588131885
0.01935132253
0.09127383431
0.08329659796
0.0294473651
0.06305952244
0.1186851116
0.1649144688
0.1899489333
0.1911429022
0.1732963441
0.1919547709
0.2216144349
0.2822018633
0.3432118886
0.312839345
0.2580491305
0.2952020205
0.3492055741
0.3827769966
0.40801835
0.3896452275
0.3747924078
0.3910403788
0.4487130523
0.5038797425
0.4703380353
0.4459740028
0.4932795889
0.5366679115
0.5516422667
0.5625732959
0.555277877
0.5592553785
0.5626907923
0.581711772
0.6023387141
0.6290162432
0.6370088603
0.6389014541
0.6328974105
0.650897597
0.6782677949
0.6797942157
0.6750201031
0.6939203516
0.715145987
0.7168917663
0.7251775922
0.7363361455
0.7335280043
0.7520902104
0.7325348718
0.7602189805
0.7713004741
0.8296132497
1.02055729
1.496247327
0.2561479911
-1.351798356
-4.902384536
-5.315079253
)


100
(
-0.006496412518
-0.536028602
-0.6354048362
-0.6408264827
-0.7837230098
-0.8016866397
-0.8987348859
-0.8507467551
-0.9779881145
-0.9173564764
-0.9080513965
-0.9907218065
-0.8924369264
-0.8391852322
-0.9002324727
-0.8689570551
-0.7520028961
-0.7275752698
-0.7985876757
-0.7349884421
-0.6332999725
-0.5800933297
-0.6429516679
-0.6270218762
-0.5446171239
-0.4692455437
-0.4607237286
-0.5014094039
-0.4896713366
-0.4156651158
-0.3552951495
-0.2781053886
-0.2999142072
-0.3302526491
-0.2758518146
-0.2133252618
-0.1274540686
-0.1112067249
-0.1671158682
-0.1694633726
-0.09626983519
-0.02715633645
0.01703153944
-0.007435265992
-0.03725335519
-0.0008935627795
0.04215827099
0.07740585356
0.1596433682
0.1450777452
0.09738384939
0.1002675499
0.166931856
0.2339062221
0.255608219
0.2107682683
0.1851104069
0.2268133547
0.2451503929
0.3264974355
0.3395907196
0.2903998775
0.2843901321
0.344047434
0.3893134556
0.4083327179
0.4126419646
0.4337032083
0.4386496915
0.4407633282
0.4354414414
0.4294291767
0.4659901177
0.4949073332
0.5184657139
0.5116177252
0.5088491332
0.5188829287
0.5513716144
0.5677976437
0.5671348757
0.5637435663
0.581542715
0.610072246
0.6027617638
0.6125470186
0.6388357632
0.65395147
0.6477335324
0.6377166309
0.6392889518
0.6279441199
0.5955876675
0.644849092
1.009526615
1.37374083
0.2467095666
-1.489319359
-5.249578014
-5.538396576
)


100
(
0.014403717
-0.4623753721
-0.5472682071
-0.6201280608
-0.759090485
-0.7436434267
-0.8749973928
-0.8680352958
-0.9088080056
-0.9870437136
-0.8927428294
-0.9288275836
-0.9862323856
-0.8920606796
-0.8520409732
-0.9196314603
-0.8889870213
-0.7763916861
-0.7382179313
-0.8091309134
-0.7721776967
-0.678029791
-0.5870522822
-0.6462597841
-0.6902015846
-0.6003410099
-0.5340028494
-0.4636366688
-0.5040303176
-0.5333650609
-0.4709587292
-0.4072703499
-0.3236855129
-0.2954901549
-0.3370882459
-0.362680361
-0.2925520434
-0.2130346383
-0.1309519906
-0.1680499932
-0.2155334669
-0.1794213053
-0.1133992425
-0.07824468526
-0.02737872759
-0.02456121534
-0.04476530699
-0.03932362303
0.001670535277
0.07785729085
0.149310881
0.08419707921
0.03730328893
0.09627022639
0.1515002252
0.1707021737
0.2075617023
0.1857080816
0.1389665798
0.1788657162
0.2628747041
0.3271126925
0.2649516674
0.2426158846
0.3063222638
0.3426972759
0.3611043721
0.3555256742
0.3532623092
0.3575028619
0.368806489
0.4079259712
0.4329904444
0.4422738859
0.4380360546
0.4356426208
0.4501067534
0.4825030549
0.5144661923
0.5144260671
0.4969853614
0.5217335617
0.5407087671
0.5440563247
0.5457222639
0.6134943513
0.6163052219
0.5881402603
0.628758463
0.6279829393
0.6437979067
0.6828081904
0.6198544413
0.6811830907
0.9340882965
1.260994364
0.4186320633
-1.523880022
-5.4441522
-5.483942718
)


100
(
0.1025037905
-0.3904447951
-0.4888550089
-0.6261607942
-0.6673160672
-0.7615821012
-0.791825554
-0.9052584058
-0.8493940057
-0.9306220532
-0.9579027418
-0.8704106791
-0.9380127096
-0.9776548392
-0.8830952727
-0.8477062612
-0.9191546427
-0.8916724478
-0.7916547823
-0.7310394289
-0.7988935729
-0.7947765829
-0.7072281379
-0.6340252703
-0.6292372919
-0.6730256418
-0.637196596
-0.5797406197
-0.5166582995
-0.4600248853
-0.4886753501
-0.5212601462
-0.4605119639
-0.3759697618
-0.2768579667
-0.3141112308
-0.3834942996
-0.3469878502
-0.2693244096
-0.2003643106
-0.1536395598
-0.1858092389
-0.2139167768
-0.1731761351
-0.1357378618
-0.07295672317
0.01314848171
-0.01488092202
-0.09382110077
-0.04485614361
0.02821900529
0.09416870801
0.1018452306
0.06914688247
0.04828419586
0.08094989709
0.128364797
0.2174706022
0.216746367
0.1262799083
0.16092101
0.2376912748
0.284800059
0.3031842709
0.324583893
0.3067317722
0.3035082539
0.3081265617
0.3032397966
0.3141933575
0.3547471451
0.3968562533
0.4030877458
0.4077447304
0.4077698604
0.4350457442
0.4586380221
0.4717240594
0.4635214362
0.4710032445
0.4828201576
0.5376522275
0.5370593989
0.5181682671
0.5543397076
0.5608345239
0.5772763697
0.5816681961
0.5481826395
0.6019987053
0.5722496595
0.6180571843
0.6582165919
0.7039300068
1.088825709
1.092945678
0.5925637847
-1.91404075
-5.565523576
-5.429982456
)


100
(
0.06958060671
-0.3574435106
-0.4792352793
-0.5753405192
-0.5996107131
-0.7496697023
-0.7443990067
-0.8403923613
-0.8841597705
-0.8525958179
-0.9476991481
-0.9466503132
-0.8705135935
-0.9454852302
-0.9740039397
-0.8822705683
-0.8374972729
-0.913677051
-0.9013014189
-0.8107920996
-0.7215234557
-0.7845017324
-0.8333332975
-0.7382945615
-0.6726609682
-0.6094639943
-0.6517450573
-0.6844043191
-0.6032903077
-0.552836995
-0.4429594204
-0.461522655
-0.5201988722
-0.5106510816
-0.423526886
-0.3368862198
-0.2862367824
-0.3536534319
-0.3893104823
-0.3260347334
-0.2656497957
-0.227942985
-0.1493380125
-0.1728198376
-0.2141056503
-0.2035543758
-0.1282793411
-0.04141113172
0.007463680483
-0.06821898209
-0.09365329469
-0.02184364078
0.01641729886
0.05852530146
0.09275149724
0.06794141926
0.01310047435
0.09367386286
0.1873925426
0.2192810578
0.1644894252
0.1606270445
0.2287196855
0.257482515
0.261417623
0.2625823772
0.2635533161
0.269696334
0.3023607823
0.3543306582
0.3756477181
0.3518939195
0.3487382099
0.3524723559
0.3766760583
0.4087626713
0.443667714
0.4613105254
0.4638210992
0.4594927045
0.4788215777
0.4739913362
0.5065745763
0.5332977887
0.5540394789
0.4936392001
0.5025008088
0.5603389554
0.6022617174
0.5569874583
0.5683240962
0.4963477903
0.5230302229
0.6445762036
1.043668788
0.4092993063
0.7408556932
-2.354890435
-5.618006329
-5.348049492
)


100
(
-0.002331640801
-0.3375611732
-0.4520353636
-0.5000474784
-0.5998285985
-0.6737510427
-0.7582038961
-0.766238141
-0.8831406231
-0.872754689
-0.8856942313
-0.9823071331
-0.9449450064
-0.8830258506
-0.9583190386
-0.9817490144
-0.8950975576
-0.839920372
-0.9134561904
-0.9232672779
-0.8397757432
-0.7724254232
-0.7791134068
-0.8240094091
-0.7817192656
-0.7259575967
-0.6628088884
-0.6220084222
-0.6605913123
-0.6634205967
-0.6093045992
-0.5179003596
-0.4434425474
-0.5077617345
-0.5767793871
-0.4844966536
-0.4044586231
-0.3474270317
-0.3386464949
-0.3703508087
-0.3993273414
-0.3410671042
-0.3076769989
-0.2067914837
-0.155503633
-0.212391757
-0.2881592997
-0.1967122963
-0.1134119634
-0.06456366543
-0.05498181754
-0.08935774204
-0.1111180803
-0.09105384602
-0.006673623837
0.09659341555
0.05466314061
-0.01618222625
0.04504369397
0.1300266849
0.1608176461
0.1787871764
0.1848267538
0.1848699829
0.1715355828
0.1797945719
0.1770211069
0.2100812154
0.2573639498
0.2873915342
0.2967898405
0.3067380025
0.3087453119
0.339572602
0.3806603505
0.3656891025
0.3474094277
0.3709723482
0.3984174405
0.4352813127
0.4730844741
0.4317709659
0.4495092418
0.5007295729
0.4858542201
0.4975136474
0.5322538217
0.5096911999
0.5552445122
0.5526515544
0.5878407914
0.5434849291
0.5610953363
0.6510215236
1.157114374
-0.9322107569
1.05661779
-2.851261851
-5.618402317
-5.272306878
)


100
(
-0.05210896184
-0.2990962012
-0.3919725158
-0.4518542375
-0.5907206396
-0.6043084903
-0.7322450683
-0.7593612243
-0.8130151927
-0.9094550418
-0.8766802832
-0.9088816406
-1.002153809
-0.9446096967
-0.8923299256
-0.9714039554
-0.993913521
-0.9205613667
-0.8450816785
-0.9138265292
-0.971227063
-0.8837161373
-0.8252076976
-0.7813674311
-0.8268015083
-0.8528680083
-0.7764260597
-0.7213074696
-0.6199697352
-0.6560145318
-0.7407625193
-0.6782531283
-0.5946580222
-0.4985629209
-0.5062507818
-0.5694107192
-0.574955897
-0.486222636
-0.4454147091
-0.3901352463
-0.3619269383
-0.390494612
-0.4468060144
-0.3892599578
-0.2940682135
-0.1912290766
-0.2227361565
-0.2823321132
-0.2883014578
-0.2073697701
-0.1949507614
-0.1115412115
-0.1037237249
-0.157904419
-0.1776990636
-0.08138103731
0.0213242428
0.01938100432
-0.007956154145
-0.0006149267379
0.05689282561
0.07034930054
0.07806046788
0.07894890144
0.08141908931
0.08605737617
0.1347464616
0.1888792464
0.2144208472
0.1850692322
0.1770114585
0.1835159684
0.2181157645
0.2567194443
0.2808594076
0.3086335966
0.3106929769
0.3214512233
0.3257912969
0.3272107699
0.3536222715
0.3841790831
0.4107274624
0.402447977
0.3803600717
0.4343908936
0.4440341978
0.4703785101
0.4228449175
0.4740008715
0.4557340901
0.450831876
0.4868377337
0.5895349304
1.138570039
-2.030098767
1.46410651
-3.152402896
-5.690064743
-5.395830046
)


100
(
0.0001842787505
-0.2576842343
-0.3395794754
-0.4399597756
-0.5233355349
-0.6015098687
-0.6692443681
-0.7705281945
-0.7670770605
-0.8504637684
-0.916763909
-0.8773310547
-0.9263223977
-1.009923734
-0.9560361334
-0.8994987807
-0.9822860057
-1.015221667
-0.9510198452
-0.8955547901
-0.9241504906
-0.975324184
-0.9321696031
-0.8857998547
-0.8275130582
-0.819609512
-0.8600761615
-0.847010723
-0.7931300298
-0.699652079
-0.662388715
-0.7426513279
-0.7666541092
-0.6744305154
-0.596748196
-0.541058977
-0.5668153506
-0.6029719961
-0.5884663285
-0.5477673805
-0.4915655223
-0.3753472544
-0.3862568423
-0.4790284829
-0.4779027576
-0.3824377452
-0.298430887
-0.258349103
-0.2902737245
-0.3349793478
-0.3477947752
-0.3213642165
-0.1995550826
-0.1047773559
-0.1988287453
-0.2478466209
-0.1630787943
-0.08993812367
-0.05525673333
-0.03391406418
-0.03179487563
-0.01998565124
-0.03093206145
-0.04095152032
-0.04481659198
0.004623899895
0.06183791089
0.07705596172
0.08504220923
0.09557681698
0.09500101163
0.1176248754
0.1784755669
0.1715620004
0.1458655123
0.1636131131
0.2039019124
0.2205934968
0.2660202786
0.2937958484
0.2579011263
0.327234844
0.3377046304
0.3130754517
0.3471397804
0.3759673844
0.3406574976
0.3512015054
0.3769685487
0.3682009878
0.379116088
0.4356598804
0.3786906685
0.5131176684
1.198669099
-2.687017333
1.815216177
-3.359174604
-5.585314182
-5.32560699
)


100
(
0.04018879993
-0.225868527
-0.3179929141
-0.417393083
-0.4640901736
-0.5930066369
-0.6170638782
-0.7149201453
-0.7780516048
-0.7826715786
-0.8812533302
-0.9262178412
-0.8848217275
-0.9467698504
-1.021245231
-0.9718282243
-0.9146115442
-0.9883401849
-1.054029294
-0.9878843561
-0.9433091972
-0.9264389365
-0.977327165
-0.9943252355
-0.9363467807
-0.8882233678
-0.8201249215
-0.8655057004
-0.938050403
-0.8612741517
-0.7793691406
-0.6848487158
-0.7397167423
-0.8012640137
-0.757172397
-0.6839452888
-0.6536262799
-0.5691619117
-0.6034981067
-0.6472748284
-0.6473342673
-0.5803657883
-0.4857667809
-0.3904982796
-0.4847414337
-0.5302837362
-0.4670623426
-0.4180376743
-0.4157708052
-0.315716188
-0.3419016386
-0.4312834057
-0.3853184683
-0.275406663
-0.1778484838
-0.217213201
-0.2389258901
-0.2193483285
-0.1828212212
-0.1669743471
-0.1568926707
-0.1542951613
-0.1495665885
-0.1393763983
-0.07925345769
-0.008920436794
0.01060397612
-0.01660026669
-0.04350484018
-0.03635986027