/*--------------------------------*- C++ -*----------------------------------*\
| =========                 |                                                 |
| \\      /  F ield         | OpenFOAM: The Open Source CFD Toolbox           |
|  \\    /   O peration     | Version:  2.3.1                                 |
|   \\  /    A nd           | Web:      www.OpenFOAM.org                      |
|    \\/     M anipulation  |                                                 |
\*---------------------------------------------------------------------------*/
FoamFile
{
    version     2.0;
    format      ascii;
    class       dictionary;
    location    "constant";
    object      PM44;
}
// * * * * * * * * * * * * * * * * * * * * * * * * * * * * * * * * * * * * * //

PM44_table
100
(

100
(
-0.2144319022
-0.04155777622
-0.01943167021
-0.005371699643
-0.002206139508
0.002007625711
0.002451405677
0.004100097101
0.003763385167
0.004124766985
0.004570933724
0.00351997422
0.003814168163
0.003767582495
0.002965244284
0.003149256145
0.003425083946
0.002323789024
0.002453577657
0.00278435275
0.002124932336
0.001877545027
0.002050003943
0.002069837507
0.00143601017
0.001533849885
0.001713018731
0.001601759659
0.00107356912
0.001147573357
0.001292104624
0.001157432811
0.0008734407307
0.0009552146981
0.001070701165
0.001063545495
0.0007287930983
0.0006192676839
0.0006988550185
0.0007050307234
0.0005121730855
0.0004055123646
0.0004689736742
0.0004847699615
0.0003828055171
0.0003039123301
0.0003570224761
0.000418281359
0.000285813084
0.000169234077
0.0001466588613
0.0001733987341
0.0001125622176
5.717544046e-05
4.650563207e-05
5.95247347e-05
4.093249616e-05
2.428483201e-05
3.28195627e-05
4.470971932e-05
2.631210005e-05
-4.707928388e-05
-5.048630307e-05
-3.245204074e-05
-5.424888198e-05
-0.0001199166864
-0.0001117228683
-0.0001061240205
-0.0001557879681
-0.0001838812326
-0.0001747697066
-0.0001918409084
-0.0002455280209
-0.0002328723592
-0.0002669571245
-0.0003179193967
-0.0002958389906
-0.0003272793827
-0.0003692001359
-0.0003353190108
-0.0003931200431
-0.0003953070079
-0.0003966207118
-0.0004667238911
-0.0004294656574
-0.0004859022049
-0.0005140763709
-0.000511070039
-0.0005876870107
-0.0005824921472
-0.0006440583594
-0.0006865580095
-0.0007763481398
-0.0008273066776
-0.0009265213131
-0.000972755752
-0.00105293543
-0.001057976785
-0.0001191480336
0.0006987696236
)


100
(
-0.3035774393
-0.02695001813
-0.01414745423
-0.004224833444
-0.00150029115
0.002000347675
0.003043257991
0.00387797201
0.004126043609
0.003845027041
0.004265844616
0.003474834226
0.003490849926
0.003537722052
0.002884453812
0.002794806198
0.002932575405
0.002410706991
0.002071000675
0.002240177432
0.001986444242
0.00168285802
0.001585428855
0.001601551636
0.001381573318
0.001208725981
0.001213643005
0.001173134085
0.0009974932086
0.0008559428148
0.0008114092641
0.0007739650699
0.0006992724896
0.0006372743388
0.000612444174
0.000624667169
0.0005166734109
0.0004358354643
0.0003568451241
0.000317673776
0.0002642139006
0.0002246670166
0.0001881563382
0.0001354293681
0.0001191676411
0.0001092235122
0.0001016659188
9.013845826e-05
3.730510069e-05
1.141628926e-05
-1.119664498e-05
-4.073173731e-05
-0.0001015541615
-0.0001097137651
-0.0001121025555
-0.0001234150172
-0.0001708714015
-0.0001591819478
-0.000147410617
-0.0001482257339
-0.0001951849152
-0.0002013454408
-0.0002332248345
-0.0002480830555
-0.0002401801821
-0.000249064734
-0.0002819049496
-0.0003030576886
-0.0002925883659
-0.0003161013686
-0.0003388173969
-0.0003457305363
-0.0003529356128
-0.0003640005563
-0.0003706964466
-0.0004341519508
-0.0005072921986
-0.0004830946672
-0.0005102467834
-0.000539643418
-0.0005236081445
-0.0005919106412
-0.0005648228195
-0.0006515469088
-0.0006696002835
-0.0006614687206
-0.0007395063911
-0.0007437679433
-0.0007921273568
-0.0008620328299
-0.0008984641258
-0.0009420016302
-0.0010175532
-0.001106090379
-0.001183688512
-0.001288305446
-0.001410924233
-0.001746564858
-0.0009949098887
-0.09558293385
)


100
(
-0.2896789199
-0.02364270053
-0.01251253869
-0.005870961589
-0.00183966004
0.00129673287
0.003243203227
0.003203469373
0.004127457157
0.003634668073
0.003631119755
0.003512395822
0.002757317037
0.002949545514
0.00274411399
0.002153719445
0.002113427277
0.002146273412
0.001689067835
0.00132244286
0.001440163488
0.00126409498
0.0009797610189
0.0007919104607
0.000891652797
0.0006907577544
0.0005255484437
0.0004262679928
0.000515661523
0.0003612644941
0.0002291300495
0.0001105895924
0.0001550297708
8.574864985e-05
2.696698127e-05
-2.516110977e-05
-1.426270413e-05
-2.115017291e-05
-9.374536514e-05
-0.0001589024386
-0.0002120056323
-0.0002297080328
-0.0002571075627
-0.0002864535394
-0.0003110396434
-0.0003535887231
-0.0003592406104
-0.0003655082786
-0.0003715247373
-0.0004342988829
-0.0004203480245
-0.0004368153043
-0.0004575986146
-0.0005291105151
-0.0005321448413
-0.0005242969322
-0.0005381781827
-0.0006208301209
-0.0006171156969
-0.000570517521
-0.0005504548782
-0.0005883796322
-0.000633497801
-0.0006663631336
-0.0006396949223
-0.000605116209
-0.0006283658987
-0.0006424946364
-0.0006312282566
-0.000658934703
-0.0007098342207
-0.0007390912355
-0.0007615453403
-0.000834223759
-0.0007893934087
-0.0007313326094
-0.0009376374774
-0.0009889121424
-0.0009232594476
-0.001128374934
-0.001055558822
-0.001102519438
-0.001198995042
-0.001120187072
-0.001301535851
-0.001282256381
-0.001351725406
-0.001462560226
-0.001434709363
-0.001531235322
-0.001607727578
-0.001679352734
-0.001662206843
-0.001796457543
-0.001886866669
-0.001997342523
-0.002648845568
-0.003986969123
-0.02502411056
-0.03999288292
)


100
(
-0.1856207411
-0.03199441544
-0.01649988702
-0.008566041503
-0.002165547624
0.0008548724097
0.002417536203
0.00324084897
0.003409300096
0.003788653676
0.002973055692
0.00322475521
0.002777013521
0.002231937299
0.002374068074
0.00206520515
0.00154231923
0.00148682575
0.001523757213
0.001120251855
0.0007762409362
0.0008122869845
0.000729692023
0.0004717011746
0.0002449541928
0.0002943857703
0.0002128766837
6.326908164e-05
-6.796224944e-05
-4.250207224e-05
-5.753496112e-05
-0.0001774310783
-0.0002823560599
-0.0003460200839
-0.0003070648739
-0.0003546170673
-0.0003999442899
-0.0004914132815
-0.0004292677725
-0.0004351465714
-0.0004935987947
-0.0005661376175
-0.000635615917
-0.0005889317823
-0.0006102167937
-0.0006743366986
-0.0008172684457
-0.0007691032438
-0.000739276987
-0.0007929462761
-0.0009224093675
-0.0008942607317
-0.0008307809957
-0.0008794310881
-0.0009772149453
-0.0009767058679
-0.0008868480245
-0.0009476480424
-0.001038072636
-0.001040197717
-0.0009431517611
-0.0009053204132
-0.0009221604039
-0.0009867596267
-0.00105601014
-0.001078214548
-0.00109756424
-0.00115081352
-0.001183235302
-0.001199867547
-0.001236636283
-0.001284873373
-0.001323262243
-0.001407503503
-0.001517362564
-0.001380643263
-0.001304353506
-0.001585234101
-0.001513485918
-0.001514206319
-0.001755510152
-0.001620281832
-0.001735640376
-0.001711085855
-0.001749906056
-0.001789457274
-0.001778279195
-0.001857626939
-0.001835214757
-0.001696902264
-0.001655864631
-0.001706947303
-0.001549143747
-0.001416206908
-0.001373190658
-0.001282842491
-0.002660349921
-0.01011422595
-0.08934711014
-0.1261933089
)


100
(
-0.135431141
-0.04196992846
-0.02144176767
-0.008821051803
-0.002726001497
4.47185104e-05
0.00163614187
0.003080991709
0.002934718668
0.003379738868
0.003172639846
0.002691818717
0.002902125163
0.002251886054
0.001862250214
0.001969365107
0.001635553419
0.00116825183
0.001090020488
0.001175288428
0.0008023743651
0.000483711343
0.0004350352307
0.0004531507868
0.00021270153
4.172269045e-06
-5.391211399e-05
-2.464363318e-05
-0.0001533144752
-0.0002656531059
-0.0003463888892
-0.0002684230045
-0.0003423844429
-0.0004407106257
-0.0006096515619
-0.0005431844912
-0.0005238244328
-0.000570836554
-0.0008056181087
-0.0007549258558
-0.0006973443949
-0.0006870415358
-0.0008660095774
-0.0009525167193
-0.0008972969894
-0.0007945368842
-0.0009628838924
-0.001143489916
-0.001078235402
-0.0009572671799
-0.001066118985
-0.001194012045
-0.001176528846
-0.001094181573
-0.001147231712
-0.001239343698
-0.001236517478
-0.001176892591
-0.00123727686
-0.001350185676
-0.001422130868
-0.001429012455
-0.001429344193
-0.001457845511
-0.001527720803
-0.001616515491
-0.001660214052
-0.001704453615
-0.001757896705
-0.001759510455
-0.001751219578
-0.001736888055
-0.001695949037
-0.001624340479
-0.001730170405
-0.00186054646
-0.001586040639
-0.001678395783
-0.001818384418
-0.001542000626
-0.001529376343
-0.001552452266
-0.001438905599
-0.001400318368
-0.001269162645
-0.001068439089
-0.000888877886
-0.0007067854102
-0.0004609316826
-0.0001444926872
0.0003046940632
0.0006371764206
0.0009518263835
0.001525977316
0.001975548558
0.002514626005
0.0009602276833
-0.02199208962
-0.1184010767
-0.109900333
)


100
(
-0.1147675862
-0.03688140652
-0.02048928572
-0.008990609621
-0.004314276752
-0.0009567159324
0.001131393295
0.002283873011
0.00298847904
0.002858782614
0.003399067085
0.002787869878
0.002562591219
0.002613796402
0.001991702399
0.001695354158
0.001792990877
0.001477478144
0.0010527537
0.0009306434892
0.001018148358
0.0007329051119
0.0004351417997
0.0002849517423
0.0003549718594
0.000153075772
-5.848352901e-05
-0.0001088179746
-2.382163269e-05
-9.077083161e-05
-0.0002545732031
-0.0004275027783
-0.0003551041654
-0.0002988644388
-0.0004750791172
-0.0007144647578
-0.000655828463
-0.0005086848671
-0.0006611978505
-0.0009357589047
-0.0008969462185
-0.0008047344845
-0.0007862437279
-0.0009975576256
-0.001082150654
-0.0009617879322
-0.0008738676825
-0.001063477115
-0.001242734246
-0.001143094641
-0.001068702857
-0.001169271322
-0.001287237901
-0.001305780931
-0.001275441508
-0.001341397893
-0.001432453432
-0.001463399949
-0.001482693196
-0.001505021358
-0.001570927508
-0.001661716012
-0.001742333031
-0.001768706221
-0.001749026063
-0.001750840235
-0.001754129598
-0.001708037236
-0.00168234301
-0.001644130073
-0.001592727533
-0.001556310165
-0.001536461117
-0.00141463411
-0.001246372538
-0.001265110553
-0.001118043158
-0.0008006216377
-0.00066713657
-0.0005256629604
-0.0002759154496
5.393306255e-05
0.000363940573
0.0006792942543
0.001028617255
0.001427331641
0.001947216019
0.002264643939
0.002732915822
0.003114740684
0.003501788771
0.00400333082
0.004366283987
0.004843811192
0.005315387792
0.006313676876
0.007292805502
-0.02393519072
-0.1031645737
0.007645295897
)


100
(
-0.1017574179
-0.03303511962
-0.01955550821
-0.01104053257
-0.006752551334
-0.001916722898
0.0003094587148
0.001522394755
0.002670929657
0.002824070672
0.002978577598
0.0031808473
0.002563488186
0.002510661059
0.002445865476
0.00189549803
0.001642936512
0.001734288024
0.001466583238
0.001075680926
0.0008785338995
0.0009433052251
0.0007418651974
0.0004440953673
0.0001826410525
0.0002522771436
0.0001820603951
-1.99555829e-05
-4.717982344e-05
2.094609695e-05
7.543076029e-05
-0.0002757865655
-0.0004332524225
-0.000365085825
-0.0001928446324
-0.0005106210267
-0.0007381178296
-0.0006656182871
-0.0004055491512
-0.0006665337296
-0.0009387154609
-0.0009073083361
-0.0007336406369
-0.0007991222374
-0.001011917323
-0.001075269317
-0.0009366670068
-0.0008759055601
-0.001065091081
-0.001192261467
-0.001164029139
-0.001122727316
-0.001188497823
-0.001268838624
-0.001342880597
-0.001406107918
-0.00142296098
-0.001426860096
-0.001464110019
-0.001489633478
-0.00146307599
-0.00139055917
-0.001376026796
-0.001366154719
-0.001293084638
-0.001175652284
-0.001105475949
-0.001012375091
-0.0009059336037
-0.0008335938295
-0.0007134819435
-0.0005424792962
-0.0003837095482
-0.0001571251956
0.0002153062999
0.0005010598165
0.0007692067947
0.001136243535
0.001548654185
0.001883367904
0.002238222923
0.002575112214
0.002985074859
0.003336263263
0.003673708486
0.003883859254
0.004063313008
0.004158650312
0.004116307441
0.004307639571
0.004356187545
0.004230050386
0.004192261174
0.004139445577
0.004164254369
0.004967972815
0.008519130775
-0.0141627453
0.01912100213
0.3297804468
)


100
(
-0.08189520426
-0.03220218933
-0.02162065853
-0.0150376872
-0.007792278743
-0.003284797877
-0.0008088313375
0.0009588253919
0.001927397207
0.002774509361
0.002616061045
0.00294981056
0.002901887417
0.002350944812
0.00239375963
0.002268647128
0.001778174754
0.001534721452
0.001596132406
0.001364743263
0.0009814323661
0.0006977833312
0.0007652305415
0.0006945691928
0.0004435028544
0.0001827445552
0.0001842955279
0.0001143469297
-8.410452857e-05
-8.066628174e-05
4.232003125e-05
0.0001126691947
-0.0003392724254
-0.0004735977439
-0.0003208862382
-0.0002101295832
-0.0005611915182
-0.0007738767286
-0.0005703475978
-0.0004328628137
-0.0006811230211
-0.0009414749501
-0.0008472605907
-0.0007580948945
-0.000825315203
-0.001015399339
-0.001026805028
-0.0009491464655
-0.000882008139
-0.001002236432
-0.001044074767
-0.001120019313
-0.001131446899
-0.001094643532
-0.001090222307
-0.001144099747
-0.001194424228
-0.001158276632
-0.001070274857
-0.001018975674
-0.0009557553482
-0.0008159524305
-0.0006253657711
-0.0004493804023
-0.000291885334
-8.64788011e-05
0.0001008989613
0.0002790014107
0.0005280926951
0.0007572808006
0.001001211153
0.001378189422
0.001804277607
0.002124964279
0.00247862616
0.002886997969
0.003146069931
0.003373577072
0.003603451802
0.003765508498
0.003894096478
0.004016191866
0.003951222395
0.003864329888
0.00370103594
0.003525712504
0.003295102978
0.003033523531
0.002708126049
0.002447987398
0.002213886827
0.001963126199
0.00174631805
0.001541347609
0.001401388362
0.001573463339
0.002626196702
-0.01939482626
0.2235532647
0.7629801808
)


100
(
-0.06626922654
-0.03930169349
-0.02711935175
-0.01738440982
-0.008619018143
-0.005409506926
-0.001866164508
2.747181732e-07
0.001180258463
0.002087795919
0.002545084302
0.002393785901
0.002753952621
0.002545086521
0.002051724961
0.002121877541
0.001964332613
0.001506550989
0.001197043903
0.00125105363
0.001137810283
0.0008383483795
0.0005225317159
0.0006080177946
0.0006776563935
0.0004412563074
0.0001940406288
6.656493222e-05
-3.329275792e-05
-0.0002192981374
-0.0001946489266
0.000121347691
-2.900932122e-05
-0.0004655956048
-0.0005774890988
-0.0002854354636
-0.0003333521739
-0.0006718801623
-0.000825404753
-0.0006144373037
-0.0005387863149
-0.000745107292
-0.0009273494646
-0.0008736382719
-0.0007944778236
-0.0008138245948
-0.0008808226057
-0.000913149829
-0.0009321101833
-0.0008685752115
-0.0008216515786
-0.0008270880566
-0.0008741417544
-0.0008858221271
-0.0007912273053
-0.0006481057205
-0.0005813835765
-0.0004865886085
-0.0002928530511
-2.872461799e-05
0.000217168919
0.000437756312
0.0007193617074
0.001020104988
0.001295648123
0.00157474835
0.001834711557
0.002106320136
0.002453076485
0.002914203173
0.003267967318
0.003508073164
0.003814994067
0.004023703897
0.004057486235
0.004023507867
0.003992847864
0.003902621641
0.003724104108
0.003548783001
0.003197294262
0.002884911524
0.002545460701
0.002212889834
0.001891778875
0.001570769578
0.001296849299
0.001068597319
0.0008911498756
0.0007310409115
0.0006063569847
0.0005323461531
0.0004673804624
0.0004412754719
0.0004447033895
0.0005129692979
0.0002224234951
-0.01274172525
0.3511808466
0.8200847976
)


100
(
-0.05783842348
-0.04438405982
-0.02973258523
-0.01746819486
-0.01091960698
-0.00703013189
-0.003165848224
-0.001116175058
0.0004629000735
0.001275513762
0.00203953801
0.002177157472
0.002124998531
0.002363546113
0.002079452741
0.001604585275
0.001645116725
0.001502433047
0.001162962295
0.0008898689081
0.0009849097268
0.0009932421106
0.0007336729356
0.000454948576
0.0004231416674
0.0005297729172
0.0003863947562
0.0001521589311
-7.565028608e-05
-0.0002290497889
-0.0004043955324
-0.0002793812485
1.171461319e-05
-0.000217035287
-0.0006309989846
-0.0006073561748
-0.0004410284234
-0.0004918652457
-0.0007863439757
-0.0008107247269
-0.0006999639379
-0.0005981699579
-0.0007030573609
-0.0007336817432
-0.0007743169001
-0.0007328052089
-0.000662716779
-0.0006380230398
-0.0006504130718
-0.0006610965425
-0.0006029554203
-0.0004372391967
-0.0003019508578
-0.0001960520775
-4.104324134e-05
0.0002309341492
0.0006030438639
0.0009078228192
0.001225999505
0.001594742621
0.002025213424
0.002397935292
0.002665131715
0.002896140459
0.003181380076
0.003496737383
0.003852638801
0.004109835616
0.004199429768
0.004306998219
0.004431656743
0.004303377931
0.003976827863
0.003690225202
0.003471054194
0.003144290848
0.002764937465
0.002432495055
0.002036617666
0.001693869885
0.001390632911
0.001120038024
0.0009064291661
0.0007117043559
0.0005793829476
0.0004825490163
0.0004088520537
0.0003607410249
0.0003195259516
0.0002893299075
0.0002705528553
0.00025941874
0.0002518562203
0.0002476766599
0.0002555365319
0.0003068641809
-0.0002055610548
-0.00457859053
0.3431399552
0.6357520659
)


100
(
-0.0485283041
-0.04144322607
-0.0289040176
-0.0181230558
-0.01451502611
-0.008076410322
-0.005146925612
-0.002157951684
-0.0006522320052
0.0005489592644
0.001184417126
0.001727511497
0.001699135533
0.001671398813
0.001813638431
0.001543996363
0.00119153762
0.001276463995
0.001261528954
0.001009612827
0.0007175677725
0.0008051485196
0.0009152640149
0.0006707835097
0.0004213853458
0.0002712109378
0.0003775854792
0.0003612338319
0.0001423677696
-7.17336811e-05
-0.0003817621009
-0.000542185304
-0.000223508366
-0.0001327827475
-0.0003518189386
-0.000691859726
-0.0006049146153
-0.00051195347
-0.000504508763
-0.0006143713609
-0.000622806025
-0.0005673167181
-0.0004692742623
-0.0004217272169
-0.0004136516062
-0.000425521482
-0.0003871531411
-0.0002526586077
-0.0001025665722
1.784557606e-05
0.0001699370712
0.0004069141146
0.0007397940575
0.001100116611
0.001451871006
0.001841741305
0.002293281655
0.0028705708
0.003318656587
0.003487884166
0.003652442017
0.003954469032
0.004241982111
0.004426128339
0.004503609393
0.004454893317
0.004379393266
0.004340215347
0.004137202354
0.003644877466
0.003142812931
0.002787848269
0.002445796443
0.002003840827
0.00162691877
0.001336651556
0.001051609428
0.0008304575468
0.000669476056
0.000538111902
0.0004440232701
0.00036894913
0.000319646542
0.0002879481923
0.0002595225173
0.0002390284018
0.0002194585844
0.0002018502332
0.0001897927329
0.000179652088
0.0001733088946
0.0001694991824
0.0001665237474
0.0001687357022
0.0001738230213
0.0002012631612
-0.0005306972336
-0.002797001385
0.2760014567
0.4923909328
)


100
(
-0.0368868825
-0.03820305997
-0.02790352748
-0.02234887219
-0.01636185341
-0.009867616502
-0.006916012833
-0.003692826382
-0.001834100287
-0.0005078800494
0.0003285539576
0.0008364933742
0.001180003388
0.001155293555
0.00119194221
0.001377908319
0.001248343138
0.001027872195
0.001118413696
0.00118579813
0.0009786817595
0.0007463498179
0.0007400020372
0.0008492702334
0.0007154908968
0.0004948746501
0.0002633441091
0.0003312809337
0.0004176841787
0.0002395389209
4.523316991e-05
-0.00033900633
-0.0004243841704
-0.0002172629473
-0.0001480767662
-0.0002994579699
-0.0003940294762
-0.0003983309458
-0.000306822472
-0.0002515139381
-0.0002383707369
-0.0002367738653
-0.0002115381454
-0.0001215115121
2.072831356e-06
0.0001087765152
0.0002383487035
0.0004319984953
0.0007212277495
0.0009863900704
0.001225744985
0.001630448799
0.002081842034
0.002599842456
0.003255862126
0.003521299566
0.003564106691
0.003789239556
0.004127310853
0.004399334765
0.004366756535
0.004130598561
0.004020464254
0.003883902695
0.003703298005
0.003452754145
0.002932479496
0.002424509794
0.002096428415
0.001773626436
0.001396950373
0.001056484241
0.0008462257787
0.0006662655559
0.0005190999456
0.0004149099109
0.0003507014767
0.0002985918274
0.0002639576011
0.000237612479
0.0002140330268
0.000198539749
0.0001823436055
0.0001707925119
0.0001581027629
0.0001466888762
0.0001388066127
0.0001283901165
0.0001210494164
0.0001172501449
0.0001125249505
0.0001100977616
0.0001088194761
0.0001087558587
0.000123330092
0.0001280105547
-0.000757824649
-0.002008119355
0.2220309109
0.381526263
)


100
(
-0.03189013033
-0.03781213614
-0.03190998625
-0.02739398966
-0.01724489742
-0.01325337339
-0.008393637326
-0.006063167668
-0.003176846192
-0.001908288397
-0.0007850377136
-0.0001531570529
0.0002829443724
0.0006143415401
0.0007342267837
0.0008958112291
0.001137790493
0.001122697566
0.001004679847
0.001074245009
0.001228709128
0.001050734377
0.000864656081
0.0007732411568
0.0008758025707
0.0008562707286
0.0006596973223
0.0004638892851
0.0003781515364
0.0004476589926
0.0004095328607
0.000239456362
-9.415815819e-05
-0.0001468462438
-6.533653711e-05
-8.064562912e-07
-3.628729712e-05
-5.289060517e-05
-6.917541404e-05
-3.803713847e-05
1.36356189e-05
6.078539248e-05
0.0001440634104
0.0002751649068
0.0004814902929
0.000607436722
0.0007050904979
0.000945181983
0.001316108864
0.001750099906
0.002313568433
0.002631968492
0.002776288101
0.002899433822
0.003261565122
0.003673787913
0.003894936697
0.003480513443
0.003155194725
0.003096018999
0.003013189823
0.002796807763
0.002465565147
0.002035885584
0.001635849674
0.00139861552
0.001171997352
0.0008695251527
0.0006472761248
0.000537394439
0.0004304756642
0.000350075306
0.0002859532203
0.0002415336291
0.0002116165738
0.0001918050303
0.0001759517557
0.0001624602121
0.0001453897082
0.0001341485524
0.000126656887
0.0001180650327
0.0001107548403
0.0001008208638
9.677507889e-05
9.166280452e-05
8.768345449e-05
8.237794083e-05
8.089575768e-05
7.514394348e-05
7.521245038e-05
7.297790665e-05
7.412436975e-05
7.481636441e-05
8.583727997e-05
5.653478711e-05
-0.0007502312868
-0.001574689381
0.1886897301
0.3241130715
)


100
(
-0.0324464052
-0.042098047
-0.03722517412
-0.02774049208
-0.01967164539
-0.01627783532
-0.01055494249
-0.007970323199
-0.005390555579
-0.00343491681
-0.002475377016
-0.001379922272
-0.0007479177868
-0.0002822051002
0.0001689146951
0.0004565770716
0.0007081935722
0.0009863981768
0.001055536489
0.001023054467
0.001062886556
0.001214755062
0.00113475153
0.0009941612061
0.0008108317114
0.0009014948345
0.0009627240336
0.0007953464928
0.0006217742491
0.0004512340021
0.0004179863912
0.0004052226906
0.0002651905357
0.0001159998391
4.979873024e-05
1.170039172e-05
-6.011792081e-06
-4.755506047e-05
-4.276953973e-05
2.108531853e-05
0.0001380142207
0.0001717601424
7.840789016e-05
0.0002040378018
0.000452624307
0.0007474484935
0.001031429985
0.001209797018
0.001234932998
0.001486245872
0.001810531956
0.002348643864
0.002830810685
0.002519453704
0.001988905799
0.002103984551
0.002237758176
0.002150869003
0.001945677444
0.001548268825
0.00120440175
0.001011558857
0.0008930577872
0.0007597667775
0.000537286921
0.0003755934307
0.0003282010015
0.000282320015
0.0002327763087
0.0001978462914
0.0001684048063
0.0001495200948
0.0001342009759
0.0001241687468
0.0001152719942
0.0001086240404
0.0001000262525
9.196046663e-05
8.344443258e-05
7.826083538e-05
7.500713029e-05
7.004303513e-05
6.492332886e-05
6.217412615e-05
5.984527777e-05
5.648477048e-05
5.440731194e-05
5.224764766e-05
4.985267397e-05
4.935573473e-05
4.660665337e-05
4.880418795e-05
4.91398431e-05
5.333621889e-05
6.218664068e-05
-1.342985225e-05
-0.0006506580853
-0.00124409138
0.1665893723
0.2772628839
)


100
(
-0.03278999042
-0.04361951083
-0.03729744736
-0.0277139286
-0.02418516332
-0.01770775323
-0.01408273776
-0.009672055494
-0.008104032789
-0.005531203403
-0.004129976134
-0.003277847771
-0.002039886207
-0.001284451236
-0.0007447133563
-0.0001709927033
0.0002553240838
0.0005483396057
0.0008309113551
0.0009597490659
0.0009922749167
0.0009887669096
0.001127140433
0.001125990417
0.001014433682
0.0008652706827
0.0007970699554
0.0007957536764
0.000697053998
0.0005025473481
0.0003190818217
0.0001388749054
4.364588658e-05
-8.116394355e-05
-0.0001649777924
-0.0002004883192
-0.0001699050833
-0.0001993232541
-0.0003963847947
-0.0005012914876
-0.0003375791335
-0.0001122494017
8.507310547e-05
-4.3700248e-05
-0.0002515556792
-6.691394754e-06
0.0003444100251
0.0006755896139
0.001452081201
0.001322692613
0.0008709227363
0.0008530776929
0.001302002788
0.001622796975
0.001532561552
0.001068186256
0.0007600124142
0.0007551316693
0.0006339449021
0.0006280850464
0.0004908252566
0.0003135430087
0.0002306161318
0.0002190001774
0.0001974620803
0.0001658910008
0.0001390865222
0.0001262365799
0.0001125216677
0.0001007935056
8.947512486e-05
7.944749771e-05
7.756306045e-05
7.425901573e-05
7.054608477e-05
6.336233826e-05
5.747540098e-05
5.386125402e-05
5.265292432e-05
5.011909985e-05
4.673821693e-05
4.349680428e-05
4.135562248e-05
4.046543991e-05
3.808647869e-05
3.676826939e-05
3.607055072e-05
3.521280366e-05
3.368728635e-05
3.23260529e-05
3.147556957e-05
3.136210938e-05
3.001319412e-05
3.238358787e-05
4.747361797e-05
-5.273904977e-05
-0.0005136097793
-0.0009697788469
0.1491680219
0.2692248458
)


100
(
-0.02689277724
-0.04118546291
-0.03588285752
-0.03042379569
-0.02728253446
-0.01951065725
-0.01691450696
-0.01245372824
-0.01006246166
-0.008418553561
-0.005969380614
-0.004869473246
-0.003869979824
-0.002507906989
-0.001650988774
-0.001098787091
-0.0004641993251
5.46572498e-05
0.0003601195082
0.0006161458994
0.0007824050046
0.0008651800625
0.0008142349281
0.0009117777751
0.0009615165285
0.0008240302407
0.0006674775214
0.0004459656182
0.000321494561
0.0001299537951
-8.176113179e-05
-0.0002433883445
-0.0003402596304
-0.0004417986365
-0.0006690813666
-0.0009174802021
-0.0008851554937
-0.0007587430054
-0.0005639319029
-0.0008661909749
-0.001304060038
-0.001231673501
-0.0008653726988
-0.0006634138792
-0.000254895478
-0.0002421778077
-0.0004523852799
-0.0003924930693
1.590999112e-05
0.0006814696969
0.001167217154
0.000578134439
0.0002156046762
0.0004579545889
0.0005717047777
0.0004906708876
0.0004369148067
0.0002871441226
0.0001577714041
0.0001546522572
0.0001743984583
0.0001716337638
0.0001122238226
8.505599013e-05
9.343556179e-05
9.071812728e-05
8.388620681e-05
7.33461697e-05
6.523418148e-05
5.927174731e-05
5.476196895e-05
5.423378988e-05
5.216029187e-05
4.882980123e-05
4.452265213e-05
4.083227134e-05
3.871627293e-05
3.807253302e-05
3.751119641e-05
3.486352724e-05
3.129235065e-05
3.084732343e-05
2.989098476e-05
2.857716135e-05
2.721314286e-05
2.849694826e-05
2.719878915e-05
2.513795548e-05
2.619899238e-05
2.542040312e-05
2.543757152e-05
2.526330795e-05
2.526369311e-05
2.750006177e-05
3.49789473e-05
-6.600917795e-05
-0.0003826826598
-0.0007432564329
0.1300891441
0.2411361564
)


100
(
-0.01807115046
-0.03801541761
-0.0356472431
-0.03472447165
-0.02761341419
-0.02346654403
-0.0185258186
-0.0162426623
-0.01207840068
-0.01064390049
-0.008692584143
-0.006384713647
-0.005397944541
-0.004241647775
-0.00278267418
-0.001899439924
-0.001396478093
-0.0007635718947
-0.0001887270633
0.0001150643703
0.0003233369125
0.000490247416
0.0005919196575
0.0005714079771
0.0005130164757
0.0004397873569
0.0002663902722
4.39623629e-05
-0.0002040857639
-0.0004325243429
-0.0007092838833
-0.001050185149
-0.00115330669
-0.0011301699
-0.001010895246
-0.00136636444
-0.001985959603
-0.002071531241
-0.001806875101
-0.00151581155
-0.001324941071
-0.00177222377
-0.002201779087
-0.001861097687
-0.00148221995
-0.0007814971131
0.0001328734407
-0.000138415382
-0.0007712487202
-0.0003156595575
0.0001624516966
0.0004287626661
0.0003512240278
0.0001774846291
9.010997759e-05
0.0001120217353
0.0001287801437
0.0001608909199
0.000125629554
5.84653242e-05
6.24647094e-05
7.946537116e-05
8.185630732e-05
7.509318176e-05
7.013525496e-05
5.868820599e-05
5.204615927e-05
4.760900432e-05
4.227429151e-05
3.943958904e-05
4.013415682e-05
4.069597338e-05
3.76954147e-05
3.503154136e-05
3.218210847e-05
3.143558731e-05
3.044558814e-05
2.910787332e-05
2.66984228e-05
2.55171948e-05
2.442697932e-05
2.548212327e-05
2.400289607e-05
2.187859656e-05
2.229686215e-05
2.134559916e-05
2.099542493e-05
2.042071515e-05
1.865102696e-05
2.013784299e-05
1.903020435e-05
1.953210394e-05
2.171415359e-05
2.350809137e-05
3.291171737e-05
-7.347651044e-05
-0.0002918795991
-0.0005770123168
0.1114721624
0.2101050895
)


100
(
-0.01724814228
-0.03804140843
-0.03867527938
-0.0358281868
-0.02831900419
-0.02705209348
-0.02072439467
-0.01854130023
-0.01566882643
-0.01254136372
-0.01137954838
-0.009049928603
-0.006732066539
-0.005766648739
-0.004539594307
-0.00303590019
-0.002134365174
-0.00171327556
-0.001128987672
-0.0005163152283
-0.0002161524078
-7.635432993e-05
1.316674017e-05
7.961677664e-05
1.550135705e-05
-0.0001893708711
-0.0004682027242
-0.0008482251352
-0.001070923326
-0.001270816198
-0.001307190349
-0.001634457292
-0.00222605033
-0.002552202517
-0.00241428112
-0.002185376895
-0.002153133879
-0.003011140815
-0.003711618044
-0.003365311992
-0.002922721548
-0.002629010372
-0.001764703757
-0.002005136395
-0.00235346239
-0.002044840142
-0.001123807782
-0.0003027027746
4.38445345e-05
-0.0003131870867
-0.0003164800189
-5.473915005e-05
2.963369739e-05
7.425699802e-05
8.427208195e-05
4.687190486e-05
7.056133688e-06
4.147761151e-05
7.005648242e-05
7.021309221e-05
4.548182941e-05
3.851774501e-05
4.863775897e-05
4.828777435e-05
4.357886467e-05
3.923966537e-05
3.54041853e-05
3.26181693e-05
3.285192435e-05
3.46314998e-05
3.325544395e-05
2.834439754e-05
2.5879507e-05
2.411522728e-05
2.373392148e-05
2.378819583e-05
2.403397408e-05
2.338061196e-05
2.18322286e-05
2.008781347e-05
1.973331551e-05
1.854287689e-05
1.900462412e-05
1.87834729e-05
1.841476086e-05
1.564219663e-05
1.529039201e-05
1.652516698e-05
1.73052241e-05
1.571921425e-05
1.595169298e-05
1.457541447e-05
1.483771146e-05
1.827206141e-05
2.675305859e-05
-0.0001041133275
-0.0002255111771
-0.0004587939199
0.09750584381
0.200398543
)


100
(
-0.02005283925
-0.03940539798
-0.04030548527
-0.03477436123
-0.03204116386
-0.02809614948
-0.02486588513
-0.02042147248
-0.01935451736
-0.01582175289
-0.01348955302
-0.01221181122
-0.009326495679
-0.007061097347
-0.006157991574
-0.004933343341
-0.003400065427
-0.002476127408
-0.002122882534
-0.001664127225
-0.001066174753
-0.0007399218774
-0.0006978415975
-0.0008059848711
-0.0009228201185
-0.001122843662
-0.001395280518
-0.001714816684
-0.00223531463
-0.002695736667
-0.002843961039
-0.002780145265
-0.002768501858
-0.00366302093
-0.004761534107
-0.004445009461