/*--------------------------------*- C++ -*----------------------------------*\
| =========                 |                                                 |
| \\      /  F ield         | OpenFOAM: The Open Source CFD Toolbox           |
|  \\    /   O peration     | Version:  2.3.1                                 |
|   \\  /    A nd           | Web:      www.OpenFOAM.org                      |
|    \\/     M anipulation  |                                                 |
\*---------------------------------------------------------------------------*/
FoamFile
{
    version     2.0;
    format      ascii;
    class       dictionary;
    location    "constant";
    object      PM5;
}
// * * * * * * * * * * * * * * * * * * * * * * * * * * * * * * * * * * * * * //

PM5_table
100
(

100
(
35.05574522
84.24515885
49.83529331
29.50317342
24.64916728
20.695179
14.8288653
14.35732593
11.83339862
10.55544557
10.57627649
8.331271247
8.150926547
7.702776396
6.330719761
6.13146504
6.129783349
4.856998202
4.69136642
4.765807276
4.098572023
3.746034751
3.71290745
3.613265735
3.127457235
3.070404725
3.086299648
2.911470939
2.490358564
2.429810733
2.436389044
2.305911477
2.111101408
2.090438968
2.098631604
2.027247836
1.760002162
1.634146526
1.619005694
1.573856929
1.4247915
1.330813671
1.319815119
1.293447553
1.213147513
1.151444232
1.144904617
1.147175084
1.034429234
0.9425549528
0.9003977037
0.8841356549
0.8253197592
0.7761410811
0.7501151162
0.7348598551
0.7077831493
0.6850798733
0.6737982755
0.6585600093
0.6274923979
0.5817327698
0.5566748325
0.5473646829
0.5235217111
0.4804783962
0.4596274353
0.4517741337
0.4198682438
0.3900955791
0.3750487813
0.3604250788
0.3286657619
0.3121138452
0.3065697085
0.2882242307
0.2602992734
0.2532845838
0.2392876164
0.2135266467
0.2092602485
0.1908109927
0.1759275727
0.1723815547
0.1489678764
0.1448463551
0.1330141024
0.1211135856
0.116057481
0.1043978747
0.09960674061
0.0917588545
0.08820278409
0.08240280704
0.08033151391
0.075841116
0.07481794726
0.08118613044
0.132137099
0.2389415593
)


100
(
109.5705179
66.02295099
42.50812666
27.027048
24.90102771
18.76979304
15.90988102
13.44909545
12.05062745
10.04029446
9.872389211
8.192765488
7.728481999
7.361917071
6.282682603
5.87240582
5.721782332
4.994693764
4.526990274
4.462094872
4.094684112
3.73483847
3.543232595
3.434091276
3.188563442
2.999447289
2.919133158
2.793159139
2.577462812
2.408774066
2.311655466
2.222390042
2.123018409
2.042234674
1.986442225
1.929754348
1.79068032
1.679997155
1.585591693
1.512418003
1.427539028
1.360896755
1.304131315
1.244446799
1.197337367
1.160820888
1.130199038
1.100209741
1.032224303
0.9814069362
0.9375888642
0.8925639636
0.83240673
0.8002326827
0.7765462363
0.7484714424
0.7079362797
0.6926393808
0.6822672555
0.6635875489
0.6285756077
0.6128802148
0.5849752073
0.5548254615
0.5363985259
0.5208437959
0.4899051933
0.4587362225
0.44826459
0.4256501211
0.3966305353
0.3745536898
0.3617268415
0.3374118557
0.3156846857
0.3105077803
0.3000794265
0.2769763522
0.2648418653
0.2501579831
0.2348430361
0.228386109
0.2073146067
0.2066406068
0.1942383984
0.178451417
0.1751320864
0.1625018251
0.1541295103
0.1480178816
0.1401166275
0.1332628406
0.1269141166
0.122649696
0.1170399895
0.1128651484
0.1037161124
0.08588527327
0.1192662123
7.275268056
)


100
(
196.0790974
56.53878368
36.61161088
29.78942779
24.90819345
17.28108165
16.84738108
12.56446638
12.07986963
9.983711046
9.161783487
8.353652025
7.227974567
7.003484306
6.4320024
5.665982399
5.381533495
5.130138036
4.590009301
4.178613695
4.064595911
3.791361144
3.483870673
3.257738702
3.186921571
2.980124494
2.808109564
2.677380889
2.62562528
2.444698185
2.283142806
2.142074572
2.088212124
1.99782584
1.920568285
1.851337635
1.802796411
1.734516735
1.633064413
1.53781412
1.452671459
1.390556895
1.332262025
1.277986023
1.226254671
1.171770797
1.137960894
1.110204711
1.07889443
1.027012951
0.9990054698
0.9605405754
0.9161053932
0.8596474078
0.8314972582
0.8104695808
0.7754128038
0.7186950259
0.6941766935
0.6837388541
0.652428557
0.6298628089
0.6229635371
0.588224829
0.5553805908
0.5521506191
0.5437477625
0.5000341486
0.478120537
0.4719670379
0.4559526235
0.429417364
0.4222673394
0.4088171663
0.3756015725
0.3579411293
0.3658123083
0.346646719
0.3249379245
0.3283930166
0.3066492257
0.3005886059
0.2900341962
0.2697892943
0.2791823868
0.2597278176
0.2539129679
0.2560113866
0.241493432
0.2410717527
0.2336445592
0.2316155407
0.2211613784
0.2176132355
0.2113215743
0.2032426823
0.1604843064
0.09993592685
0.2999212185
0.7177003444
)


100
(
180.8685206
68.40376524
41.79221302
33.70360937
22.45952337
18.46413675
15.83906368
13.44220879
11.56009307
10.5948306
8.789993318
8.382518802
7.496961331
6.716309101
6.481205669
5.925661128
5.301209827
5.030666957
4.824051189
4.362347689
3.976811707
3.830138789
3.628738144
3.345038725
3.099585382
3.011276711
2.87244021
2.709279411
2.56296416
2.491671355
2.394043524
2.240125722
2.099081429
1.993000609
1.953004392
1.885833906
1.818801135
1.73342752
1.712465979
1.6584006
1.571842608
1.479763796
1.407076426
1.389738726
1.341257111
1.264917664
1.167638005
1.154504255
1.142470016
1.0906028
1.014427993
0.9976567006
0.994738537
0.9398171765
0.8678090811
0.8416794119
0.8505385532
0.7937748889
0.7227779663
0.6900689273
0.6866726346
0.648892011
0.6254178731
0.6166813831
0.597687744
0.5745146459
0.5715736597
0.5655321396
0.5400461987
0.5234844766
0.5138954187
0.5055897369
0.4902046646
0.490231485
0.4831888111
0.4470200268
0.4227217198
0.4322925142
0.4149315928
0.3923849777
0.3927729887
0.3736097477
0.375027108
0.3612726036
0.3547157463
0.3509596301
0.3337016566
0.3321197479
0.3298225119
0.3271119993
0.3181032264
0.3071102356
0.30567321
0.2898842709
0.2819800209
0.2656342495
0.1625262584
6.842734352e-05
3.138528978
6.270001413
)


100
(
158.8095953
80.65131937
47.21199056
30.48561233
21.43465838
20.32726762
15.19004801
14.54373026
11.57006601
10.70780092
9.4105937
8.240817535
7.896309928
6.97709054
6.380431264
6.160446825
5.64052499
5.086125078
4.825645488
4.677234311
4.248431255
3.883985954
3.700905237
3.566583642
3.296406844
3.062339774
2.926643981
2.850894539
2.704553191
2.56908436
2.454980369
2.418803666
2.298161856
2.159889753
2.010066441
1.986105624
1.952266704
1.878169023
1.725140756
1.699972762
1.690044454
1.640389734
1.507430549
1.423260265
1.413871333
1.415007592
1.285841965
1.160251619
1.15027827
1.16870119
1.090649506
1.00339945
0.9794758478
0.9833846312
0.9295627832
0.8598081733
0.8398536244
0.8485922943
0.8137294315
0.7581223829
0.7291965606
0.7206616929
0.6961135352
0.6745743319
0.6558642252
0.6366336771
0.6229743333
0.6172304838
0.6073086997
0.596516589
0.5785158195
0.5668661517
0.552242035
0.5434914577
0.5468798084
0.5475893743
0.5091713702
0.4967097208
0.4978684275
0.4761752551
0.4728983256
0.4624879621
0.4375732996
0.4384948026
0.4340633849
0.4309056542
0.4239093836
0.4124527988
0.3999380068
0.3938532004
0.3969564508
0.3817017851
0.3700727247
0.3645011258
0.3441368809
0.3086436755
0.1501649257
0.3092775334
5.694358513
8.44040837
)


100
(
150.3613155
69.29553019
42.64092876
28.01129794
23.71450086
19.78869987
16.18505039
14.32139069
12.67641352
10.68631719
10.19796952
8.684164815
7.902186677
7.496364508
6.676137239
6.187634886
5.98889954
5.509434455
5.002604637
4.729068539
4.594858542
4.230490455
3.882032217
3.648314279
3.55312656
3.31488981
3.090266101
2.973643862
2.941954742
2.828154176
2.657964532
2.493284136
2.46099157
2.415515275
2.239118782
2.053432606
2.025999982
2.045684239
1.912990337
1.730239193
1.692255708
1.692500789
1.644034329
1.497860545
1.416998366
1.440177642
1.436495178
1.296328641
1.171717925
1.175182463
1.176983687
1.103069127
1.023185559
0.9988758353
1.00108847
0.965752275
0.9229197356
0.9121760373
0.9082711091
0.8966060469
0.8663938317
0.8325020393
0.8007853772
0.7722218592
0.7531183986
0.727584943
0.699853765
0.6872675014
0.6711455102
0.6614312732
0.6492430772
0.6340326396
0.6179850702
0.6023438125
0.584694951
0.5877347629
0.600960224
0.5836130687
0.5710522516
0.5583156052
0.5524576487
0.5567719778
0.5370558502
0.5176821862
0.5100127146
0.4959367003
0.4904102522
0.4867861591
0.4839768628
0.462761575
0.4543162482
0.4540697943
0.4383193492
0.4310738309
0.4050371096
0.3133576886
0.09737261788
1.395706637
7.563762306
9.419697203
)


100
(
144.666171
61.02804357
38.92464787
29.1450053
26.38375213
19.17173863
17.89712406
14.17274245
13.55254177
11.43322296
10.28762288
9.530597166
8.210991087
7.667678321
7.220633186
6.505481315
6.075956164
5.892750252
5.468238647
4.992345866
4.679703704
4.545060262
4.248402819
3.90595054
3.614490023
3.521928506
3.363843397
3.150842734
3.051629616
3.016397624
2.957087468
2.678501246
2.510911333
2.476884668
2.477876453
2.240156833
2.059252778
2.044832745
2.113652579
1.931565574
1.742932578
1.700613472
1.725407412
1.647484986
1.50271425
1.438973548
1.470919073
1.458417626
1.327911924
1.235353767
1.229780722
1.234409127
1.19052092
1.135979988
1.094796512
1.065303749
1.05035138
1.040256194
1.013777516
0.9878564171
0.9724253944
0.9624943292
0.9287573271
0.8852285889
0.8547160066
0.8381969625
0.8160164364
0.7997532552
0.7834395234
0.754955946
0.7342414879
0.7201604088
0.7001863329
0.6814466067
0.6758592091
0.6581997778
0.6615839903
0.6572683275
0.6484897766
0.6420940201
0.624992692
0.6138713401
0.6178718502
0.6032792178
0.5918072014
0.5785780634
0.5616525204
0.546576514
0.5467184833
0.5429475517
0.5223517694
0.5127599118
0.5031296232
0.4919379634
0.4694275417
0.3184320061
0.0255229722
2.937917287
8.822952129
10.80118793
)


100
(
129.6472726
57.85138207
39.55530753
32.67427488
25.21250081
20.25480289
17.99553062
15.3101701
13.59356621
12.59397045
10.53172593
9.8608779
8.963898383
7.854225553
7.456840296
7.011149505
6.373553703
5.972244171
5.799361565
5.42222754
4.957792749
4.594579591
4.471080911
4.26484635
3.942533824
3.638930526
3.4977936
3.329608116
3.11633586
3.044416753
3.047741638
2.992647889
2.659412034
2.500778403
2.505830433
2.476573567
2.226306976
2.060026382
2.110659905
2.121287877
1.941759555
1.760224833
1.738270112
1.732118089
1.654699104
1.530526127
1.504063008
1.522985705
1.525780402
1.439072692
1.3868061
1.345621014
1.329496297
1.315280649
1.277061295
1.212708074
1.149826389
1.111531758
1.094065499
1.069649938
1.041936979
1.028527979
1.022499655
1.012887013
0.9879548573
0.9638699103
0.9299676024
0.8960810923
0.8882287498
0.871876192
0.8356029272
0.8084316502
0.7903749401
0.7775842772
0.7711499977
0.7502785602
0.7287000042
0.7282588972
0.7150391467
0.700952312
0.6971808749
0.6887873155
0.6818631005
0.6746382147
0.6672277338
0.6579415271
0.6447238202
0.6235437195
0.6097184591
0.6114885224
0.6013019547
0.5832435601
0.5709552248
0.5540345864
0.531266204
0.3266883441
-0.0003284345676
4.01907537
9.750173787
10.99213169
)


100
(
113.6793483
65.16075013
44.14905945
33.27474584
24.13376629
22.25901489
17.64389968
16.70953606
13.67435748
12.85552762
11.48300159
9.913365303
9.452267875
8.509865169
7.554292037
7.240111352
6.819202635
6.235024331
5.799977605
5.638254191
5.353072354
4.925603717
4.524850299
4.414725246
4.303040684
3.987940542
3.680637176
3.456770919
3.261061333
3.057178947
3.012104346
3.125497082
2.951390159
2.621896772
2.480159758
2.545782567
2.448068358
2.204501163
2.074263965
2.128213176
2.111920382
1.950643901
1.798999657
1.770364722
1.770041745
1.724099875
1.665001683
1.632692756
1.610978158
1.607575449
1.573687542
1.510866792
1.438266718
1.378688833
1.357574183
1.357111876
1.304245348
1.241898612
1.192549435
1.158923678
1.138452877
1.122372224
1.115284332
1.091441271
1.059124494
1.045091041
1.033314792
0.9948658569
0.9603473141
0.9494269654
0.9409939726
0.9276757223
0.9035611188
0.8610145976
0.8390507816
0.835927099
0.8099672231
0.7942637439
0.7926961111
0.7844573635
0.7704587116
0.7583769429
0.7529489309
0.7473869255
0.739669122
0.7346078969
0.7220256015
0.7018767649
0.6835012605
0.6759289614
0.6714325745
0.6560030236
0.6435426459
0.621960626
0.5920011163
0.3333336322
0.08112903239
4.723386871
10.30761024
11.60268361
)


100
(
103.6652091
69.05896705
44.97071079
31.28565572
25.43975679
22.4415996
18.35199638
16.57307266
14.74106328
12.82148529
12.19848163
10.63947008
9.523806585
9.072193615
8.136496224
7.263784963
6.984886687
6.607994612
6.082023863
5.647413539
5.518185584
5.327738885
4.919716208
4.531647632
4.34952906
4.271866907
4.023153842
3.716787934
3.425571254
3.188178644
2.99683537
3.021708593
3.116471374
2.89910044
2.581310925
2.505141812
2.517218961
2.417158818
2.197008508
2.130892809
2.146234187
2.153450049
2.041426893
1.949822882
1.871290094
1.847114936
1.834439281
1.796326345
1.733595715
1.666217181
1.613161487
1.606734216
1.575596328
1.511833974
1.447115671
1.412201991
1.388452439
1.381576008
1.347797268
1.305528025
1.248770503
1.193791576
1.180481467
1.177735161
1.144004803
1.105636201
1.091619982
1.084116457
1.077291475
1.063487521
1.0261716
0.9855675179
0.9834630028
0.9586544047
0.9182421481
0.9008633703
0.8984183823
0.8849315626
0.8674423214
0.854218865
0.8467522283
0.8351535349
0.8244866693
0.8185536528
0.8099776334
0.7974572149
0.7959918312
0.7783567689
0.7612577111
0.7474483369
0.7313371188
0.7158232414
0.6981627818
0.6801430095
0.6120950354
0.308769454
0.4185487357
5.489292046
10.98355473
11.89168995
)


100
(
99.65485389
63.61346822
42.23609426
30.34977156
27.80840792
21.78605984
19.91628836
16.35201893
15.63412932
13.41842015
12.24090383
11.56837215
10.02774652
9.151766479
8.72208687
7.824307302
7.032788548
6.794943291
6.516525024
6.031640386
5.554568593
5.429490965
5.335429306
4.936157685
4.557251451
4.29732239
4.228498555
4.076134252
3.778297307
3.482187209
3.152736119
2.966935553
3.107913935
3.090298779
2.866000618
2.577749378
2.532057498
2.515533605
2.453039155
2.325799795
2.26566741
2.253203065
2.263350883
2.206792144
2.103004885
1.98303554
1.88745376
1.866131337
1.868664418
1.810416926
1.737936872
1.672403258
1.631960352
1.617018977
1.598368939
1.556564048
1.518761775
1.461109187
1.416188729
1.409063918
1.386652818
1.322435025
1.25859357
1.233923002
1.233184846
1.223673346
1.203715168
1.169749508
1.130102357
1.140414106
1.13181535
1.083267381
1.048508861
1.039531033
1.027310295
0.9988820156
0.974417734
0.9614753999
0.9505499892
0.9363090196
0.9235952549
0.9131851219
0.8948762013
0.8781137572
0.8726246783
0.8601023622
0.8557390198
0.8479229607
0.8328872098
0.8153986461
0.7964091892
0.7792406719
0.7518644219
0.7309573273
0.5931164155
0.2237129329
1.30668797
6.561679704
11.10070574
11.71203812
)


100
(
99.89766186
58.70771045
39.80890819
32.97169786
27.84944698
22.2972276
20.36473889
17.41992321
15.66229112
14.552325
12.51364593
11.76797784
10.91938394
9.581515936
8.863867953
8.517231698
7.703281839
6.963308879
6.714675938
6.516221402
6.042195156
5.591653567
5.392431143
5.309250792
5.00590055
4.637267721
4.315125434
4.226212106
4.157096078
3.887976002
3.589947784
3.199019765
3.059558937
3.123157391
3.096477166
2.906615561
2.73879368
2.642351931
2.638620101
2.609889874
2.536825013
2.43427714
2.33445319
2.296301161
2.292741647
2.222243138
2.103285484
1.990365829
1.924386188
1.909597812
1.901436129
1.854551947
1.803917692
1.745627277
1.678381036
1.661863605
1.665468906
1.622121264
1.547216475
1.47869209
1.448173112
1.448883343
1.427217873
1.388935929
1.34580934
1.302209785
1.300095849
1.290217084
1.231213742
1.187279529
1.193116933
1.196000979
1.171930259
1.153613196
1.136483101
1.118768435
1.087175746
1.05733491
1.039736087
1.024367013
1.004874401
0.9921247807
0.9769939538
0.9558556478
0.9395677762
0.9273585821
0.9209045576
0.9116447257
0.892552904
0.8774417258
0.8564472962
0.8377954256
0.8133592434
0.779863341
0.5789806759
0.07901416488
2.7153689
7.530398901
11.56257731
12.23983063
)


100
(
94.48954531
57.47351103
42.23467437
35.81392197
27.03597434
24.26853584
20.30319792
19.03922909
15.93590081
15.02142884
13.61883865
11.91132923
11.38396237
10.50156562
9.335182573
8.74149837
8.459598254
7.702401739
6.992833044
6.702369208
6.60042145
6.125737288
5.685933559
5.409707194
5.331892678
5.135712326
4.776673621
4.461345364
4.265513902
4.197547599
4.037785509
3.755990636
3.3565459
3.234597333
3.247932902
3.259255632
3.143890176
3.010360354
2.839737373
2.740287501
2.727167682
2.678491028
2.567988348
2.452021561
2.358474729
2.341886197
2.327022297
2.24600799
2.143472724
2.077656012
2.016803806
1.99766612
2.000745242
1.970295461
1.885051225
1.783882856
1.7132852
1.727296027
1.717622057
1.665115996
1.61780051
1.57048819
1.54269979
1.547314257
1.529330068
1.448626062
1.373192234
1.359243393
1.358290171
1.317161474
1.29930411
1.287932465
1.276995841
1.263733392
1.246550468
1.228939299
1.205868383
1.175786446
1.144636018
1.123356299
1.101419182
1.082902231
1.065071311
1.045501519
1.03107159
1.014535539
0.9905289727
0.9867480934
0.9690806042
0.959109027
0.9414222299
0.921670748
0.8982702922
0.8503342579
0.5753606484
0.001688291816
3.706920009
8.896385417
11.93165031
12.47927589
)


100
(
87.27855727
61.42104239
45.65882456
34.59516529
27.74411395
25.36126525
21.01327329
19.3330583
17.3487942
15.24138432
14.52427067
12.93659497
11.64034034
11.1423737
10.28530559
9.206964923
8.669666647
8.437881004
7.745680972
7.076362448
6.73060878
6.628025148
6.242419502
5.814658378
5.44827013
5.374554048
5.277884381
4.945857697
4.635738953
4.376240286
4.260776385
4.179377244
3.960003822
3.707818726
3.573546514
3.455139562
3.412950511
3.361947998
3.196263635
3.00948302
2.845992493
2.792763048
2.796709973
2.706980713
2.592954701
2.495767221
2.428585022
2.402901639
2.393072123
2.342020421
2.274082696
2.168201856
2.074754369
2.072250561
2.095328501
2.015108608
1.914811908
1.845189362
1.818897482
1.83106047
1.843045695
1.803327095
1.703567944
1.617039134
1.623029006
1.616636988
1.547243904
1.495383123
1.470816463
1.455677513
1.43370615
1.401827641
1.372803768
1.357460348
1.343690014
1.327267901
1.308590564
1.287804148
1.260076906
1.23213525
1.206576762
1.1893395
1.169596487
1.146834823
1.122200617
1.103554738
1.085588461
1.072973518
1.064106159
1.050870106
1.037554314
1.024240811
0.9927706793
0.919408679
0.575102126
0.1868736678
4.44178317
9.562265418
12.18045167
12.49141949
)


100
(
82.25553646
62.10880953
44.65051422
33.4502884
29.97286113
25.01668757
22.70858353
19.36503627
18.52389046
16.16769272
14.74430973
14.07741674
12.46259592
11.38907394
10.94758797
10.12710852
9.125128742
8.586677596
8.402030927
7.799794605
7.162147417
6.738057801
6.637159937
6.353469333
5.94312374
5.593865149
5.403221779
5.312042418
5.118383057
4.814419526
4.561500317
4.328865243
4.260930362
4.198603975
4.001980948
3.798311758
3.581661652
3.470117656
3.451003665
3.358522022
3.172069151
3.001287184
2.883318978
2.851500314
2.826675709
2.748862865
2.672480062
2.603338164
2.49956526
2.467147931
2.462495831
2.400928012
2.284777233
2.178197301
2.135583146
2.149076077
2.148631938
2.085785516
2.042174193
1.962817526
1.921949477
1.936266474
1.901573028
1.797047362
1.717094073
1.698018076
1.692386086
1.671132351
1.634919346
1.599578642
1.574314659
1.547888109
1.508530032
1.473539556
1.448622867
1.430290329
1.413669262
1.39816611
1.379350443
1.352404312
1.318942295
1.292215968
1.276060621
1.257983542
1.232799497
1.19860633
1.177558928
1.164592343
1.157458428
1.148754629
1.121606306
1.098600833
1.081551937
0.9864078584
0.6049294614
0.5287358664
4.717257638
9.567894068
12.38103475
12.8636993
)


100
(
80.8840324
59.08657976
42.72808999
34.50860948
30.92997367
25.13121007
23.4351926
20.35974705
18.60224163
17.44970449
15.1986546
14.22811972
13.47092067
12.04378487
11.12790713
10.75943207
9.995352115
9.057738146
8.502568567
8.340239633
7.846981385
7.235989695
6.722909201
6.620365714
6.482282138
6.059259538
5.718271938
5.413527094
5.326542565
5.242286733
4.993593266
4.739928947
4.463735252
4.29707525
4.249701511
4.180623848
3.962911963
3.737008688
3.533276701
3.486957739
3.459070333
3.327707558
3.162040149
3.05008224
2.953449469
2.914163734
2.902977195
2.843440738
2.741625571
2.610096636
2.498115207
2.503877609
2.496054168
2.393171013
2.302024141
2.274864112
2.241620205
2.249962782
2.245596958
2.158165729
2.042703419
1.960935841
1.985596221
1.978865052
1.905883955
1.864792927
1.833240018
1.807976118
1.780465493
1.743904544
1.707555643
1.674610109
1.65185319
1.614614337
1.579089654
1.551334446
1.528409902
1.50866079
1.481321518
1.45320824
1.440091683
1.415579181
1.401680664
1.360123193
1.326497265
1.304505025
1.27866093
1.25849675
1.234560717
1.230710652
1.220212143
1.170013498
1.1604609
1.058815501
0.701034292
0.811584996
4.594612003
9.3799273
12.51548333
12.94262385
)


100
(
80.80875704
55.85730923
42.00264418
36.64414413
30.08685198
26.73993361
23.25900677
21.77844976
18.76554556
17.74424217
16.32657841
14.38574993
13.7381779
12.98073641
11.68339334
10.86827533
10.56096939
9.868126144
9.011117154
8.412112551
8.26247048
7.89409996
7.311807809
6.842919026
6.589653554
6.46189765
6.167909658
5.846747941
5.575429638
5.345500263
5.26075739
5.161027656
4.886714451
4.595185971
4.320165802
4.269484532
4.274304881
4.113064639
3.887302613
3.68716757
3.535901792
3.494013122
3.470281734
3.373468264
3.276710768
3.133761984
2.969976123
2.938286185
2.958995608
2.852137739
2.718724999
2.602725217
2.546966783
2.545451342
2.542132009
2.493178558
2.42177222
2.31255369
2.276670993
2.297752138
2.22482984
2.117290273
2.063681955
2.050701703
2.039674397
2.02550836
1.990172431
1.947431307
1.918015724
1.887617966
1.844327421
1.799679151
1.765605424
1.734078959
1.697968328
1.662787039
1.652038594
1.633250737
1.60962787
1.57317969
1.540551179
1.505422085
1.494847763
1.483129346
1.442916076
1.411660028
1.380104461
1.355763478
1.331872876
1.305744002
1.308791809
1.282006695
1.238066781
1.098104791
0.6136633964
1.075419469
4.551946712
9.720384534
12.57862836
12.82103051
)


100
(
77.51165012
56.31186569
43.9097019
36.66883931
29.73664194
27.89765445
23.57074241
21.9440334
19.97875252
17.78663271
16.99412585
15.5027599
13.85925948
13.34522092
12.6131635
11.42577271
10.63589146
10.3886448
9.806704169
9.010972473
8.342577178
8.198236936
8.008333707
7.413802182
6.957885175
6.569616271
6.45258978
6.354049598
6.022072462
5.733647701
5.375689691
5.257377513
5.209704741
5.031024533
4.73488271
4.465198182
4.289667598
4.295657895
4.24918707
4.054767806
3.865844378
3.737542773
3.595529879
3.57555585
3.558476003
3.465164245
3.285140614
3.101937397
2.982994367
3.000639209
2.971674671
2.85012983
2.779699158
2.708424332
2.646284737
2.625874935
2.627067531
2.510831045
2.386851414
2.319561774
2.321633539
2.304544041
2.231129267
2.192970637
2.158218032
2.132431547
2.105015942
2.065649136
2.021791479
1.983050125
1.961094773
1.94283188
1.9045445
1.870472085
1.834292629
1.790756881
1.748778393
1.715075658
1.700011468
1.695841192
1.665145814
1.620752967
1.575549353
1.557634009
1.546188207
1.532477261
1.494692635
1.45312979
1.421041008
1.398563939
1.374477115
1.370902722
1.328891476
1.160162872
0.6200511918
2.201824873
4.514105965
10.10534835
12.57924085
12.86776468
)


100
(
74.0004584
58.17780064
44.91209215
35.50393175
31.27059827
27.54693647
24.97528076
21.89575509
20.94543453
18.72716254
17.18822375
16.50089057
14.8956792
13.49877987
13.05511211
12.36386138
11.2679969
10.48496517
10.26678428
9.805507033
9.051888194
8.465281578
8.160760575
7.976639415
7.550324489
7.123805585
6.766326025
6.499819349
6.38193527
6.191304129
5.886373211
5.541629946
5.264001252
5.226876394
5.191280309
4.894409736
4.62819841
4.436016103
4.33582335
4.297724581
4.277950896
4.128947586
3.975930537
3.758857389
3.619277588
3.622255343
3.639789446
3.443894108
3.258560275
3.130219455
3.069177956
3.086495373
3.092726518
3.021355966
2.864325436
2.702808784
2.688185069
2.700993001
2.601934399
2.491449361
2.442847926
2.411649
2.379093057
2.339344607
2.30586581
2.261328863
2.231993996
2.196883324
2.148464961
2.104950304
2.072870291
2.043718606
2.010838465
1.975380702
1.945590283
1.927939201
1.882472191
1.839034978
1.813401276
1.791732668
1.746340076
1.721526773
1.686947377
1.652867445
1.630114677
1.605471685
1.582421834
1.555888067
1.521743884
1.499725836
1.470605526
1.450333703
1.413999772
1.223205876
0.5068650124
4.122787747
4.14351177
10.58185602
12.49519559
12.85225064
)


100
(
70.98508818
56.74019621
43.47799922
35.29452264
32.68935784
27.22372381
25.75182135
22.7972505
21.03657484
19.97543251
17.79511367
16.626524
16.00079454
14.40873149
13.18471999
12.81950192
12.18405523
11.19620159
10.37021886
10.15439909
9.916986072
9.167669476
8.599057325
8.149603105
7.982079473
7.811017998
7.367947579
6.963670031
6.518880167
6.395996029
6.375406996
6.058514537
5.713630037
5.388727196
5.255164475
5.219537941
5.095092061
4.823401695
4.656023082
4.513566508
4.419219193
4.372390128
4.33977307
4.143617258
3.915458861
3.708596547
3.681725285
3.688867571
3.624619348
3.462945644
3.390897471
3.275458506
3.21393957
3.218575859
3.173657663
2.995327626
2.824375564
2.76709277
2.758810782
2.737400483
2.668153543
2.612831891
2.565682568
2.526418389
2.48305266
2.429967724
2.369621505
2.314684794
2.270245369
2.249315247
2.216274751
2.182786758
2.149076161
2.113746495
2.077678869
2.035650418
1.990020673
1.950968395
1.943670239
1.928211471
1.885412065
1.836994242
1.796286505
1.781379387
1.765143938
1.723527874
1.691452087
1.66551645
1.641555905
1.609232452
1.593581175
1.563932562
1.53062879
1.296692166
0.4766464877
5.78105523
3.487456119
10.86438621
12.55571144
12.89198583
)


100
(
70.24028443
54.79114385
42.18550648
36.65263825
32.05230761
28.50449116
25.71734841
24.13048749
21.35669154
20.21916078
18.96305647
17.01682636
16.12904674
15.51191905
14.0742628
12.91949132
12.62567267
12.09532737
11.1828052
10.46137162
10.12534658
9.878266838
9.306664482
8.772970417
8.31527906
8.055648948
7.887371494
7.570720451
7.15895593
6.712277405
6.43188825
6.406510187
6.265614462
5.905165866
5.594719325
5.354658136
5.263576379
5.214647695
5.108608444
4.957016265
4.751641774
4.491734571
4.408006474
4.419158286
4.308529205
4.082148377
3.890002577
3.786225951
3.780254754
3.80121565
3.766837779
3.63176841
3.422761341
3.263338652
3.307484145
3.297450355
3.138974239
3.015006803
2.955727267
2.913091746
2.863740756
2.806901364
2.77154231
2.735632024
2.69324036
2.63902386
2.571314745
2.515567792
2.466588818
2.420341252
2.374818687
2.33167414
2.276610734
2.2562367
2.23815796
2.195911653
2.152194738
2.113518846
2.056201055
2.013093078
2.019111196
1.983706436
1.945167527
1.920223383
1.888674526
1.864455496
1.837692054
1.806159588
1.777982253
1.746717974
1.724109927
1.701074599
1.662665587
1.43824151
0.3749313985
6.844993938
2.714905557
11.10674593
12.14753446
12.33270528
)


100
(
69.02416993
53.73702147
43.04027797
37.56075489
31.55225263
29.80220535
25.81764531
24.35245689
22.54543222
20.29998223
19.49875685
18.1793183
16.43718976
15.75112491
15.14856368
13.84039681
12.75854304
12.4645561
12.13595828
11.25280302
10.5675379
10.07170688
9.847873107
9.539004906
9.027903546
8.540225449
8.066570304
7.917914821
7.829707834
7.364291296
6.920642649
6.515505187
6.437343172
6.379112637
6.122499666
5.820356737
5.618879647
5.394994369
5.353538589
5.305468375
5.178822975
4.944513147
4.686397079
4.461268187
4.471994149
4.43802611
4.272560237
4.146768052
4.097623937
3.942690822
3.900918335
3.90957859
3.760829171
3.55255562
3.38942781
3.382113298
3.375730058
3.340457217
3.260912087
3.182667747
3.116550983
3.061898348
3.005523949
2.943143022
2.868985726
2.796565507
2.740596988
2.716212894
2.691237802
2.639874526
2.591288336
2.545209927
2.498248921
2.43781108
2.384844825
2.345579619
2.313778529
2.296563744
2.237567534
2.170510771
2.139770252
2.112863652
2.102192787
2.075881189
2.027615499
2.002074692
1.976797696
1.953013124
1.928983472
1.899001668
1.867915053
1.855191786
1.809556544
1.620041483
0.3300723982
7.686734664
1.940823582
11.12233437
12.18346245
12.72874542
)


100
(
66.55256521
54.45804846
44.1187557
36.64144485
32.35972244
29.45002029
26.91640726
24.35843397
23.31008043
21.38055967
19.68773171
18.94030919
17.53911548
15.99882407
15.41086402
14.88010161
13.6898772
12.75144207
12.32709197
12.04111819
11.32812667
10.68889269
10.10194911
9.885919475
9.69017563
9.223917341
8.722573398
8.167920766
7.94118173
7.895174236
7.582349604
7.141729049
6.776389119
6.481245794
6.423136995
6.353446491
6.140220691
5.952502053
5.67357703
5.406160338
5.370542111
5.397621079
5.133869463
4.877889297
4.670636126
4.544387406
4.546250805
4.584357904
4.482322001
4.316408831
4.082789774
3.946251002
3.981661849
3.895982935
3.691275629
3.595989781
3.551544141
3.514808583
3.463450141
3.417142661
3.372734628
3.33233536
3.273686249
3.200411036
3.116877956
3.050578595
2.989428405
2.932241441
2.874538995
2.815903634
2.749982549
2.7266876
2.727727758
2.678098325
2.614772972
2.576733871
2.527079801
2.439993884
2.379984776
2.358463108
2.310160635
2.293483835
2.279096218
2.23549065
2.214937239
2.194726116
2.168267729
2.131836372
2.113981035
2.078638472
2.056140271
2.030857939
1.99577932
1.884708717
0.4745657876
8.593746123
1.196289502
10.9591463
11.51133829
11.51944937
)


100
(
64.66301206
54.18679273
43.26792191
36.04105625
33.43129012
29.09671044
27.62979238
25.00376191
23.41401291
22.49787994
20.41329081
19.03128495
18.41385649
17.01069353
15.65806905
15.10125809
14.69824148
13.60211194
12.75391295
12.20632383
11.94207345
11.45389519
10.88291626
10.3689006
9.878830378
9.68724959
9.439125927
8.910668615
8.391972896
7.951071043
7.912968004
7.816169956
7.371493946
7.027614917
6.76935447
6.564036716
6.521015815
6.472160499
6.188213711
5.879441035
5.559728775
5.422661616
5.449725717
5.359956602
5.082124552
4.913125413
4.796177012
4.719896631
4.68250689
4.714365991
4.486212866
4.245188802
4.049891265
4.033386995
4.006316916
3.91100931
3.838953362
3.763088326
3.704065337
3.650391112
3.584509716
3.514733363
3.434547028
3.35111125
3.314080513
3.289355384
3.262029663
3.195324124
3.130721545
3.063732878
3.000017844
2.928050898
2.86583713
2.826379579
2.810979832
2.804382269
2.778741915
2.687145906
2.604169741
2.555247839
2.526261753
2.526374454
2.500167996
2.449408976
2.419142897
2.390680427
2.364868323
2.347089113
2.312602324
2.279132931
2.250043478
2.238535921
2.216614525
2.155693137
0.8578555889