/*--------------------------------*- C++ -*----------------------------------*\
| =========                 |                                                 |
| \\      /  F ield         | OpenFOAM: The Open Source CFD Toolbox           |
|  \\    /   O peration     | Version:  2.3.1                                 |
|   \\  /    A nd           | Web:      www.OpenFOAM.org                      |
|    \\/     M anipulation  |                                                 |
\*---------------------------------------------------------------------------*/
FoamFile
{
    version     2.0;
    format      ascii;
    class       dictionary;
    location    "constant";
    object      PM6;
}
// * * * * * * * * * * * * * * * * * * * * * * * * * * * * * * * * * * * * * //

PM6_table
100
(

100
(
3.975429529
10.76372292
8.108207082
5.179742112
4.825755475
4.39625445
2.925468877
3.233587061
2.559081815
2.376124822
2.612620291
1.826218192
1.949161793
1.887000449
1.395850824
1.461374807
1.576951951
1.02139502
1.070895064
1.20863097
0.9071741771
0.7974536562
0.8704195537
0.8784505216
0.6140663891
0.6626504194
0.7390361625
0.6885429882
0.4594448675
0.4936895882
0.554993198
0.5020109067
0.38318204
0.4224478511
0.4729381062
0.4669205612
0.3167407083
0.2678294021
0.301885697
0.3042139289
0.2211944992
0.1751689077
0.2028484936
0.2102628492
0.1677633021
0.134115855
0.1581707529
0.1852456147
0.1263588779
0.07468118341
0.06461516213
0.07636356735
0.04997135846
0.02559387668
0.02091656106
0.02700688643
0.01888341972
0.01134551001
0.01522643467
0.01944011459
0.009988385053
-0.01850528173
-0.0222379651
-0.01366226588
-0.02030175825
-0.04618983084
-0.04716482098
-0.04060309752
-0.05582254321
-0.06905916244
-0.06737433046
-0.06707419731
-0.08469353468
-0.08500714606
-0.08166926663
-0.08682369028
-0.09705509028
-0.0940273826
-0.09557147466
-0.1038311331
-0.100188606
-0.1043136343
-0.1050400585
-0.1018112652
-0.1075656357
-0.1041247705
-0.1038816691
-0.1030148979
-0.1007619667
-0.09941606531
-0.09679338788
-0.094390023
-0.09173944612
-0.08881566895
-0.08597410063
-0.08278962313
-0.0797612529
-0.0764761528
-0.01432413091
0.1713929866
)


100
(
12.26204892
8.105737803
6.61877626
4.545908412
4.896899832
3.724746002
3.286568433
2.81865879
2.60344769
2.061802277
2.224816148
1.677307699
1.639219617
1.630720238
1.267551309
1.20000609
1.245523871
1.001181807
0.8437222433
0.9084018926
0.80205384
0.6761169717
0.6349814373
0.6435482556
0.5620575461
0.4950811796
0.4992075764
0.4839342063
0.4130569211
0.3549467722
0.3367935053
0.3243296018
0.2965228657
0.2726338564
0.2633778588
0.2690282174
0.2218913855
0.1866399625
0.1523794545
0.1355099487
0.1127864974
0.09594245668
0.08037508751
0.05789013368
0.05121800749
0.04719603293
0.04418016927
0.03929159922
0.01627498292
0.004982701397
-0.004882178395
-0.01768336552
-0.04367593303
-0.04694340964
-0.04767347383
-0.05226371766
-0.07168618192
-0.06675218022
-0.06175127854
-0.06168940839
-0.07681841666
-0.07255129231
-0.08357849784
-0.09294741328
-0.09036073183
-0.08896843235
-0.1010125459
-0.1111527568
-0.1043215022
-0.1100143932
-0.1197028771
-0.123149976
-0.1207747033
-0.1271711747
-0.1309122826
-0.1267288162
-0.128181237
-0.1316337938
-0.1311345723
-0.1315653213
-0.1314983676
-0.1298944746
-0.1311798542
-0.127896777
-0.1264373974
-0.1268034057
-0.1238526694
-0.1222418391
-0.1201779697
-0.1179690545
-0.1156258866
-0.1127701558
-0.1101844196
-0.1076414509
-0.1046237652
-0.101850217
-0.09899657814
-0.108867717
-0.08106563878
16.9176897
)


100
(
21.32989946
6.627422277
5.318301821
5.185146113
4.789731057
3.074074561
3.467240075
2.290510388
2.440752329
1.851679449
1.723305058
1.573598666
1.183977483
1.242605101
1.125858808
0.8602689349
0.8324180417
0.8363400403
0.6509195616
0.5045657337
0.5491886182
0.4819103332
0.3735615271
0.3022542074
0.3433780139
0.2688460151
0.2069173085
0.1693617825
0.2066108782
0.145306535
0.09256532465
0.04489042162
0.06346586475
0.03542928207
0.01126552953
-0.01060528816
-0.006037136547
-0.008952207157
-0.03959113069
-0.0669666847
-0.08895377765
-0.09581215295
-0.1066285667
-0.1178910415
-0.1266542166
-0.1415634782
-0.1428225435
-0.1443940672
-0.1455413654
-0.1666104703
-0.1595333885
-0.1640862817
-0.1699730527
-0.1928920819
-0.1920379145
-0.1879629276
-0.1910194503
-0.2164453732
-0.2147875391
-0.2053795195
-0.2130585915
-0.2167975559
-0.2078976282
-0.2193380331
-0.2271052079
-0.2152945494
-0.2095892435
-0.2217776247
-0.2224050311
-0.2153971845
-0.2150040413
-0.2195513084
-0.2132638548
-0.2137247761
-0.2156459569
-0.2112650689
-0.2090700318
-0.20845201
-0.2038605453
-0.2058974841
-0.2009893541
-0.1968558308
-0.1966160952
-0.1921520053
-0.1881831263
-0.1858074828
-0.1830807741
-0.1801396698
-0.1759055747
-0.1728470366
-0.170876096
-0.1674525497
-0.1632658357
-0.1607105606
-0.1586584161
-0.1555130819
-0.1567500981
-0.1794759192
1.056864882
2.221931053
)


100
(
19.16140815
8.424700402
6.408764057
6.139529503
3.966692173
3.366360929
2.963011953
2.489160817
2.065923413
1.967287652
1.393721889
1.429316078
1.181377707
0.9243192709
0.968407007
0.8268494244
0.6064872446
0.5790466772
0.5909714042
0.4307913507
0.296824173
0.310902615
0.2796680593
0.180968753
0.09424737734
0.1142291069
0.08338803224
0.02507206544
-0.02720165165
-0.0171306016
-0.02326462158
-0.07193920754
-0.1148689255
-0.1408981584
-0.1254766317
-0.14546922
-0.1644880086
-0.2003661544
-0.1735543652
-0.1740706605
-0.1953436627
-0.2209667799
-0.2438963375
-0.223575113
-0.2292054171
-0.2488402601
-0.293551045
-0.2723953236
-0.2591650396
-0.2741991056
-0.3127627147
-0.2994278104
-0.2763538157
-0.2908829233
-0.3209270214
-0.3194406543
-0.2896494802
-0.3070260126
-0.3323857388
-0.3323903135
-0.3130941545
-0.3236285502
-0.3242784887
-0.3170407998
-0.3188324329
-0.3223687708
-0.3155639147
-0.3104011941
-0.3120222081
-0.3091606631
-0.3048289192
-0.3006091223
-0.2985168253
-0.2955397421
-0.2989151284
-0.2898742355
-0.2820830381
-0.291602055
-0.2778627721
-0.2738408348
-0.278865344
-0.2669852885
-0.2684693855
-0.2647458271
-0.2607189504
-0.2574469828
-0.2521505201
-0.2516869179
-0.2477053459
-0.24637987
-0.2399058497
-0.2369591913
-0.2343167936
-0.2280200006
-0.2258555088
-0.2229595433
-0.2180286221
-0.06854342169
6.818335468
12.22480258
)


100
(
16.62663864
10.2934538
7.57088486
5.24575276
3.581574587
3.907330691
2.610400108
2.792707335
1.944483224
1.877900294
1.558779547
1.225355274
1.26804027
0.9520643486
0.7722936251
0.8080947791
0.6608042679
0.4651464421
0.4307486441
0.4634584087
0.3139032314
0.1884181935
0.1693399899
0.1766663212
0.08294630631
0.00163296926
-0.02122142061
-0.009778790457
-0.06135024489
-0.1069852256
-0.139306926
-0.1077523567
-0.1371508265
-0.1760393003
-0.2410445901
-0.2138498736
-0.2057163066
-0.2232050204
-0.3089429372
-0.2856276023
-0.2603022593
-0.2538204091
-0.3153614529
-0.3430969212
-0.3216481151
-0.2840120009
-0.3386410592
-0.3947624152
-0.3697758415
-0.3281600823
-0.3626331149
-0.4019469335
-0.392898988
-0.3636284501
-0.3783949118
-0.4055420364
-0.4020403475
-0.3768888803
-0.3828602294
-0.3989391201
-0.3988444749
-0.3868108292
-0.3885232134
-0.3873083624
-0.384696674
-0.3843487633
-0.3822604438
-0.3783073515
-0.3765018955
-0.3714861061
-0.3685130125
-0.3661747241
-0.3631685453
-0.3535562693
-0.3562772604
-0.3675019603
-0.3424308953
-0.3429129343
-0.3498298474
-0.3347605469
-0.3382247858
-0.3365287346
-0.3254964098
-0.3266354061
-0.3245918331
-0.323424396
-0.3190764403
-0.3133110243
-0.3109698384
-0.305828326
-0.3061864391
-0.3007497847
-0.2945984993
-0.2930299583
-0.2845855148
-0.282986617
-0.2706498542
0.9009173237
10.45687362
14.38606144
)


100
(
15.82805816
8.555488295
6.582194783
4.555432585
4.217730866
3.655647635
2.910779907
2.614200208
2.310777986
1.75873715
1.822065217
1.345916816
1.166008935
1.14995847
0.8527279757
0.7151171562
0.7499613452
0.6097347741
0.4293401013
0.3771142652
0.411767247
0.2945876732
0.1742848638
0.1137693906
0.1416191457
0.06106365821
-0.02343415002
-0.0438178924
-0.00964615178
-0.0368797799
-0.1030623752
-0.1710298267
-0.1409227747
-0.1180884719
-0.1860030752
-0.2761193616
-0.2522532681
-0.1959477501
-0.2528166494
-0.3523104822
-0.3348927322
-0.2988564018
-0.2903253839
-0.363604052
-0.3912572445
-0.3478242338
-0.3155124826
-0.3770727537
-0.4323704367
-0.3950448137
-0.3675842073
-0.3978561371
-0.4301200547
-0.4243314385
-0.401600634
-0.4098384982
-0.426763224
-0.4237235824
-0.4155013578
-0.4088657018
-0.4113313356
-0.4130964717
-0.4135734771
-0.4135186939
-0.408646333
-0.4063520213
-0.4055084587
-0.4015342915
-0.4032727153
-0.4020890139
-0.3994608858
-0.3961933081
-0.396359149
-0.3918645259
-0.3765656058
-0.3829871248
-0.390979622
-0.3773282214
-0.3770800387
-0.373792069
-0.3726958245
-0.3717872824
-0.3690655115
-0.3647834118
-0.3603079005
-0.35494873
-0.3556465459
-0.3503295324
-0.3534694689
-0.3457615295
-0.3396832226
-0.3382121498
-0.3350174227
-0.3315655954
-0.3221005162
-0.3162409104
-0.279129019
2.849449256
12.71988057
15.1274362
)


100
(
15.45058758
7.281756975
5.762219533
4.831445226
4.994938166
3.390666314
3.499308397
2.475655321
2.592872258
2.006210164
1.771615201
1.680557523
1.2424541
1.159703617
1.097759256
0.8330032992
0.7143290071
0.7500698232
0.6289160848
0.4579741832
0.372233408
0.3986050737
0.3125206134
0.1862929402
0.07589928829
0.1038175074
0.07465625485
-0.008200951016
-0.01946927144
0.008671658204
0.03123747225
-0.1125526401
-0.174095168
-0.1455907615
-0.07686009454
-0.2008255247
-0.2868638641
-0.2580303943
-0.1582137547
-0.2569170143
-0.3566672296
-0.342237037
-0.2763365014
-0.2987919391
-0.3737386485
-0.3945895176
-0.343942642
-0.320037181
-0.3811854416
-0.4165436248
-0.3962620625
-0.3733126828
-0.3877807478
-0.4037699679
-0.4091207116
-0.4094653467
-0.4037707792
-0.3999152312
-0.4064273321
-0.411373417
-0.4099766949
-0.3985365198
-0.3974419754
-0.4006704826
-0.4046449704
-0.403557464
-0.4054496787
-0.4030200075
-0.4024473575
-0.4050563094
-0.4059716735
-0.4008754381
-0.3971505031
-0.3981500776
-0.3994284432
-0.3877229171
-0.3921774685
-0.3912843185
-0.3922385807
-0.383718053
-0.3849461515
-0.3833529032
-0.3804812628
-0.3771954096
-0.3744932825
-0.373698155
-0.3672678048
-0.3610609997
-0.3580858413
-0.364930092
-0.3600392624
-0.3541738343
-0.3502981687
-0.3461569014
-0.3430059121
-0.3387221284
-0.2012787332
5.240909596
14.23785674
16.08294616
)


100
(
13.70798432
6.788689451
5.891758791
5.756638505
4.598472626
3.713308202
3.471773739
2.876737857
2.526423669
2.437317765
1.791915242
1.744986664
1.546295144
1.169070579
1.146400475
1.063761875
0.8236385448
0.7052838942
0.7344004455
0.6279477937
0.4495330705
0.3167366109
0.3439502495
0.3111710642
0.196717616
0.07928944732
0.07803588589
0.04780122876
-0.03513753957
-0.03390236897
0.01789884224
0.04756049615
-0.140220089
-0.1926606967
-0.1300722897
-0.08507863545
-0.2239220757
-0.3056727631
-0.2260614474
-0.1720463684
-0.2673745824
-0.364665928
-0.3266722622
-0.2916402519
-0.3156107248
-0.3842751554
-0.3865339612
-0.354501144
-0.3272678281
-0.3670266849
-0.3745143291
-0.3874122867
-0.3823327461
-0.3713043664
-0.3728771492
-0.3874305743
-0.4014408806
-0.4023677374
-0.3928447846
-0.3933849129
-0.3988444025
-0.405526841
-0.4072020501
-0.4027149946
-0.4015424139
-0.4012670599
-0.4092552897
-0.4147625981
-0.4088282377
-0.402944775
-0.4024869197
-0.4070219511
-0.4069775535
-0.4050482342
-0.4044890989
-0.4074778678
-0.4043980707
-0.3983785205
-0.4034879162
-0.4017447187
-0.3959632477
-0.3970998988
-0.3914206922
-0.3953628487
-0.3917386809
-0.3890230259
-0.3871459821
-0.3829135431
-0.3763523348
-0.3785491959
-0.3795473852
-0.3726919693
-0.3734708962
-0.366287517
-0.3600869884
-0.3682780428
-0.004853599642
6.874244088
15.1810223
16.64157835
)


100
(
11.79680735
7.977789524
6.891110491
5.887266112
4.210944521
4.347681983
3.260446268
3.379476544
2.470368924
2.449063868
2.137660661
1.653102617
1.683464956
1.421522469
1.090298906
1.09836015
1.006007392
0.7674613302
0.6098242817
0.6341155646
0.5757414228
0.4182882455
0.2540791847
0.2888977234
0.3206564853
0.2059939578
0.08764554154
0.02896079723
-0.01417367978
-0.09319632695
-0.08354963975
0.05272741311
-0.01249442888
-0.1958952864
-0.2395742669
-0.1185207963
-0.1379096824
-0.2745463425
-0.3360437161
-0.2521449308
-0.2223533547
-0.3057587954
-0.3791654848
-0.3582438928
-0.3273593925
-0.3378247264
-0.3675096771
-0.3794103889
-0.384776755
-0.3631364315
-0.3560059648
-0.3674857136
-0.3906310292
-0.4080656133
-0.4042752155
-0.381728215
-0.3903626013
-0.4029856446
-0.4140597042
-0.4195473106
-0.4179384173
-0.420048003
-0.4227457551
-0.4344179194
-0.4425835819
-0.43535171
-0.4213948076
-0.4233254105
-0.43073881
-0.4364545189
-0.4337215481
-0.4297912653
-0.4324034618
-0.4374841528
-0.434847447
-0.4301330441
-0.4356738202
-0.4355729499
-0.4320091867
-0.4351237965
-0.4273942544
-0.430507722
-0.428195676
-0.4249388154
-0.4251716611
-0.4240481644
-0.4226333357
-0.4175512758
-0.412075488
-0.4118716487
-0.4116088979
-0.4100447429
-0.3983693991
-0.3997720115
-0.4100005275
-0.4067302685
0.368915018
7.851055072
15.39047569
16.58310809
)


100
(
10.65366101
8.634079429
7.059254435
5.317971494
4.570324413
4.341235328
3.455027811
3.231178727
2.853480007
2.317785304
2.352897131
1.892298973
1.583710435
1.595459881
1.298538986
0.9697162149
0.9708866139
0.8857192551
0.676085469
0.5052111038
0.5462418256
0.547137448
0.3939114964
0.2336695411
0.2103401744
0.2624026746
0.1893811249
0.07170258004
-0.03402596471
-0.1001043082
-0.1760477692
-0.1233436656
0.005246470781
-0.09607038221
-0.2738303877
-0.2620865595
-0.19137062
-0.214619915
-0.3435838877
-0.3610307616
-0.3201951621
-0.2833650413
-0.3411641427
-0.3639609943
-0.3900100133
-0.3781661648
-0.3609508534
-0.3698330777
-0.3941486211
-0.4202820011
-0.4379530473
-0.4055012378
-0.3964720696
-0.4133582449
-0.4329021321
-0.4422972926
-0.4518080292
-0.4390726074
-0.4428438104
-0.4485199255
-0.4670098915
-0.4793003083
-0.4696385751
-0.4587053472
-0.4648574645
-0.4739759395
-0.4785711025
-0.4771610599
-0.4717349848
-0.4736859848
-0.4857731114
-0.4897454402
-0.4766474222
-0.4745357549
-0.4845356628
-0.4851059519
-0.4842155509
-0.4886285552
-0.4814513994
-0.4816601019
-0.4823765581
-0.4793191441
-0.483717307
-0.4749770401
-0.4764366983
-0.4749116012
-0.477386226
-0.4760061094
-0.4716896571
-0.4666925432
-0.462945347
-0.4610867798
-0.4547125193
-0.4463160392
-0.4489968973
-0.4552713616
1.120470801
8.785911726
15.29256843
15.87921256
)


100
(
10.25056889
7.797782215
6.452648639
5.022947966
5.273551098
4.043647067
3.985218678
3.045514612
3.157386035
2.501243408
2.254510081
2.233627861
1.723020954
1.492626952
1.478633935
1.159472128
0.8557077266
0.8790621139
0.8485901061
0.6542665031
0.4421250377
0.4780845933
0.5395239244
0.383264987
0.2276006515
0.1409293646
0.1956821012
0.186523241
0.07065626739
-0.03383010111
-0.1739048445
-0.2473947473
-0.103959318
-0.06279262569
-0.1664128523
-0.3275057376
-0.2924476942
-0.2566649331
-0.2653145833
-0.3392842991
-0.367703843
-0.3586154099
-0.325755786
-0.3272114664
-0.353728715
-0.3964473512
-0.4288502892
-0.4128551581
-0.3836152262
-0.4036831085
-0.4312685821
-0.4538561922
-0.4545733717
-0.44768854
-0.4437706553
-0.4571326047
-0.4698536413
-0.4990054535
-0.5114966575
-0.4910672684
-0.4764282509
-0.4898958268
-0.5045049474
-0.5064631537
-0.505105676
-0.5038532972
-0.5067806909
-0.5218424011
-0.5362197971
-0.5199348361
-0.5090239975
-0.5175445607
-0.5316189387
-0.5273406783
-0.5278003074
-0.5318195412
-0.5234416765
-0.5208514098
-0.5282389777
-0.5280577903
-0.5320614446
-0.5269505501
-0.5240132045
-0.5248718139
-0.5228731282
-0.5226839562
-0.5215373011
-0.5220061666
-0.5189084622
-0.5170946262
-0.5145385159
-0.5089990172
-0.4979257105
-0.4958092152
-0.4842210087
-0.4565236437
2.515539327
10.11377126
14.80731022
15.32008234
)


100
(
10.40088217
7.037588816
5.900930169
5.720660295
5.251610611
4.178399642
4.095998233
3.4260821
3.089363619
2.964768233
2.299729795
2.232988517
2.080244918
1.602393773
1.419275413
1.446009971
1.157866214
0.868014876
0.8719111175
0.8882897146
0.6917020761
0.491184155
0.466957436
0.5324489708
0.435992412
0.2837265735
0.1449316779
0.1819926258
0.230481376
0.1280523847
0.02319374538
-0.1696217772
-0.2155238806
-0.1152264092
-0.08322340091
-0.1777148131
-0.250825922
-0.2804705662
-0.2406930746
-0.2302017936
-0.2595800879
-0.3082826095
-0.3582497377
-0.35110943
-0.3086804547
-0.3148326089
-0.3560744398
-0.3963088711
-0.4141105457
-0.396628006
-0.3735368938
-0.4020137579
-0.4238787441
-0.4454420138
-0.4790354074
-0.4698602323
-0.4429632121
-0.4504517067
-0.476834522
-0.5008588415
-0.4964804501
-0.4778675839
-0.4841905224
-0.4942993698
-0.5102860094
-0.5335384044
-0.5164172406
-0.5018719667
-0.5160271416
-0.5309463891
-0.5379183255
-0.5336831137
-0.5404727981
-0.5444224819
-0.5358347748
-0.5280331006
-0.5341798199
-0.5322380073
-0.5381760076
-0.54212641
-0.5344888109
-0.5392467552
-0.5382457314
-0.5433916528
-0.5352863321
-0.5349728306
-0.5353341627
-0.5305111307
-0.525618592
-0.5332247938
-0.5265023986
-0.5153031338
-0.5026223212
-0.4880017549
-0.5216248938
-0.3469293589
4.44885563
11.51321556
14.84024763
15.33382855
)


100
(
9.808746315
6.883309553
6.475095259
6.50377424
4.971847091
4.862913665
4.024076939
4.066359147
3.152243441
3.125804785
2.802170988
2.217757291
2.224245986
2.020771889
1.604652861
1.478992728
1.531365445
1.25511964
0.9651271897
0.93150819
1.0142758
0.8087279711
0.6121216745
0.5238157981
0.5906623528
0.5666129151
0.4129991016
0.2798066278
0.2298250264
0.2779016737
0.2562686382
0.1490232752
-0.05987109358
-0.1042074937
-0.05315930594
-0.00079489619
-0.04508956683
-0.08754422065
-0.1670903571
-0.1937490893
-0.1521840401
-0.150315458
-0.2018439183
-0.2577452574
-0.3022293698
-0.2721127966
-0.2394565315
-0.2593349137
-0.2972704543
-0.3242440958
-0.3587156035
-0.3593153323
-0.3453633145
-0.3410492176
-0.3694498199
-0.4088639277
-0.4352701994
-0.3975992746
-0.3794646581
-0.3999342456
-0.4245974359
-0.4440185824
-0.4550623287
-0.4446039143
-0.4323220071
-0.4553361248
-0.4791043237
-0.4654665531
-0.4618134092
-0.4785183327
-0.4907783776
-0.5002859515
-0.4922182358
-0.4852702021
-0.4868341405
-0.4986975067
-0.5072735313
-0.5108842201
-0.4953432186
-0.4926027517
-0.5027512037
-0.5072254245
-0.5117919146
-0.5005329036
-0.5076624482
-0.5094427001
-0.505672708
-0.5091336473
-0.5214063764
-0.5037438879
-0.5192280418
-0.5036008523
-0.5050744874
-0.4941791135
-0.5267710531
0.02091945079
5.982690185
13.31089836
15.50433153
15.83344275
)


100
(
8.962025661
7.62055206
7.293220532
6.168417154
5.186655712
5.242449728
4.277514144
4.150744828
3.755118392
3.171800763
3.203722072
2.69663406
2.278623303
2.300426815
2.091600823
1.684649317
1.573602907
1.646982693
1.391057986
1.110759431
1.030265636
1.113296842
0.9674936705
0.7752490895
0.6072642491
0.6760888925
0.7240599204
0.582027931
0.4520524845
0.3471165369
0.3539741668
0.3890575883
0.2990985397
0.1642880211
0.1100144134
0.06239498065
0.09280001788
0.1246704189
0.06413177514
-0.02165441466
-0.09981775911
-0.08980768834
-0.03140328707
-0.06594593306
-0.1211552969
-0.1647086115
-0.186755801
-0.185848005
-0.1669204307
-0.1826007268
-0.2074057586
-0.2583596917
-0.3081800095
-0.2785113334
-0.2287799378
-0.2576852471
-0.298733879
-0.3222070173
-0.3400235917
-0.3226909387
-0.3087473273
-0.3181457216
-0.3572686083
-0.393643269
-0.3658894939
-0.3449319916
-0.3746034677
-0.4014333107
-0.409000134
-0.4137672947
-0.4047890561
-0.4033826218
-0.4013669253
-0.4106174183
-0.4207608124
-0.4347532341
-0.435586272
-0.4329864815
-0.4263770199
-0.4349619998
-0.4483485291
-0.4460991733
-0.4390875688
-0.4470652635
-0.4560334691
-0.4535159437
-0.4544954535
-0.4573931557
-0.4523197617
-0.4613496403
-0.4488731321
-0.4618711639
-0.468251826
-0.4950915769
-0.5268917074
0.6785473568
7.253416553
14.49818613
15.79213315
15.48396511
)


100
(
8.399359783
7.809378939
7.084283329
5.842306053
5.901189219
5.091922828
4.940358406
4.110682058
4.24511253
3.565615634
3.224401636
3.240188759
2.674081023
2.349414515
2.387382069
2.171494731
1.774393573
1.642304859
1.73630251
1.52074665
1.249069683
1.101826965
1.185453364
1.113540408
0.9261021725
0.7693950124
0.7362099736
0.7842411672
0.7457669929
0.6126644941
0.5082573893
0.387630911
0.4094539334
0.4413304977
0.358295734
0.2691816588
0.1566085521
0.1342900527
0.1997960044
0.1995757978
0.1106440813
0.03044253305
-0.01874278521
0.008081506892
0.03996454627
0.0009408869674
-0.04349142449
-0.07824730738
-0.1582082333
-0.1420355015
-0.0947296491
-0.09631755146
-0.1567904749
-0.2147496595
-0.2317566502
-0.1901040889
-0.1659269517
-0.2004989961
-0.2135721171
-0.2789546954
-0.2862590931
-0.2438862204
-0.2365457866
-0.2798880159
-0.3108804169
-0.323180567
-0.3241384838
-0.3375341614
-0.3381990031
-0.3368828285
-0.3300584278
-0.3224570502
-0.345619206
-0.3626266266
-0.3755617512
-0.3672497878
-0.3622934597
-0.3658814368
-0.3850579798
-0.3934957775
-0.3889962476
-0.383199018
-0.39277918
-0.4087364369
-0.4006106418
-0.401661649
-0.4152535458
-0.4223990901
-0.4158607847
-0.4070787841
-0.406913624
-0.3969098877
-0.3768889215
-0.3990449899
-0.5347586454
1.382982432
7.848418768
14.81576674
16.33712872
16.68622245
)


100
(
8.302086358
7.356818932
6.660765369
6.150433121
6.202803988
5.101504593
5.198048974
4.502688383
4.213925432
4.122252453
3.363218344
3.226118234
3.169870144
2.647167607
2.377779556
2.443685481
2.23298851
1.84407298
1.678455736
1.776410849
1.62088903
1.356992692
1.129741778
1.20831697
1.250888794
1.043381939
0.8935725295
0.7518996285
0.7986279132
0.8266853232
0.7093705862
0.5947857942
0.4583607042
0.408589888
0.4582218415
0.4841593746
0.3797003023
0.2685457923
0.1612510907
0.204414679
0.2594140822
0.2119932018
0.1308688017
0.08846379252
0.0303995633
0.02688104851
0.04842066487
0.04187707439
-0.001739974349
-0.07907359356
-0.1488143161
-0.0834225213
-0.0367258167
-0.09307301567
-0.143513783
-0.1593757679
-0.1914766654
-0.1702840554
-0.1266956802
-0.1601471668
-0.2294383066
-0.2800707346
-0.2260315728
-0.2055600004
-0.2551968068
-0.2820433437
-0.2942673009
-0.2872504958
-0.2830796821
-0.2838844486
-0.2900303323
-0.3171796564
-0.3332442729
-0.3368075566
-0.330368413
-0.3253774501
-0.3329012653
-0.3532195244
-0.3720026608
-0.3688643334
-0.3552261401
-0.3692063197
-0.3802718431
-0.3779529034
-0.3759088393
-0.4187011061
-0.4173853107
-0.3965742309
-0.420035669
-0.4173299495
-0.4260769423
-0.4526363952
-0.408452148
-0.4389988492
-0.5265624168
1.912723861
7.826727426
14.69732804
16.3867624
16.57879476
)


100
(
8.381283101
6.855624858
6.518174384
6.781098
5.907806491
5.672937538
5.074378709
5.089199872
4.21386868
4.165146247
3.870185429
3.204590295
3.21191232
3.114339776
2.612873238
2.3699275
2.457320394
2.260754833
1.899600736
1.678956906
1.7754429
1.697984573
1.440933169
1.240963608
1.194077346
1.241289832
1.133815137
0.9921316193
0.8536853892
0.7387476762
0.768370361
0.8030386046
0.6886132032
0.5442729433
0.3893408527
0.4342735282
0.5235868247
0.4634276014
0.3495822252
0.253440544
0.1908388756
0.2280147559
0.2593920489
0.2063069317
0.1584941545
0.0832075311
-0.01467304645
0.0164096283
0.1027262756
0.04817884352
-0.02955462151
-0.09655583497
-0.1033158595
-0.06971581982
-0.04827490561
-0.07972828228
-0.1239074789
-0.205150351
-0.202188884
-0.1175080085
-0.1474477199
-0.2125640577
-0.2504172508
-0.2640729188
-0.2803207374
-0.2630195021
-0.2581763762
-0.2597030889
-0.2531720479
-0.2595943742
-0.2897521926
-0.3202957079
-0.3217302157
-0.3222101735
-0.319455571
-0.3375699011
-0.352994149
-0.3597418407
-0.3502534489
-0.3519462775
-0.3582981664
-0.3945564221
-0.3915513889
-0.3758964792
-0.3976182727
-0.3999321359
-0.4087487697
-0.4097343687
-0.3843578277
-0.4184862028
-0.3969368105
-0.4293239607
-0.4546304562
-0.4716595409
-0.6024518471
2.409464584
7.827467289
14.82133464
15.83542311
15.77252287
)


100
(
8.02504447
7.010418475
7.038966246
6.797158856
5.770466355
6.081997299
5.156749483
5.107072334
4.735936445
4.082178588
4.124545124
3.739246865
3.163092823
3.218333099
3.098333019
2.617354397
2.35412313
2.46482492
2.315249452
1.97243465
1.67917569
1.768042281
1.81617908
1.536236167
1.343293035
1.175159087
1.22127194
1.245985339
1.05793382
0.9339629723
0.7230415057
0.7367659869
0.8174115974
0.7843219368
0.6296321235
0.485199375
0.4033005846
0.4921653329
0.5341666172
0.4371617205
0.3474679357
0.2917696382
0.1874963552
0.2142130476
0.2625119354
0.2454812067
0.1507847981
0.04743925696
-0.008411672055
0.07640503021
0.1038188496
0.02373133326
-0.01751583885
-0.06144706031
-0.09615246559
-0.06980157333
-0.01334033463
-0.09307662723
-0.1812900778
-0.2089986518
-0.1560054925
-0.1509683711
-0.2113416114
-0.2350818456
-0.2360955258
-0.2348997102
-0.2335953635
-0.2365574589
-0.2621345166
-0.3033154884
-0.3184558504
-0.2964503083
-0.2912305008
-0.2913701705
-0.3082392354
-0.3310856421
-0.3549528637
-0.3644849849
-0.3642531575
-0.3594875023
-0.3718272015
-0.3646918842
-0.3838549338
-0.4016126661
-0.4158306044
-0.3709901626
-0.37502377
-0.4142612803
-0.4418634763
-0.4075097649
-0.4142460225
-0.3618976874
-0.3825369954
-0.4559662345
-0.5993629104
3.915963594
7.814751051
14.99592843
15.2546188
15.70084313
)


100
(
7.642054817
7.431349174
7.343245399
6.465634486
6.297712258
5.93071037
5.716556496
5.028700218
5.137432267
4.497475424
4.134283338
4.206920464
3.688626206
3.19463634
3.266771491
3.139240451
2.675949994
2.383076326
2.493589282
2.413035507
2.0802201
1.82890544
1.782986519
1.827201905
1.665035799
1.482001269
1.302048944
1.183959773
1.224558622
1.194169516
1.056619349
0.865654148
0.721084985
0.8132935539
0.9100351366
0.7420920782
0.5999733267
0.5022726651
0.4812949973
0.5194978112
0.5530187056
0.4628410935
0.4076900045
0.2667333797
0.1966444631
0.2660902882
0.3580988306
0.2387270297
0.1342076091
0.07501770225
0.06321644004
0.1019991508
0.1257131852
0.1013199508
0.00724883944
-0.1024879291
-0.05746590685
0.01689827799
-0.04606514479
-0.1298934788
-0.1584578081
-0.1746028664
-0.1788503399
-0.1772302031
-0.1631324648
-0.1692171015
-0.1647673186
-0.1931090151
-0.2335463051
-0.2576839213
-0.2630209817
-0.2690734477
-0.2684922609
-0.2925812473
-0.3247499852
-0.310259471
-0.2922817743
-0.3082362161
-0.3279524397
-0.3556548617
-0.3817515131
-0.3474708054
-0.3583480248
-0.3955175289
-0.3826557068
-0.3908731629
-0.4162153805
-0.3973136881
-0.4301301993
-0.4268600496
-0.452187387
-0.4189045171
-0.43218623
-0.4849263688
-0.6448837784
6.064720081
7.442161549
15.22444624
14.65377442
15.44094248
)


100
(
7.321325941
7.252270819
7.035184212
6.424871023
6.804045751
5.786429786
6.020469309
5.400114343
5.111449931
5.096173952
4.397257572
4.181243618
4.259400515
3.675261338
3.234620734
3.334323515
3.212759053
2.787833845
2.431034828
2.534586113
2.591124579
2.236535027
1.994925632
1.818690019
1.864838057
1.861565139
1.625104014
1.449172231
1.201123379
1.239128448
1.370159771
1.21226604
1.023398883
0.8306229994
0.8277073866
0.9180982236
0.9089414322
0.7463220797
0.6660272324
0.5698891446
0.5194845735
0.5533695209
0.626114021
0.5326370061
0.3906862381
0.2474488438
0.2849487914
0.3586755678
0.3620284443
0.2551972691
0.2360201453
0.1326586762
0.1216664778
0.1838285171
0.2042193836
0.09103220278
-0.02324988455
-0.02088413291
0.008505714603
0.0006499048846
-0.05922555228
-0.07239606079
-0.07951946235
-0.07962647515
-0.08128164487
-0.08494156835
-0.1312756305
-0.1815061659
-0.2036187664
-0.1745818508
-0.1656117662
-0.1698636932
-0.1995906829
-0.2326512816
-0.2517555484
-0.2734212678
-0.2731500553
-0.2808143068
-0.2831187104
-0.2823534914
-0.3010505502
-0.3236348016
-0.3443835584
-0.3367416397
-0.3174717785
-0.3598529583
-0.3665565196
-0.3871716626
-0.3481543486
-0.3884305085
-0.3740745206
-0.3705766531
-0.3998916121
-0.4650688407
-0.643473867
7.678411892
6.646373468
15.4326123
14.52586507
15.22773538
)


100
(
7.369123763
6.976335782
6.75779413
6.894513573
6.595591082
6.295592625
5.986652005
5.989497653
5.215195777
5.165906778
4.99678832
4.331138677
4.234264613
4.286064682
3.731569198
3.283074042
3.410195178
3.336217491
2.934454265
2.62303821
2.603942141
2.650310154
2.417402966
2.191766517
1.964166574
1.881921472
1.91683553
1.822675661
1.637338992
1.38881215
1.27824572
1.406350273
1.415567807
1.200398645
1.026748031
0.9082215832
0.9360340683
0.9809039118
0.9382417668
0.8515497626
0.7423084929
0.5515524647
0.5587356694
0.6875294155
0.6748180504
0.5252103358
0.3992955587
0.3402485641
0.3791729114
0.4349180338
0.447237156
0.4050218142
0.2447457658
0.1256365853
0.2368757726
0.2926602722
0.1882498658
0.101733893
0.06170650456
0.03748750267
0.03477570412
0.0216405502
0.03323219988
0.0436218651
0.04719667505
-0.004803862362
-0.06337197849
-0.07806462642
-0.08514518384
-0.09468719771
-0.09332784307
-0.114576204
-0.171738353
-0.1638405709
-0.1385276016
-0.1537499443
-0.1896392357
-0.2039025755
-0.2427979964
-0.2649441429
-0.2320814479
-0.2916782805
-0.300128063
-0.2778744861
-0.3066086287
-0.3306000653
-0.2994542798
-0.3081549569
-0.3302450256
-0.3222257481
-0.3324203555
-0.3816491809
-0.3339905193
-0.437299277
-0.6532240175
8.639521626
5.608909138
15.61680784
13.48367394
13.8785092
)


100
(
7.341141716
6.861913959
7.046067919
7.231979937
6.429254358
6.828129913
6.014166117
6.06396537
5.772509208
5.147709607
5.232865711
4.967086027
4.337821097
4.330601387
4.356787129
3.827964706
3.379265075
3.482414419
3.536406144
3.115150765
2.822968343
2.659067287
2.707414416
2.64807674
2.380064097
2.159428347
1.920339485
1.97171448
2.082511217
1.835660574
1.59478942
1.355344372
1.434413603
1.52391113
1.399730264
1.224214012
1.138665759
0.9687374343
1.010387247
1.067324238
1.045548465
0.9088946132
0.7369821481
0.5791375453
0.7129311214
0.7728475615
0.6679947846
0.5854588533
0.5721037469
0.4264687992
0.4568060818
0.5726266877
0.5013585214
0.3478208957
0.2191378039
0.2651148769
0.2891148993
0.2623765497
0.2158632066
0.1950124146
0.1813137754
0.1763822702
0.1690878398
0.1558047883
0.08744956999
0.009701299865
-0.01139172334
0.01771302089
0.04615629409
0.03817230749
0.001826929995
-0.04293782398
-0.05432544095
-0.07565325211
-0.08912987986
-0.08940300287
-0.1275880459
-0.1129086079
-0.1186637002
-0.1603865383
-0.1979795232