/*--------------------------------*- C++ -*----------------------------------*\
| =========                 |                                                 |
| \\      /  F ield         | OpenFOAM: The Open Source CFD Toolbox           |
|  \\    /   O peration     | Version:  2.3.1                                 |
|   \\  /    A nd           | Web:      www.OpenFOAM.org                      |
|    \\/     M anipulation  |                                                 |
\*---------------------------------------------------------------------------*/
FoamFile
{
    version     2.0;
    format      ascii;
    class       dictionary;
    location    "constant";
    object      PM7;
}
// * * * * * * * * * * * * * * * * * * * * * * * * * * * * * * * * * * * * * //

PM7_table
100
(

100
(
6.774740157
-24.57636581
-7.848498717
-4.841701083
-4.311389901
-3.588188962
-2.472496363
-2.508778118
-2.005372827
-1.81108957
-1.830170891
-1.332610658
-1.294416936
-1.196025679
-0.961554965
-0.9459596732
-0.9411796125
-0.7211042866
-0.7128648684
-0.7273811555
-0.602518888
-0.545614589
-0.5448231781
-0.5231451332
-0.4205466052
-0.407058381
-0.4049963037
-0.3766553419
-0.311093702
-0.3062658196
-0.3086276744
-0.2764126654
-0.2324806443
-0.222542183
-0.2187115971
-0.2085831451
-0.177124093
-0.1635912704
-0.1632327785
-0.1559982729
-0.1331931688
-0.11888189
-0.1159844958
-0.1084989582
-0.09098270801
-0.07886593302
-0.07469704506
-0.07243477095
-0.05983113586
-0.05087675344
-0.04647910793
-0.04317966174
-0.03328677681
-0.0262184508
-0.02183092625
-0.01619258691
-0.007990477766
-0.002253133854
0.001708057674
0.006551260256
0.01328855863
0.0173953004
0.01971928587
0.02395603266
0.02901380606
0.03109423584
0.03289657834
0.03879575242
0.0415844223
0.04298583702
0.04641737426
0.05142526753
0.0519322047
0.05409847668
0.06041439161
0.06237477886
0.0621661118
0.06817804153
0.07050915896
0.07043825883
0.07670380752
0.07718279233
0.08013595573
0.08595443195
0.08520677116
0.09121649699
0.09497638662
0.09731629814
0.1044281953
0.10723936
0.1142671579
0.1201033212
0.1297036232
0.1388894818
0.1521905938
0.1659631183
0.1826810456
0.1546401538
-0.1289742738
-0.1814659666
)


100
(
-6.962998082
-17.35301884
-6.744721157
-4.457703418
-4.403060545
-3.238950644
-2.766142586
-2.332176846
-2.104398789
-1.712461745
-1.705106761
-1.334892969
-1.231696631
-1.16268925
-0.9682018009
-0.9020827507
-0.8818213246
-0.765118142
-0.6828831277
-0.6796938654
-0.6182183036
-0.5537502844
-0.5199865266
-0.5003883034
-0.4476170637
-0.4064687602
-0.3887112036
-0.3678988931
-0.335062139
-0.3083423543
-0.2934179238
-0.2731117361
-0.2476769011
-0.2275844613
-0.2141809768
-0.2044966697
-0.1868072657
-0.1734964913
-0.1619553961
-0.1522991203
-0.1393405971
-0.1286692955
-0.1198371153
-0.1091257804
-0.09765317127
-0.08827295412
-0.08097682342
-0.07494413382
-0.06546683911
-0.0586958523
-0.05332733066
-0.04791848044
-0.0393682859
-0.03356150091
-0.02873155714
-0.02299543678
-0.0154764664
-0.01014120736
-0.005620884408
-0.0007010437088
0.005314698522
0.01048927887
0.01449866215
0.01838479149
0.02276589957
0.02656431859
0.02876975728
0.0320114496
0.03632756378
0.03882483699
0.04094395895
0.04413607328
0.04770039403
0.04921075607
0.05195788907
0.05639737553
0.0598741527
0.06156385332
0.06468586753
0.06745018603
0.06952349688
0.07411484474
0.07463944156
0.08035339578
0.08352965626
0.08450384952
0.09087491066
0.09333023577
0.0977733828
0.1037071331
0.1085976876
0.1150533504
0.1224040038
0.1327560955
0.1434066356
0.1612785904
0.2112832758
0.279946936
0.1685325492
-1.932280069
)


100
(
-29.14798545
-13.18625111
-5.919335118
-5.079865092
-4.376648579
-2.976003417
-3.002983894
-2.152019991
-2.142167192
-1.730420506
-1.59030752
-1.422543834
-1.166470322
-1.127006942
-1.023745634
-0.8746426067
-0.8322227385
-0.8044155189
-0.7074852212
-0.6328999155
-0.6260007063
-0.5791651267
-0.5228627298
-0.4809874841
-0.4695590352
-0.4251761726
-0.3890640578
-0.362554305
-0.3551952047
-0.3240110615
-0.2988915964
-0.2743583302
-0.2626426861
-0.2416145064
-0.2233586242
-0.2076574349
-0.1976994243
-0.1870832599
-0.1730464134
-0.1608425998
-0.149273261
-0.1401764146
-0.1310939917
-0.122006713
-0.11261629
-0.1019120808
-0.09404686154
-0.08663839637
-0.07952992513
-0.07050386761
-0.06517649908
-0.05906440834
-0.0528314691
-0.04521324693
-0.0399865139
-0.0350111997
-0.02919412242
-0.0222363568
-0.01732029334
-0.01297556424
-0.007883688851
-0.002983726289
0.002157405306
0.0073493916
0.01152495234
0.01546195331
0.01941123668
0.02213128372
0.02523553679
0.02895859576
0.03229181739
0.03479857519
0.03861213551
0.04204582937
0.04332431071
0.04582575482
0.05152166194
0.05355200598
0.05487387413
0.06051035413
0.06129737597
0.06469628559
0.06825527265
0.06890145806
0.07493150429
0.07624993764
0.07975028575
0.08466788458
0.08698792875
0.0917553033
0.09632549895
0.101648801
0.1078168322
0.1154882905
0.1266890701
0.1534969881
0.3051372147
0.3411447769
-1.698774339
-1.789995136
)


100
(
-31.64653834
-15.29108185
-7.035112459
-5.863542287
-3.890873276
-3.256302518
-2.757140569
-2.367599653
-2.00797067
-1.889801018
-1.511742786
-1.449561967
-1.258925219
-1.08319775
-1.048605213
-0.9433366618
-0.8193985328
-0.7804573802
-0.759845133
-0.674353152
-0.6040654376
-0.5886812874
-0.5575098865
-0.5048943142
-0.4580876949
-0.4438144222
-0.4147840483
-0.380320072
-0.3504568347
-0.3379816317
-0.3219500714
-0.2957358057
-0.2716699085
-0.2514074853
-0.2414660959
-0.2245579619
-0.2093103798
-0.1919451479
-0.1874492629
-0.1783121466
-0.1654287973
-0.1522891079
-0.1410109786
-0.1371979282
-0.1283882778
-0.1171200209
-0.1021879722
-0.09788332342
-0.09217395823
-0.08269928134
-0.07129624995
-0.0663856507
-0.06274542903
-0.05499921756
-0.04647937509
-0.04125667258
-0.03862216391
-0.0317166661
-0.02491727737
-0.02023944463
-0.01697911699
-0.01220542121
-0.007963853099
-0.003381189605
0.001714952995
0.006363699868
0.01054187931
0.0146348658
0.01815281571
0.02152975298
0.02496509673
0.02860413699
0.03182898912
0.03611658452
0.03993592741
0.04102109307
0.04287348839
0.04813331832
0.05013057305
0.05177065675
0.05643726333
0.05771254225
0.06248229177
0.06546445361
0.06876836781
0.07276902561
0.07537605835
0.08026616697
0.08475213307
0.09008968103
0.09441261216
0.09950149323
0.1079630987
0.1188210151
0.1338685917
0.1815145552
0.4137339056
0.002291477749
-5.531935694
-7.01501718
)


100
(
-29.84280187
-17.18613837
-8.186446083
-5.252090093
-3.739115469
-3.643459577
-2.623747805
-2.607029504
-2.002381999
-1.894429268
-1.658643615
-1.413689597
-1.366107765
-1.160575049
-1.030595936
-0.9992143665
-0.8975134031
-0.7876594815
-0.7484407249
-0.7379362316
-0.6577729638
-0.5915422365
-0.565509094
-0.5494248506
-0.499015432
-0.4546502163
-0.4293591697
-0.4140927116
-0.3823717129
-0.3544964085
-0.3317717363
-0.3267666944
-0.3052152335
-0.2813360506
-0.2529028043
-0.2463927458
-0.2351035882
-0.2193116737
-0.190927841
-0.1857068956
-0.1811454007
-0.1724744628
-0.1526345893
-0.1400954808
-0.1361725321
-0.1348714079
-0.1171295459
-0.1007316865
-0.09731364956
-0.09592532366
-0.08372732746
-0.07203383192
-0.0664983757
-0.06350024498
-0.05556519125
-0.04689080365
-0.04202049715
-0.03899759369
-0.03348146886
-0.02741221746
-0.02306289669
-0.01969110471
-0.01561953537
-0.01156344042
-0.007204974432
-0.002604561753
0.001884867131
0.006217818798
0.01036070033
0.01422754421
0.01773149727
0.02128214351
0.02465784183
0.0283646154
0.03288752131
0.03734900777
0.03859851335
0.04154582883
0.04576031725
0.04816318775
0.05232730757
0.05584179659
0.05764568523
0.062540771
0.06662363389
0.07091973761
0.07499374069
0.0787965088
0.08346432045
0.08857370821
0.09542164503
0.1013475602
0.1087795457
0.1228462758
0.1485350243
0.2455904699
0.4546896523
-1.987030263
-6.790892213
-7.486815219
)


100
(
-28.825502
-13.54218224
-7.275498444
-4.893726338
-4.238252818
-3.479885951
-2.846456404
-2.511868729
-2.254502913
-1.853206809
-1.828665821
-1.513147085
-1.358491434
-1.29102388
-1.105181844
-1.00037613
-0.9721578688
-0.8771278088
-0.7763262917
-0.7322257951
-0.7231813827
-0.6565684023
-0.5927829062
-0.5535288529
-0.5462269638
-0.5027254183
-0.4589077481
-0.4349975113
-0.4268892031
-0.4015225901
-0.3670744639
-0.334502918
-0.3288974253
-0.3208051825
-0.2888379031
-0.2552751868
-0.2477483927
-0.2472160851
-0.2220880661
-0.1911955251
-0.1842486099
-0.1809897896
-0.1723355529
-0.1506978453
-0.137953966
-0.1381024426
-0.1358835862
-0.1174776538
-0.1015342297
-0.100211227
-0.09704163992
-0.08596993862
-0.07500806055
-0.06929939506
-0.06581851676
-0.05880093279
-0.05137934625
-0.04637648182
-0.04172629261
-0.03724577438
-0.03226719174
-0.02765109148
-0.02352074224
-0.01947993862
-0.01568899867
-0.01143527269
-0.006987062332
-0.002749191934
0.001752819424
0.006139188512
0.01036130141
0.01432109978
0.01798847565
0.02152415898
0.02525103011
0.02990162681
0.035104125
0.03842128686
0.04202025848
0.0456025019
0.04951787324
0.05447096153
0.05777590695
0.06085460681
0.06486923315
0.06865440626
0.07345902343
0.07802114552
0.08418239902
0.08901701861
0.09474688716
0.1029322307
0.1125984453
0.1268204963
0.1667270655
0.3311737595
0.4274887994
-4.562812424
-7.242351085
-7.336138337
)


100
(
-27.87301879
-11.27177484
-6.583943194
-5.168089817
-4.786187021
-3.355427554
-3.215402839
-2.457700734
-2.424647292
-2.002733375
-1.803896019
-1.705688257
-1.421006409
-1.32142506
-1.237956356
-1.075047059
-0.9830012883
-0.9572917643
-0.8720481378
-0.7783100553
-0.7241049141
-0.7134988956
-0.6613387326
-0.5972294909
-0.5432069753
-0.5344686355
-0.507159524
-0.4635398945
-0.4419535632
-0.4312449502
-0.419786369
-0.364704459
-0.3340879693
-0.3269477756
-0.3281162886
-0.2851577032
-0.253813666
-0.2476861459
-0.2567050053
-0.2236258391
-0.1941319185
-0.1863021381
-0.1869366248
-0.1735097528
-0.1516318607
-0.140425399
-0.1409571352
-0.1369818405
-0.1191346186
-0.1067972247
-0.1035151828
-0.1004448292
-0.0923749953
-0.08390598068
-0.07684405166
-0.07060384527
-0.06538475424
-0.06023081026
-0.05358671792
-0.04738316799
-0.04223184712
-0.03800291403
-0.03299866524
-0.02792847029
-0.0234974656
-0.01936839282
-0.01475138835
-0.01023003035
-0.005667358237
-0.0009492973591
0.003430757456
0.007726601842
0.01194433543
0.01605705976
0.02035004775
0.02462138687
0.02966875623
0.03446238621
0.03870067701
0.04304266438
0.04679404592
0.05064264182
0.05552127911
0.05933293158
0.0634447133
0.06743723806
0.07170035984
0.07586122606
0.08153615397
0.08881223786
0.09524622443
0.1025609918
0.1144922038
0.1325393496
0.1728411452
0.3929044471
0.2386875769
-6.614387947
-7.257834646
-6.866216478
)


100
(
-24.92564549
-10.17764133
-6.632999706
-5.855051185
-4.492864609
-3.610792222
-3.196338292
-2.708469307
-2.385489769
-2.26208369
-1.829378429
-1.748675455
-1.595506567
-1.353057817
-1.287197092
-1.199209219
-1.05495927
-0.9644099968
-0.9378688963
-0.8671970498
-0.7758552933
-0.7079901314
-0.6961619897
-0.6621919044
-0.5993887562
-0.5416072031
-0.5220546624
-0.4946074851
-0.4521247674
-0.4352386821
-0.4322909672
-0.4233454609
-0.3595818721
-0.3322705493
-0.3324606518
-0.3277307943
-0.2829273251
-0.2528062619
-0.2583042068
-0.2565933445
-0.2261623855
-0.1976384762
-0.1930712664
-0.1889336178
-0.175177997
-0.1542352585
-0.1469104963
-0.1439478222
-0.1408755524
-0.1270970278
-0.1188566013
-0.111023155
-0.1059265168
-0.1012365687
-0.09480023861
-0.08623219561
-0.07815213298
-0.07186095173
-0.06675106691
-0.06044820374
-0.05347335658
-0.04760680852
-0.04227328962
-0.03722167848
-0.03186533878
-0.02698650848
-0.02186532779
-0.01674477557
-0.01251953273
-0.008117810921
-0.003451312016
0.0008841880426
0.005307531569
0.009946723863
0.01484582105
0.01950967621
0.02400085273
0.02913897815
0.03371304247
0.03801306922
0.04269034297
0.04705662235
0.05146314387
0.0558971206
0.06037088172
0.06488005363
0.06952795619
0.07429123
0.07881429939
0.08591530305
0.09383130727
0.1019730342
0.1144975337
0.135514439
0.183284954
0.4195166631
-0.1899770366
-7.371643684
-7.198862738
-7.014790279
)


100
(
-21.79185425
-11.3069735
-7.391933847
-5.897906069
-4.293553856
-4.048074056
-3.104078889
-3.018610078
-2.384587073
-2.284731927
-2.043372442
-1.720276957
-1.687399792
-1.506482506
-1.298076672
-1.250357085
-1.164303826
-1.027208461
-0.9350634104
-0.9094524114
-0.8554453384
-0.769558864
-0.6910273636
-0.6787794294
-0.6645928457
-0.60329092
-0.5470598023
-0.5118851578
-0.4816144538
-0.4415211344
-0.4278460865
-0.4477304018
-0.4145425113
-0.35480903
-0.3300476886
-0.3417100846
-0.323391105
-0.2797756794
-0.255330345
-0.2609657818
-0.2545392188
-0.2275293695
-0.2031057262
-0.1968819757
-0.1932453359
-0.1819550058
-0.1687456771
-0.1590708166
-0.1508397529
-0.1464138318
-0.1390348337
-0.1293124763
-0.118985726
-0.1098179098
-0.104420853
-0.1017057024
-0.09371196189
-0.08561895338
-0.07859272552
-0.07223487358
-0.0661244343
-0.05962107196
-0.05366237904
-0.04687673801
-0.04027932071
-0.03524593593
-0.03059076566
-0.02497768512
-0.0195933906
-0.01499728362
-0.01032351456
-0.005647313197
-0.0009954368214
0.0036815297
0.008347323279
0.01334302697
0.0180307934
0.02283017661
0.02798039625
0.03273380208
0.03731678237
0.04182707932
0.04670863844
0.05163914414
0.05634143287
0.06115096668
0.06567427514
0.07075472973
0.07609672365
0.08231132519
0.09038096748
0.09984660374
0.1155997744
0.1380592754
0.2071101342
0.4390804817
-0.8605027647
-7.550786257
-7.078499106
-6.763623814
)


100
(
-19.93079108
-11.78340106
-7.414223566
-5.472587927
-4.583480741
-4.041505755
-3.26867007
-2.953159231
-2.635596912
-2.241892584
-2.190065673
-1.876411793
-1.661743714
-1.625330787
-1.436265057
-1.246461011
-1.201864002
-1.127423927
-1.007233784
-0.9062662927
-0.8836096043
-0.8502886206
-0.7673154259
-0.6916139409
-0.6626939189
-0.6557424358
-0.6090897375
-0.5539293282
-0.506520767
-0.4704111258
-0.4286195041
-0.4273780611
-0.4462673943
-0.4057517031
-0.349319223
-0.3372215057
-0.3382325137
-0.3194297218
-0.2776404807
-0.2633219015
-0.2597608632
-0.2571172905
-0.2364943013
-0.2213464274
-0.2072117848
-0.2006171921
-0.1943191078
-0.1841436695
-0.1707589425
-0.1580734626
-0.1478522036
-0.143846256
-0.1370860298
-0.1270384233
-0.1165361708
-0.1094385159
-0.103087512
-0.0989000049
-0.09235552412
-0.08567077306
-0.07796866372
-0.06973850653
-0.06422099548
-0.0590889855
-0.05186660001
-0.04474064919
-0.03934278496
-0.03406546486
-0.02873255522
-0.02333149402
-0.01774432243
-0.01241349677
-0.007981228902
-0.003216432452
0.001514535797
0.006313951804
0.01130232159
0.01609129736
0.02102507114
0.02588427172
0.03092619283
0.03595661239
0.04082508824
0.04610084472
0.05127672751
0.05606773446
0.06152081397
0.06647132082
0.07220591842
0.07866769567
0.08619938905
0.09549231818
0.1161358392
0.1438392756
0.251842555
0.4677216786
-2.020315774
-7.614724931
-6.852117401
-6.408096595
)


100
(
-18.81825787
-10.55978326
-6.824726433
-5.275169872
-5.050420652
-3.876549727
-3.625612122
-2.883340322
-2.82702051
-2.368465292
-2.155643252
-2.084666083
-1.759484664
-1.603771008
-1.564736095
-1.376887185
-1.201247415
-1.166260254
-1.10896119
-0.9967842958
-0.8871799038
-0.863941741
-0.8517046071
-0.7707436585
-0.6986282514
-0.6515489063
-0.6453142971
-0.6194224578
-0.564124686
-0.5169515385
-0.4585454964
-0.4223931707
-0.4437962403
-0.4368114519
-0.3999641076
-0.3491562838
-0.3422125942
-0.3360407194
-0.3215251289
-0.2941235716
-0.2784625086
-0.2696571082
-0.2669064368
-0.2552350909
-0.2385965175
-0.2204198312
-0.2047464495
-0.1985505331
-0.194835151
-0.1819179248
-0.1684951825
-0.1564504876
-0.1473141947
-0.1416787037
-0.1354535191
-0.1262448058
-0.118248476
-0.1085793146
-0.1006039368
-0.09663243881
-0.09157360958
-0.08327869246
-0.07463969257
-0.06843851232
-0.06348876264
-0.0574539207
-0.05085645329
-0.04404634005
-0.03702658429
-0.03223887597
-0.02675696883
-0.02058162736
-0.01541642961
-0.01058595945
-0.00587925255
-0.001252574864
0.00351254918
0.008289867767
0.01324816488
0.01861546024
0.02375608975
0.02902223671
0.03399442258
0.03899469604
0.04477730621
0.05018169491
0.05566692413
0.06128607655
0.06745435752
0.07395703984
0.08138487395
0.09297799811
0.117828592
0.1556166406
0.3037143151
0.4641850607
-3.848692041
-7.589114361
-6.577684374
-6.467144047
)


100
(
-18.26075665
-9.582669815
-6.340889489
-5.754764557
-4.965708786
-3.981055112
-3.679936959
-3.121545274
-2.789219956
-2.630701704
-2.192096949
-2.087460437
-1.960824962
-1.676656273
-1.552102548
-1.520911049
-1.348052037
-1.18457548
-1.142352987
-1.107218147
-0.997965257
-0.8949253436
-0.85471739
-0.8447294698
-0.7857522967
-0.7153679206
-0.6537382653
-0.6414405092
-0.6322808164
-0.5809361927
-0.5369563433
-0.4651775293
-0.4350135467
-0.4455267831
-0.4382232144
-0.4029332907
-0.3736084062
-0.3542767262
-0.3504247817
-0.3402367939
-0.3222239838
-0.2994941418
-0.278461661
-0.2684864047
-0.2654527135
-0.2534259343
-0.2352606542
-0.2175633178
-0.2054505969
-0.1990184289
-0.1922497801
-0.1809613358
-0.1697530891
-0.1584108116
-0.146333323
-0.1403372629
-0.136206705
-0.1273297262
-0.1161813883
-0.1063400307
-0.09966022473
-0.09594806803
-0.09016554139
-0.08266939677
-0.07492036937
-0.06731899034
-0.06213307409
-0.05638926092
-0.04813501172
-0.04080393236
-0.03579743837
-0.03024020946
-0.02440401325
-0.01932474805
-0.01425016204
-0.009291219315
-0.00454039748
0.0004635701194
0.005381460687
0.01053989986
0.01607825518
0.02139485494
0.02689018991
0.03198331783
0.0374472672
0.04318945075
0.04916917648
0.05518269047
0.06123480389
0.06754397024
0.07557498649
0.08858612264
0.1147088565
0.1691041836
0.352402136
0.3300305627
-5.775887991
-7.208864237
-6.333099408
-6.338310798
)


100
(
-16.92217636
-9.256696854
-6.71488319
-6.200953876
-4.748171588
-4.387999975
-3.614958419
-3.479853552
-2.822440084
-2.70252235
-2.444564936
-2.081409488
-2.028025265
-1.87292392
-1.62356908
-1.523358092
-1.503962222
-1.344153178
-1.187434756
-1.132823884
-1.122360304
-1.013788072
-0.9156093929
-0.8567205659
-0.8465735922
-0.8118842884
-0.7408264644
-0.6807240097
-0.6448378476
-0.6360638825
-0.6108310807
-0.5609549702
-0.487779919
-0.4640398468
-0.4602675406
-0.4588466576
-0.4359244646
-0.4122372227
-0.3805068421
-0.3609321792
-0.355388268
-0.3425854676
-0.3190996725
-0.2962669667
-0.2773796429
-0.2712595209
-0.2662873871
-0.2518479494
-0.2338048617
-0.2215920808
-0.2080295255
-0.199712068
-0.1944161714
-0.1853252824
-0.1708517588
-0.1559848263
-0.1441417556
-0.1417439897
-0.1355688732
-0.1253632769
-0.1167879036
-0.1077840185
-0.1009115226
-0.09694515039
-0.09088871588
-0.0807883439
-0.07164047541
-0.06589054993
-0.06087923241
-0.05296134834
-0.04657863328
-0.04072018869
-0.03481284709
-0.02918328697
-0.02370572176
-0.01835335014
-0.01285693067
-0.007772517096
-0.002502648565
0.002584130249
0.00788639725
0.01350306423
0.01878960953
0.02451239577
0.030192531
0.03613354469
0.04172491185
0.04831836939
0.05424590848
0.06175948886
0.06991762592
0.08408353901
0.1104390824
0.1845489113
0.3895265878
-0.2127875364
-6.528702931
-7.030535874
-6.264329801
-6.2950881
)


100
(
-15.58905866
-9.878166225
-7.2040697
-5.830254576
-4.868455133
-4.549855518
-3.742331968
-3.48480024
-3.142845779
-2.704603044
-2.630765068
-2.305127595
-2.034062727
-1.980598802
-1.823315972
-1.593938984
-1.503704896
-1.494133004
-1.349607742
-1.202453313
-1.133378095
-1.124121509
-1.03824081
-0.9433038878
-0.8625946431
-0.851224308
-0.8371726067
-0.7710201479
-0.7119864657
-0.6610370232
-0.6413402548
-0.6300871966
-0.5919335802
-0.539782836
-0.5114884192
-0.4847494488
-0.4754239591
-0.4670147737
-0.4376272785
-0.4056395026
-0.3759416237
-0.3641917376
-0.3613868412
-0.340869734
-0.3175662449
-0.2973419716
-0.2816188392
-0.2732254591
-0.2673555296
-0.2552146264
-0.2419152162
-0.2230694172
-0.2057411179
-0.1998767742
-0.1978723065
-0.1832390609
-0.1679134135
-0.1556184873
-0.1479070111
-0.1430487066
-0.1381889813
-0.129405115
-0.1162138671
-0.1048033007
-0.1012695982
-0.09599169281
-0.08643942901
-0.0785736425
-0.07189831062
-0.06598325404
-0.05911512166
-0.05235385012
-0.04579846506
-0.04003745664
-0.03391363164
-0.02798742035
-0.02203967322
-0.01663587928
-0.01134061813
-0.006124492229
-0.0007690543698
0.004852774066
0.01061823705
0.01613560592
0.02162273459
0.02767998163
0.03405161389
0.04080734548
0.04799318776
0.05449603627
0.06406841604
0.07849189531
0.1081853532
0.1976646395
0.4216417302
-1.127278406
-6.832448446
-6.782877907
-6.082659092
-5.876664535
)


100
(
-14.67034185
-9.903286884
-6.908452687
-5.573538709
-5.27440842
-4.398244167
-4.100596314
-3.438239335
-3.383485425
-2.898758489
-2.630658205
-2.554408431
-2.202443412
-1.98680459
-1.942914499
-1.78906406
-1.577013721
-1.483059678
-1.482295771
-1.359463357
-1.221137431
-1.131923434
-1.123200913
-1.063499821
-0.9700411528
-0.8923515582
-0.8534578884
-0.8391008928
-0.8029305789
-0.7410222854
-0.6918284491
-0.6458437242
-0.6353013644
-0.6235574316
-0.5824817083
-0.5425804345
-0.5003830342
-0.4803426881
-0.4786446311
-0.4634290063
-0.4304678825
-0.4001307716
-0.3772018005
-0.3681164313
-0.3581226165
-0.3392278348
-0.3210474493
-0.3050484604
-0.284288352
-0.2747039548
-0.2694375122
-0.2564489974
-0.2367478245
-0.2180065743
-0.2071479247
-0.2023059397
-0.1962391815
-0.1828431525
-0.1728432382
-0.1594048518
-0.1491334996
-0.1449286018
-0.1366684789
-0.1230580115
-0.1118192233
-0.1058367115
-0.1001844816
-0.09393865058
-0.08636851405
-0.07931344616
-0.07303977219
-0.06623620722
-0.0592331208
-0.05213470559
-0.04573333683
-0.03914022823
-0.03311886003
-0.02727655347
-0.02182459698
-0.01607346096
-0.01031428686
-0.004644169889
0.0008983532603
0.006451554602
0.01246659772
0.0186784125
0.02461891443
0.03085207352
0.03849530254
0.04638870979
0.05564896564
0.07341509514
0.09823539961
0.191090315
0.4360114927
-2.003123663
-6.694707144
-6.562106091
-6.094393718
-6.216221244
)


100
(
-14.07522382
-9.312239551
-6.542643388
-5.731789508
-5.368747744
-4.380530788
-4.196167392
-3.636653237
-3.335189196
-3.190945812
-2.705098003
-2.540241054
-2.429610578
-2.117498762
-1.937850773
-1.907206566
-1.763594283
-1.566387986
-1.464539463
-1.465786604
-1.370416301
-1.238832194
-1.126900586
-1.115640316
-1.090557206
-0.9941251598
-0.9202138498
-0.8530751545
-0.8361808908
-0.8219304029
-0.7719280526
-0.7228422041
-0.6670185791
-0.6347823989
-0.6254856807
-0.6120392447
-0.5681491033
-0.526691582
-0.489215268
-0.4820972899
-0.4779992703
-0.4541458127
-0.4226742037
-0.4005006229
-0.3796775546
-0.3677037349
-0.3606851186
-0.3449511283
-0.3242191749
-0.3006922421
-0.2801920711
-0.2765830033
-0.2707244579
-0.2512438971
-0.2328279623
-0.2234820352
-0.2119185515
-0.2064833217
-0.1991473033
-0.1839546564
-0.1676060316
-0.1540319836
-0.150601942
-0.1439671114
-0.1320423669
-0.123608314
-0.1158123598
-0.1085808163
-0.1017988488
-0.09448266699
-0.08720518284
-0.0804954607
-0.07402358542
-0.06648252355
-0.05941294359
-0.05293019574
-0.04637069022
-0.03996254685
-0.03352484428
-0.02745974497
-0.02196075006
-0.01614577178
-0.01014235544
-0.004139782198
0.001791352772
0.006529416589
0.01287771298
0.01968098949
0.02537152455
0.03401552589
0.04293790556
0.06343592895
0.08892950686
0.196794989
0.4286664385
-2.513199067
-6.289695938
-6.356781347
-6.046626098
-6.218533959
)


100
(
-13.56346831
-8.730144438
-6.396377771
-6.057434164
-5.109597573
-4.69429413
-4.081786069
-3.935176119
-3.330264873
-3.210189487
-2.962638517
-2.540254787
-2.453742667
-2.331702117
-2.047591412
-1.889449407
-1.869104739
-1.740452244
-1.56166383
-1.445181408
-1.446242841
-1.382586261
-1.254587262
-1.153266239
-1.104415013
-1.08333345
-1.01853968
-0.944239191
-0.8848348443
-0.8360857469
-0.8210642231
-0.803665952
-0.7480076521
-0.6922118005
-0.6368148865
-0.6266965888
-0.6274919327
-0.594753097
-0.551870872
-0.5155528149
-0.4872040087
-0.4783605051
-0.472236695
-0.4512185308
-0.4318195337
-0.4044141182
-0.3729355714
-0.3643256465
-0.3636361668
-0.342161516
-0.3184217402
-0.2974048351
-0.2837074164
-0.277578671
-0.2704143245
-0.2569640899
-0.2415841252
-0.2217805146
-0.2116445605
-0.2078120998
-0.1944968569
-0.1775417262
-0.1665548371
-0.1591849268
-0.1524960526
-0.1448140424
-0.1361222662
-0.1274399938
-0.1199573919
-0.1123954307
-0.1041401199
-0.09614559651
-0.08851760568
-0.08179007377
-0.07477300094
-0.06825691945
-0.06236483666
-0.055199725
-0.04783187844
-0.04135339656
-0.03516950907
-0.02980976849
-0.02341947861
-0.01707332534
-0.01146566068
-0.006067170668
-0.0007646972637
0.005524143145
0.01342711447
0.01996414301
0.0307656269
0.04862620062
0.0837030423
0.2017936344
0.4596687528
-2.850772765
-5.992665384
-6.320645519
-5.873564155
-6.095511759
)


100
(
-12.84071474
-8.788219746
-6.673449991
-5.95803514
-4.992629766
-4.864078446
-4.102761988
-3.902907057
-3.592787328
-3.161983548
-3.080004423
-2.792056145
-2.439826422
-2.384220113
-2.26112727
-2.00185375
-1.846164385
-1.834609307
-1.731387175
-1.565210511
-1.430720599
-1.425398522
-1.405028109
-1.273967237
-1.179528667
-1.095150519
-1.073014806
-1.054007654
-0.9790125785
-0.9180721969
-0.8402336222
-0.8184842572
-0.8118644679
-0.7776009868
-0.7184474597
-0.665029199
-0.6287636302
-0.6293448514
-0.6181274415
-0.5793294104
-0.5421507754
-0.5177711347
-0.4888783128
-0.4833113439
-0.4760728967
-0.4577793821
-0.4250606533
-0.3933384186
-0.370831244
-0.3706157582
-0.3613203117
-0.3363794262
-0.321447534
-0.3050504792
-0.2907647339
-0.2815448965
-0.2758004059
-0.2548106097
-0.2346657247
-0.2208670493
-0.2143765984
-0.2066984249
-0.1925421444
-0.1829831078
-0.1729106696
-0.1648538303
-0.1569038816
-0.1477332851
-0.1388363716
-0.1307693543
-0.1234980307
-0.1157078237
-0.1075585608
-0.100172952
-0.09303729927
-0.08530626463
-0.07805346605
-0.07095920889
-0.06471248618
-0.05869117466
-0.05195973558
-0.04464423258
-0.03827804308
-0.03242302598
-0.02782710043
-0.02155140347
-0.01546678433
-0.01072392156
-0.004944469879
0.003957807853
0.01371149402
0.03265371984
0.06171799482
0.1913369205
0.4460596683
-4.337308104
-5.706636185
-6.242673041
-5.733825012
-6.320308792
)


100
(
-12.30466667
-9.066454579
-6.772444012
-5.692272342
-5.255142373
-4.692840986
-4.380029239
-3.820814678
-3.769707883
-3.34515759
-3.059043715
-2.998664895
-2.668795218
-2.376463418
-2.334703864
-2.216976848
-1.97851267
-1.819064416
-1.805474878
-1.742793282
-1.586723292
-1.459899102
-1.409862613
-1.389522803
-1.301535973
-1.208597973
-1.131543863
-1.076074524
-1.05379677
-1.014515556
-0.9484791254
-0.8761398076
-0.8194894888
-0.8145582348
-0.8105405991
-0.7491146886
-0.6955509117
-0.6554068768
-0.6331019782
-0.6207150173
-0.6146913592
-0.583375207
-0.5537611429
-0.5127739085
-0.4859118993
-0.4835110059
-0.4854352649
-0.4484946906
-0.4166669911
-0.3927969957
-0.3775174696
-0.3748527925
-0.3694635656
-0.3531204316
-0.3255985252
-0.2983159875
-0.2919315624
-0.288014272
-0.2691952609
-0.2496372817
-0.2379450756
-0.2282922241
-0.2185255759
-0.207772475
-0.1982649558
-0.1880787764
-0.1794736792
-0.1710352331
-0.1611446661
-0.1516155991
-0.1431864629
-0.1355559585
-0.1272500742
-0.1196682917
-0.1129151124
-0.1059009639
-0.09713618019
-0.09024967492
-0.08365715324
-0.07730821641
-0.07023631672
-0.06308371523
-0.05683755605
-0.05159896794
-0.04589689546
-0.04090600912
-0.03642041743
-0.02940208714
-0.02436037757
-0.01702821401
-0.007270285895
0.01159610382
0.04698797597
0.1892394636
0.4705006078
-6.140492927
-5.167908329
-6.133233539
-5.517882297
-6.360898733
)


100
(
-11.81940079
-8.766464966
-6.488364389
-5.630982982
-5.463015573
-4.565543668
-4.473079928
-3.974602947
-3.708451579
-3.599651585
-3.156456563
-2.96191052
-2.909388829
-2.573263988
-2.3207636
-2.294181494
-2.186818086
-1.974088969
-1.803660675
-1.798868337
-1.769137827
-1.603889086
-1.489474101
-1.39893461
-1.375410026
-1.350630115
-1.254810961
-1.17090725
-1.073420647
-1.051453676
-1.052499154
-0.9843778304
-0.9134223765
-0.8460700693
-0.8201028308
-0.814086977
-0.7887756863
-0.7291744646
-0.6932190919
-0.6607194813
-0.6387481394
-0.6258494458
-0.6184860705
-0.5801910775
-0.5396532692
-0.5002527698
-0.4933306445
-0.4908349386
-0.4763038151
-0.4439528979
-0.4289907263
-0.4057722464
-0.3902758883
-0.3856503322
-0.3745218028
-0.3439330247
-0.3160634732
-0.3030378071
-0.2958182513
-0.2872748033
-0.2729482814
-0.2599678838
-0.2485866268
-0.2384445741
-0.2279737732
-0.2158663871
-0.2045042408
-0.1940946417
-0.1841327171
-0.1757017009
-0.1668947957
-0.1583396013
-0.1504514327
-0.1422752717
-0.1342235743
-0.1272515468
-0.1198027307
-0.1125258518
-0.1067138134
-0.09927592072
-0.09212346789
-0.08496323777
-0.0791698773
-0.07463615218
-0.06852376229
-0.06263904421
-0.05755952281
-0.05355007885
-0.04608840012
-0.04055261481
-0.03032093189
-0.01446653554
0.01994841078
0.1684776266
0.4641017227
-7.202535078
-4.429559682
-6.032792468
-5.463535363
-6.349884235
)


100
(
-12.01555279
-8.445497519
-6.269775276
-5.832087728
-5.250588956
-4.792226323
-4.372681223
-4.226357045
-3.715620795
-3.581714136
-3.403313083
-3.005561313
-2.8765564
-2.816380091
-2.512631455
-2.272781574
-2.259027361
-2.176956369
-1.985305439
-1.823945425
-1.766587471
-1.746980981
-1.631854466
-1.521244709
-1.425025643
-1.379830485
-1.355042969
-1.294098696
-1.20820807
-1.11232022
-1.05501809
-1.056728332
-1.030537496
-0.9531568897
-0.8900656353
-0.8393703784
-0.8194336295
-0.8064408339
-0.7801334216
-0.7456373153
-0.7019776294
-0.6490893048
-0.6323600574
-0.6331695346
-0.6116344761
-0.5685679782
-0.5318039272
-0.5089142326
-0.5018259877
-0.5000130032
-0.4900017714
-0.462636736
-0.4272126922
-0.3975598047
-0.4002693677
-0.393225395
-0.363773777
-0.3413964747
-0.3277782662
-0.3165070045
-0.3037375564
-0.2906942446
-0.2808183961
-0.2709335303
-0.2599722559
-0.2494391638
-0.2368751933
-0.22495262
-0.2145065462
-0.2048563845
-0.1942375798
-0.1845589633
-0.1746154538
-0.1668074988
-0.1596671666
-0.1526571771
-0.1469593273
-0.1396089351
-0.1308415066
-0.1228428942
-0.1173718493
-0.1132965817
-0.1076037147
-0.101614586
-0.09567532256
-0.09148401799
-0.0850050147
-0.08097652488
-0.07701134151
-0.07022044555
-0.06150670425
-0.04903393855
-0.0150735784
0.1305770688
0.4409029556
-7.567263335
-3.612055101
-5.978719672
-4.993516329
-5.711513457
)


100
(