/*--------------------------------*- C++ -*----------------------------------*\
| =========                 |                                                 |
| \\      /  F ield         | OpenFOAM: The Open Source CFD Toolbox           |
|  \\    /   O peration     | Version:  2.3.1                                 |
|   \\  /    A nd           | Web:      www.OpenFOAM.org                      |
|    \\/     M anipulation  |                                                 |
\*---------------------------------------------------------------------------*/
FoamFile
{
    version     2.0;
    format      ascii;
    class       dictionary;
    location    "constant";
    object      PM8;
}
// * * * * * * * * * * * * * * * * * * * * * * * * * * * * * * * * * * * * * //

PM8_table
100
(

100
(
0.7682764097
-3.140040278
-1.276951507
-0.8500361178
-0.8440736836
-0.7622350929
-0.4877791395
-0.5650322699
-0.4336804074
-0.407692395
-0.4521006624
-0.2921088216
-0.3095388017
-0.2929983784
-0.2120117998
-0.2254602489
-0.2421284638
-0.1516435248
-0.1627251851
-0.1844672562
-0.1333609788
-0.1161501101
-0.127723288
-0.1271860829
-0.08257300287
-0.08785076597
-0.09697921402
-0.08907641536
-0.05739350419
-0.06222717035
-0.07030332878
-0.06017671285
-0.04219712382
-0.04497259593
-0.04928785421
-0.04804136793
-0.03187633055
-0.02681188708
-0.03043697826
-0.03015321571
-0.02067782989
-0.01564787863
-0.01782619392
-0.0176375919
-0.01258178364
-0.009186004618
-0.010319539
-0.01169675305
-0.007308566829
-0.004031103061
-0.003335476181
-0.003729465031
-0.002015443636
-0.0008645745123
-0.0006087437677
-0.0005950949057
-0.0002131832977
-3.731382845e-05
3.859853813e-05
0.0001933874635
0.0002115264513
-0.0005533553402
-0.0007877431592
-0.0005979444748
-0.001125132472
-0.002989182251
-0.003375693246
-0.003486759426
-0.00552875395
-0.007609842462
-0.008338487336
-0.009570112471
-0.01338235524
-0.01473422977
-0.01609421583
-0.01878956696
-0.02317923333
-0.02530988148
-0.02816135829
-0.03425185727
-0.03672387663
-0.04219472611
-0.04784631167
-0.05076604328
-0.06152548272
-0.06557221828
-0.07417488363
-0.08277377359
-0.09066533451
-0.1021219564
-0.1110397275
-0.1235472622
-0.134904342
-0.1496983256
-0.1628806528
-0.1811685369
-0.1947509871
-0.1456687734
0.01398126899
-0.1301656951
)


100
(
-0.7792298947
-2.130456435
-1.050194487
-0.7497789426
-0.8658817898
-0.642749147
-0.5714132554
-0.4887771664
-0.4546395773
-0.3516587625
-0.384258458
-0.273293097
-0.2612442237
-0.257544451
-0.1953378099
-0.1843375318
-0.1919558357
-0.1533672334
-0.1272730113
-0.13837339
-0.1210946561
-0.10024529
-0.09318659817
-0.09377270255
-0.07890278898
-0.06709070501
-0.0664743838
-0.06374103658
-0.05369611343
-0.04543602694
-0.04274912613
-0.03985718929
-0.03459313597
-0.03038202717
-0.0283977688
-0.02850900405
-0.02314814238
-0.01927466278
-0.01556433161
-0.01364572886
-0.01100897249
-0.009071113044
-0.007385696916
-0.005076397012
-0.004177269492
-0.003588954413
-0.003165433385
-0.002676466823
-0.001032209458
-0.000298004726
0.0002776841232
0.0009493549364
0.002065632769
0.001968791477
0.001763878406
0.001605708578
0.001567159104
0.000977345095
0.0005087402276
6.517146357e-05
-0.0006495109266
-0.001241695716
-0.002071500447
-0.003079921401
-0.003835102534
-0.004537609549
-0.005931977182
-0.007756441932
-0.00845426141
-0.01003474608
-0.01235686426
-0.01451155472
-0.01592638498
-0.01854762823
-0.02154658165
-0.0230176926
-0.02557570523
-0.0292583952
-0.03202874879
-0.03547400442
-0.03892909282
-0.04215277739
-0.04722865996
-0.04973340187
-0.05437273182
-0.06004646024
-0.06426635175
-0.07020757861
-0.07623593054
-0.08265374626
-0.08961608717
-0.09736085616
-0.1062688256
-0.1165111631
-0.1281932973
-0.1455388103
-0.2016689678
-0.3548592525
-0.1145521398
-4.493266008
)


100
(
-3.170779586
-1.545679773
-0.8598586617
-0.88420103
-0.8416093951
-0.5293914224
-0.6180228282
-0.3923146433
-0.4328274825
-0.3209411884
-0.2991322592
-0.267968198
-0.1910735274
-0.1999611213
-0.1791966121
-0.1327974234
-0.1287285906
-0.1311397282
-0.1003300734
-0.07642238157
-0.08458219965
-0.07361621555
-0.05606448061
-0.04462619752
-0.05059310226
-0.03835642436
-0.02866842829
-0.02293392159
-0.02795036815
-0.01925837919
-0.01211794443
-0.005749594938
-0.007982352463
-0.004284772139
-0.001310160746
0.001189554457
0.0006620483671
0.0009655762119
0.004195243687
0.00700415969
0.00914069068
0.009658435501
0.01049220361
0.01125481673
0.0116316197
0.01231215922
0.01180357958
0.01126825558
0.01072847683
0.01143771608
0.010408179
0.01008979672
0.009802284923
0.01014517958
0.009235059601
0.008119746564
0.007191840514
0.00669679958
0.005359130059
0.003897562839
0.002574515822
0.001026992796
-0.0007199770438
-0.002740450621
-0.004712762276
-0.006028924273
-0.007482120741
-0.00981577668
-0.0117386933
-0.01321617718
-0.01522717686
-0.01779171816
-0.01950085193
-0.02198106198
-0.02487399713
-0.02704741215
-0.02944579845
-0.03220288171
-0.03442693837
-0.03793908228
-0.0401765893
-0.04236967336
-0.04627069965
-0.04907367939
-0.0505076445
-0.05454867757
-0.05750294744
-0.05957565004
-0.06336264085
-0.06578801576
-0.07044771454
-0.07348967535
-0.07959258235
-0.08528979344
-0.0951170616
-0.1174496883
-0.2980371692
-0.612665282
-5.986155176
-5.541652524
)


100
(
-3.352668753
-1.883270357
-1.078822407
-1.068116784
-0.687187182
-0.5936854626
-0.5157779921
-0.4384202314
-0.3588477701
-0.3509052996
-0.2396985908
-0.2471670239
-0.1983825344
-0.1490730309
-0.1566802055
-0.131630439
-0.09374364995
-0.08983326794
-0.09308498763
-0.06659384485
-0.04508667675
-0.04778483542
-0.04296747292
-0.02731510813
-0.01392881903
-0.01683555845
-0.01204133874
-0.003519537223
0.003719523233
0.00232367269
0.003128617548
0.009497234597
0.01486670791
0.01777362812
0.01551371442
0.01732192398
0.0189295283
0.02218685852
0.01899753819
0.01871617336
0.02055897138
0.02274067921
0.02444221265
0.0220718051
0.02194008033
0.02304037432
0.02569065576
0.02309472611
0.02090931684
0.02079223433
0.02198165748
0.01992439886
0.01743165474
0.01702281421
0.01718867402
0.0156580502
0.01315271325
0.01226776214
0.01145877162
0.009748874466
0.007741770986
0.006087334573
0.004129249194
0.001738296447
-0.0009148299268
-0.003570767288
-0.005820136471
-0.008032575872
-0.01048814279
-0.01271509091
-0.01480862287
-0.01700719751
-0.01938269762
-0.02177315493
-0.0247055656
-0.02660050396
-0.02860956343
-0.03246823406
-0.03357040108
-0.03613012901
-0.04006995721
-0.04124196394
-0.04472898657
-0.04797330532
-0.05054530807
-0.05337983197
-0.05695540294
-0.06082728988
-0.06365107194
-0.06785530322
-0.07120373534
-0.07677306267
-0.08276017097
-0.09346339438
-0.1072237629
-0.1523538565
-0.5550231349
-2.295379906
-12.01792101
-13.67738131
)


100
(
-3.124404931
-2.193451053
-1.312773301
-0.9037432412
-0.6247788371
-0.7003499777
-0.4508893947
-0.5006054353
-0.336523422
-0.3322390195
-0.2747392805
-0.2102063291
-0.2193783773
-0.1583671763
-0.1247443376
-0.1310716472
-0.1051463628
-0.0720346039
-0.06680760704
-0.07312072239
-0.04860077673
-0.02869663302
-0.02587564343
-0.02721508224
-0.01255654682
-0.0002424387501
0.003113331034
0.001420370274
0.008673742601
0.01476241062
0.01882626081
0.01455673394
0.01821478389
0.02292996735
0.03032778
0.02652983653
0.02477358331
0.02606339792
0.03419188132
0.03120227366
0.02790018745
0.02668727914
0.03193186306
0.03377198766
0.03097851783
0.0270705957
0.03084739383
0.03427281048
0.03128307088
0.02693491063
0.02783873406
0.02885568438
0.02667461844
0.02348063508
0.02261879028
0.02211678441
0.02011533294
0.01732016602
0.01575305299
0.01442485562
0.01261458079
0.01056908202
0.008717761927
0.0066391752
0.004226072401
0.001572427167
-0.001156564736
-0.00381096952
-0.006423130961
-0.00886033196
-0.0112949158
-0.01374748343
-0.01621563007
-0.01845196913
-0.021425322
-0.02506592387
-0.025958497
-0.02868194737
-0.0321537256
-0.03385966595
-0.0374253649
-0.0406332071
-0.04288073244
-0.04658670983
-0.04982103582
-0.0532301516
-0.05644776159
-0.05985609736
-0.06489727358
-0.06877778036
-0.07360206301
-0.07985358756
-0.08659457662
-0.09875864993
-0.1228316949
-0.2251749243
-0.8195101998
-5.788166921
-12.47050067
-12.76073135
)


100
(
-3.034369052
-1.671969049
-1.123070001
-0.7958588878
-0.7537923667
-0.6428535948
-0.5119173501
-0.4585118788
-0.4109723695
-0.3049978403
-0.3267266471
-0.2345153678
-0.2004525095
-0.1980458453
-0.1411623882
-0.1156154406
-0.1217386964
-0.09707263617
-0.06662689398
-0.05839052456
-0.06480774203
-0.0457197481
-0.02661314546
-0.01726129808
-0.02177130329
-0.009260716003
0.003479995788
0.006409871197
0.00139969456
0.00523594678
0.01423328478
0.02294563033
0.01883352154
0.01568335923
0.02399369727
0.03432614316
0.0308466645
0.02367982054
0.02935067662
0.03893114195
0.03646229118
0.03195860093
0.03043329733
0.03658174145
0.03809142615
0.03335378559
0.02984553536
0.03417159895
0.03746669594
0.03368662038
0.03030711018
0.0310077282
0.03153139803
0.02943900628
0.02640401808
0.02495348612
0.02375809576
0.02154278145
0.01908827779
0.01698462745
0.01531925389
0.01372076919
0.01214751846
0.01043135296
0.008512940046
0.006386534272
0.004048435573
0.001606208404
-0.001053220556
-0.003732058573
-0.006375015438
-0.008948946066
-0.01153732872
-0.01400289034
-0.01626261597
-0.01948487447
-0.02283844583
-0.02484083482
-0.02774702429
-0.03053085634
-0.0334054649
-0.03637325793
-0.03970368192
-0.04288104109
-0.04582806768
-0.04913690456
-0.05327263821
-0.05615014092
-0.0614820876
-0.06651083877
-0.07084036305
-0.07666867837
-0.08606154623
-0.0975455023
-0.1325875397
-0.334220908
-1.225442348
-9.315354766
-12.17936751
-11.78137283
)


100
(
-2.976884747
-1.344928008
-0.9746556014
-0.8567280265
-0.9061147976
-0.5934326249
-0.628686828
-0.429304344
-0.463883514
-0.351423572
-0.3106460689
-0.3007689007
-0.2150209664
-0.1998598999
-0.1882076008
-0.1376558788
-0.1155680382
-0.1218506866
-0.1002964823
-0.07139848107
-0.05759681744
-0.06257436942
-0.04864933838
-0.02848465098
-0.01140659472
-0.01575477793
-0.01125576497
0.00120649245
0.002819645556
-0.001239759898
-0.004434452884
0.01532515611
0.0231641398
0.01921792171
0.01017768619
0.02556381077
0.03535747032
0.03125466082
0.01921520269
0.02974441234
0.03972643258
0.03749205378
0.02993925523
0.03146815656
0.03771221752
0.03850688606
0.03295978032
0.03005948453
0.03419833904
0.03601049697
0.03335484051
0.03037674287
0.03008871508
0.02982333798
0.02871628905
0.02713763845
0.02513487741
0.02315508289
0.02148312274
0.01973179036
0.01780504006
0.01573572814
0.01412107805
0.01264093118
0.01112431638
0.009325086868
0.007329442645
0.00515522367
0.002911281956
0.0005093262575
-0.00189691044
-0.004300993027
-0.006774909195
-0.009381688197
-0.01202674726
-0.01450361465
-0.01758721172
-0.02051611303
-0.02340807699
-0.02572247499
-0.02882143763
-0.03162552558
-0.03418962424
-0.03709743145
-0.04014756644
-0.04355708077
-0.04688527657
-0.05011289255
-0.0534039788
-0.05969316563
-0.0656499746
-0.0708409899
-0.07971386988
-0.09326259403
-0.1262932602
-0.417939868
-1.882333032
-11.79931423
-11.71218073
-10.22378193
)


100
(
-2.635461208
-1.194316261
-0.9879845908
-1.031558106
-0.8194472682
-0.66196568
-0.6166510774
-0.5089137573
-0.4433536957
-0.4377822536
-0.3112586782
-0.3094466212
-0.2752289184
-0.2013973338
-0.197891238
-0.1819492004
-0.1363297712
-0.1138906613
-0.1187667518
-0.1004300299
-0.07034836467
-0.04880672765
-0.05355418406
-0.04831474399
-0.02990724555
-0.01180119694
-0.01164705604
-0.007100789256
0.005097830471
0.004846781366
-0.002538767633
-0.006727995042
0.01895930434
0.02559821993
0.01725732023
0.01125865557
0.02845684563
0.03751213541
0.02766557641
0.02081092036
0.03114189562
0.04094477989
0.0362837898
0.03181113819
0.0334127543
0.03872444703
0.03775499813
0.03350633395
0.03021669174
0.03241531929
0.03209785441
0.03196422611
0.03046204502
0.02857913253
0.02767983248
0.02754907779
0.02728538967
0.02601322755
0.02396822542
0.02223102205
0.02046913527
0.01877035828
0.01683498875
0.01479901297
0.01295128513
0.01123470792
0.00962237936
0.007750533607
0.005762410309
0.00375171329
0.001662401961
-0.0004451631006
-0.002732938636
-0.005181307098
-0.007787035977
-0.01059574628
-0.01331947095
-0.01593985745
-0.01902386088
-0.02178685987
-0.0242459417
-0.02712910002
-0.02954220485
-0.03275777202
-0.03544458417
-0.03836182053
-0.04175038681
-0.04562168972
-0.04864859371
-0.05318688363
-0.05922719367
-0.06516065244
-0.07489465845
-0.08959232619
-0.1242287325
-0.4729240529
-2.807474188
-12.60849159
-11.20863055
-10.62006764
)


100
(
-2.261398489
-1.384340336
-1.153787499
-1.043510376
-0.7491543951
-0.7906791351
-0.573608024
-0.6105089881
-0.4307924384
-0.435256691
-0.3803915596
-0.2868646775
-0.3005287677
-0.2516489615
-0.1873493332
-0.1896852587
-0.1717646941
-0.126437802
-0.09831492661
-0.1022830667
-0.0920061011
-0.06535187268
-0.03880253657
-0.04441903424
-0.04952451572
-0.03116252186
-0.01302691635
-0.004288569479
0.002093259939
0.01345951569
0.01186757904
-0.007553251606
0.001754926204
0.02650959308
0.03188138699
0.01590856653
0.01821794086
0.0348429798
0.04136511044
0.03091851875
0.02679913963
0.0356646879
0.04280750184
0.03984024565
0.03573965186
0.03565274896
0.03724661057
0.03696538751
0.03602757142
0.03307353096
0.03145302279
0.0314524668
0.03231634024
0.03250400791
0.03109573193
0.02860776396
0.02804813165
0.02778262959
0.02728782534
0.02615008004
0.02427499809
0.02231319672
0.02034059146
0.01865798512
0.0168317947
0.01468233664
0.01247518173
0.0106282558
0.00878810575
0.006894297769
0.004758299042
0.002616394748
0.0004763710186
-0.001870596508
-0.004326093598
-0.006865762352
-0.009698595715
-0.01252003185
-0.01524895614
-0.01815682648
-0.02070062696
-0.02374397165
-0.02656280684
-0.02936026306
-0.03238580588
-0.03529904222
-0.03844204127
-0.04209247142
-0.04587788837
-0.05015571628
-0.05540632348
-0.06241064979
-0.07155922447
-0.08873911296
-0.143437676
-0.5357614867
-3.912932091
-12.5506634
-10.56903258
-9.666893332
)


100
(
-2.04828499
-1.473216658
-1.16384397
-0.9302367466
-0.8234353062
-0.7818126991
-0.6153742493
-0.5757644028
-0.5101818607
-0.4052748624
-0.4224295609
-0.333732045
-0.2763307755
-0.2858349562
-0.2292198163
-0.1664027032
-0.1670569221
-0.1511171149
-0.111965382
-0.08107353763
-0.08746797585
-0.08732123626
-0.06143735834
-0.03566232975
-0.03204741307
-0.04027947797
-0.02867156072
-0.01068615232
0.005031236097
0.0147702452
0.02517906331
0.01744522181
-0.000751275581
0.0134457988
0.03705644963
0.03527992857
0.02571399901
0.02836221568
0.04341940205
0.04461383805
0.03875353968
0.03383317465
0.03952302961
0.04131732505
0.04318660759
0.04107304459
0.0382349247
0.03791205324
0.03882358567
0.03987201185
0.04014001302
0.03630335016
0.03449537231
0.03473422386
0.03486159249
0.03427580446
0.03354509259
0.03143097649
0.03034512177
0.0294325729
0.02915838986
0.0279996009
0.02554945389
0.0230140311
0.02107558999
0.01917989951
0.01724805362
0.01499351219
0.01258169384
0.01039203706
0.008399876513
0.006168479921
0.003868200608
0.001592140189
-0.0007991863632
-0.003400000152
-0.006091549303
-0.008885057
-0.01166942132
-0.0145951131
-0.01761798782
-0.02063655597
-0.02395163254
-0.0267506506
-0.03016146834
-0.0333901519
-0.03689634497
-0.04065070938
-0.04474015094
-0.04911861482
-0.05456526826
-0.06150994119
-0.07563912232
-0.09438864307
-0.1847368779
-0.6896416821
-5.408461771
-12.18778314
-9.540306102
-8.556860159
)


100
(
-1.935659341
-1.294425416
-1.042652321
-0.8730511771
-0.957755347
-0.7195150957
-0.7254794112
-0.5370135101
-0.5709301039
-0.4414907369
-0.3970229249
-0.4025085105
-0.3023240503
-0.2615704669
-0.2652658617
-0.2040388054
-0.1461606143
-0.1508791406
-0.1444103246
-0.1081235839
-0.07061654597
-0.07607292075
-0.08612521798
-0.05984392662
-0.03489125998
-0.02136734577
-0.02986319044
-0.02834467101
-0.01054944633
0.005022281046
0.02529335797
0.0352208027
0.01484492667
0.008875691304
0.02322371025
0.04436066873
0.03952488605
0.03428690779
0.03477535425
0.04290631984
0.04519274722
0.04291809997
0.03841486389
0.03784490923
0.0401323079
0.04406620884
0.04652064911
0.04392649655
0.03999740661
0.04056369134
0.04181203565
0.04245747683
0.04103353987
0.03922522425
0.03760727293
0.03707564555
0.03658208809
0.03708256071
0.03633596028
0.03367698736
0.03146299787
0.03085057725
0.02991918526
0.02809055729
0.02600464519
0.02365692402
0.02141126841
0.0196497179
0.01756866304
0.01469827023
0.01203371136
0.009833130282
0.007816496603
0.005370120626
0.003020578419
0.0006668893656
-0.001886885432
-0.004490795406
-0.007362260951
-0.01049871206
-0.01368532304
-0.01674718875
-0.01990613482
-0.02330816101
-0.02683037823
-0.03049540145
-0.03392667238
-0.03772950063
-0.04202566267
-0.04690072525
-0.05258057394
-0.06073311027
-0.07803253313
-0.1055549505
-0.2479527597
-0.9472472282
-7.409218123
-11.69739612
-8.7740199
-8.459431085
)


100
(
-1.901225461
-1.148722875
-0.9399189222
-0.9984639933
-0.9363909084
-0.7460317288
-0.7401526416
-0.6139332683
-0.5501694862
-0.5359570269
-0.4028586631
-0.3960982293
-0.3735555215
-0.2804006787
-0.2485214127
-0.2582121305
-0.2026232378
-0.1476638702
-0.1483363126
-0.1509357081
-0.114245671
-0.07861237172
-0.07401423039
-0.08471540607
-0.06843564623
-0.04376906858
-0.02195704045
-0.0276222394
-0.03505546897
-0.01913341667
-0.003469139234
0.02466513026
0.03064356976
0.01643735649
0.01177803817
0.02463594271
0.03421603958
0.03760445111
0.03196550276
0.03001012457
0.03297150163
0.03792864586
0.04273326938
0.04105215382
0.03573889993
0.03590369871
0.03982830971
0.04331981166
0.04421111486
0.0413366009
0.03776744567
0.03922723586
0.03988803176
0.04042262164
0.04176575017
0.039677684
0.03622677036
0.0353585726
0.0358057826
0.03601922601
0.03416673933
0.03164538517
0.03058909325
0.02942067368
0.02840730493
0.02758178223
0.02468017315
0.02193444005
0.02017437888
0.01824734616
0.01613932179
0.0134938762
0.01125468451
0.009119891605
0.006718738156
0.00438524291
0.002230907672
-0.0002333505016
-0.002785488605
-0.005578037943
-0.008551961797
-0.01162868454
-0.01481434954
-0.01818210519
-0.02133428882
-0.02491504706
-0.02858270132
-0.03211232477
-0.03606077719
-0.04104673683
-0.04645984854
-0.05448669832
-0.07088532182
-0.1058174349
-0.3174919897
-1.44907299
-9.463204728
-11.02162169
-8.128357629
-7.940516013
)


100
(
-1.756652913
-1.108627414
-1.029474216
-1.126087339
-0.8731767089
-0.8792646239
-0.7164817516
-0.7432199201
-0.5583003024
-0.5623670945
-0.5029862765
-0.3875353438
-0.3962440239
-0.3603988342
-0.279080216
-0.2577402002
-0.2722488361
-0.2190320773
-0.163885733
-0.1574420467
-0.1724712437
-0.1338416474
-0.09857033132
-0.08295527852
-0.09378267342
-0.08957357699
-0.06405308138
-0.04269364374
-0.03474373281
-0.04211106923
-0.03876799519
-0.02225653763
0.008700586273
0.01494975246
0.00753325384
0.0001119075962
0.006252013966
0.01198826125
0.02238905074
0.0255193227
0.01983171875
0.0192257099
0.02508123851
0.03114222436
0.03554512315
0.03151869076
0.02740165155
0.02907957877
0.03242554789
0.03458220391
0.03700084092
0.03592172254
0.03355960166
0.03207896674
0.03348511207
0.03575154532
0.03662006227
0.03262747475
0.0299504748
0.03011025521
0.03065139622
0.03047339509
0.029766668
0.02785613403
0.02569307496
0.02539361428
0.02499523422
0.02256391116
0.02069870376
0.01924059928
0.01759386883
0.01581739641
0.01341861706
0.01120630322
0.009258152785
0.00744769898
0.0054085344
0.003377191798
0.001083025504
-0.001133166447
-0.003599806294
-0.006324760706
-0.009028851055
-0.01173528723
-0.01486571287
-0.01814423434
-0.02130089048
-0.02493088945
-0.02918659444
-0.03243736025
-0.03856207219
-0.04594324166
-0.06209708083
-0.1072521971
-0.3566308046
-2.63662945
-10.53683566
-10.51918774
-8.140051338
-7.987075361
)


100
(
-1.60073159
-1.225591052
-1.150727588
-1.039551106
-0.9101390179
-0.9405046865
-0.7617983978
-0.7481752938
-0.680263876
-0.5628400821
-0.5802866325
-0.4805039967
-0.3981724414
-0.4089095121
-0.3707861818
-0.2916518356
-0.2729325697
-0.2916385284
-0.2423779954
-0.1887461768
-0.1734880964
-0.1888165627
-0.160913795
-0.1257675744
-0.09614480848
-0.1070792655
-0.1148496419
-0.09073355704
-0.06942911454
-0.0524324231
-0.05328087227
-0.05865472074
-0.04470866125
-0.02391698745
-0.01574656946
-0.008753896024
-0.01292704121
-0.01731821179
-0.00878081955
0.002918735855
0.0131854355
0.01171141895
0.004057887601
0.008304075664
0.01483822015
0.01962313747
0.02165621191
0.0211321203
0.01864845598
0.01989836462
0.02206366947
0.02658061827
0.03056038856
0.0268635212
0.02160482901
0.02343198897
0.02619652884
0.02717410454
0.02764964691
0.02520971981
0.02314944157
0.02282984813
0.02437212246
0.02551274923
0.02282983353
0.02048116308
0.02092786391
0.02109297408
0.01999326185
0.01875533027
0.01669041756
0.01506507128
0.01339010683
0.01211090778
0.01061965711
0.009167419409
0.007336274131
0.005593327877
0.003837368136
0.002162036508
0.0002857707963
-0.001820185483
-0.003986277266
-0.006290067896
-0.008786923217
-0.01137534238
-0.0142561424
-0.01739558359
-0.02040047138
-0.02392467593
-0.02771767239
-0.03539513622
-0.05102687885
-0.1064402592
-0.386295792
-4.093202615
-11.15736468
-10.28411387
-7.886256184
-7.284525883
)


100
(
-1.498032651
-1.24521015
-1.096100169
-0.9734540565
-1.038448814
-0.8952232312
-0.8921038799
-0.7298467481
-0.7753919946
-0.6392908849
-0.5752930299
-0.5879463279
-0.4725750693
-0.4098513688
-0.4236987406
-0.3836182036
-0.3066524419
-0.2836529133
-0.3063204467
-0.2650581779
-0.212964863
-0.1850954383
-0.2006132613
-0.1863942299
-0.1511590972
-0.1227363942
-0.1162869553
-0.1238803104
-0.1169899003
-0.09429964321
-0.07708580444
-0.05783247505
-0.0610492593
-0.06554438411
-0.05214935151
-0.03845200465
-0.02187930354
-0.01858877747
-0.02771115134
-0.02753866523
-0.01501503313
-0.004058590027
0.002451970242
-0.001043287794
-0.005063264889
-0.0001161116647
0.0052246642
0.009168697703
0.01799383223
0.01581490656
0.01036498039
0.01028791342
0.01624657463
0.02149338702
0.02248
0.01789568399
0.0151544658
0.01757604905
0.01807607619
0.0226545419
0.02221224901
0.01825476473
0.0170008474
0.01916614075
0.02024490523
0.020143701
0.01918808378
0.01897366396
0.01786616902
0.01670398527
0.01531294411
0.01379836946
0.01357089601
0.01282994566
0.01185656562
0.01004987605
0.008487661655
0.007137910519
0.006092530926
0.004676736809
0.003041997293
0.001377201174
-0.0002765185631
-0.002096200265
-0.004051146774
-0.006259271096
-0.008681596532
-0.0111900854
-0.01383089563
-0.01643854928
-0.02018918952
-0.02652389867
-0.03423213677
-0.07730436471
-0.3854348818
-5.23944944
-11.1384345
-10.16134089
-8.041726452
-8.063407582
)


100
(
-1.444706949
-1.159458891
-1.019914827
-1.021570807
-1.076667257
-0.8892249069
-0.9307319969
-0.8042691416
-0.7555131716
-0.7538170178
-0.5985947745
-0.5759803925
-0.5717166795
-0.4654163278
-0.4140744435
-0.4331653347
-0.3939917
-0.3189023258
-0.2891084786
-0.3122019679
-0.2830760823
-0.2323229171
-0.1893684167
-0.2036212475
-0.2104452968
-0.1711846522
-0.1437983059
-0.1184859484
-0.1253716443
-0.1296147722
-0.1096571198
-0.09070521505
-0.0684931091
-0.06035865192
-0.06744266619
-0.07088045916
-0.05443633074
-0.03784866989
-0.02232672451
-0.02826181737
-0.03584770764
-0.02893157625
-0.01749341056
-0.01161601597
-0.00390798352
-0.003391800473
-0.006016104183
-0.005080304247
0.0002057659005
0.00910955396
0.01669122038
0.00921500772
0.00398331773
0.009771147591
0.01451506136
0.01565703234
0.01810184325
0.01562728845
0.01123581103
0.0136503961
0.01882566196
0.0219996238
0.01714386514
0.01495497606
0.01768039986
0.01869532091
0.01858992288
0.01725127506
0.01618519757
0.01538052064
0.01481190277
0.01524624892
0.0149334917
0.01386821349
0.01243004781
0.01110159848
0.0100999486
0.009356345634
0.008419057669
0.006970040671
0.005417038774
0.004211082691
0.002751591218
0.001150368377
-0.0005076417047
-0.002095717447
-0.004203591508
-0.006201822341
-0.008632175907
-0.01153455337
-0.01499317279
-0.02454109311
-0.03130088063
-0.08159379383
-0.3219808769
-5.923046695
-10.71423129
-9.96038645
-7.91696354
-7.965602598
)


100
(
-1.406769166
-1.071490841
-0.9926209777
-1.120944578
-1.003312468
-0.9959051419
-0.8905164579
-0.9195740755
-0.7478225881
-0.7535350659
-0.7022880198
-0.5658708011
-0.5736718771
-0.5594222405
-0.4579231948
-0.4120118393
-0.4349022354
-0.3987318123
-0.3292086553
-0.2884408988
-0.3107692293
-0.2973879421
-0.2472406886
-0.2091448733
-0.200125384
-0.2081015313
-0.1872329154
-0.1602274576
-0.1354820395
-0.1155469783
-0.1199221646
-0.1250477284
-0.1054057794
-0.08198844539
-0.05739086468
-0.06374487053
-0.07686548287
-0.06701207625
-0.04962933598
-0.03543695354
-0.02629526234
-0.03121718493
-0.03529812657
-0.02759460096
-0.02088706533
-0.01073798855
0.001842473052
-0.002034671933
-0.01262421241
-0.005779856247
0.003461488022
0.01103311714
0.0115083855
0.007602433527
0.005135148747
0.008217343856
0.01236040271
0.01967450556
0.01879594269
0.01062759799
0.01289002762
0.01782419266
0.02021057767
0.02049855822
0.02095815195
0.01880462115
0.017658547
0.01699498201
0.01583399874
0.01545716454
0.01636088459
0.0171113956
0.01612975809
0.015197459
0.01406778402
0.01385714527
0.01332561027
0.01215836016
0.01040816993
0.00925143776
0.008179650762
0.00781284912
0.006134356695
0.004327203768
0.003159543567
0.001718867493
0.0002264821854
-0.001669488324
-0.003874856703
-0.006398435205
-0.00933075049
-0.0162841529
-0.03073659102
-0.08667469055
-0.4512706661
-6.387122623
-10.30490804
-9.637520209
-7.394317638
-7.498741899
)


100
(
-1.329442821
-1.094069559
-1.069790666
-1.104417595
-0.9688317243
-1.060422912
-0.8975922521
-0.9083302185
-0.8516654094
-0.7257012467
-0.7475299015
-0.6734405523
-0.5568405337
-0.5749784549
-0.5554296732
-0.4585738615
-0.4086256705
-0.4352820627
-0.4087604907
-0.3426129038
-0.2879723133
-0.3074032712
-0.3186408998
-0.2639825689
-0.2277204356
-0.1958982125
-0.2030878948
-0.2066836374
-0.1719890492
-0.149546237
-0.1130131794
-0.1147019327
-0.1273829256
-0.1212257082
-0.09553723447
-0.07226370221
-0.05911430986
-0.07210576956
-0.07770499134
-0.06245996166
-0.04872933113
-0.04041957666
-0.02549357253
-0.02895538492
-0.03512032044
-0.03243027666
-0.01950987563
-0.006015492872
0.001045697858
-0.009436958669
-0.01262313788
-0.002800831097
0.002025551289
0.006920797079
0.01056490471
0.007484087107
0.001400523462
0.009445841522
0.01782371841
0.01990070541
0.01440534274
0.01354060672
0.01823837268
0.01961540477
0.01891534352
0.01815960613
0.01741175377
0.01691836718
0.01800077087
0.02000169844
0.02005444659
0.01765547517
0.01644715234
0.01560430137
0.01563422626
0.01577192287
0.01584265989
0.01508013134
0.01386562848
0.01244146203
0.01160261337
0.01004557119
0.009325773058
0.00835979302
0.007483797865
0.00521727721
0.003880671945
0.003057197998
0.001537450815
-0.001153215306
-0.00413243101
-0.008620090616
-0.01776624859
-0.07519907532
-0.4311766916
-7.713938039
-9.879241091
-9.263874431
-6.953306313
-7.711842684
)


100
(
-1.270707496
-1.158104793
-1.10731244
-1.036621877
-1.058354377
-1.010343953
-1.002538664
-0.8775094317
-0.9246224462
-0.8033659142
-0.7357917634
-0.7645129612
-0.6608754018
-0.5624164902
-0.5842113006
-0.5629004711
-0.4698617704
-0.4134462325
-0.4385124574
-0.4288836931
-0.3646458744
-0.3154079855
-0.3080308521
-0.318296789
-0.2870213052
-0.2514307429
-0.2177437928
-0.1960099013
-0.202201349
-0.195678249
-0.1702544776
-0.1368611881
-0.1122571096
-0.1267439502
-0.1420883445
-0.1135810253
-0.09016726541
-0.07420914421
-0.07027703628
-0.07503042291
-0.07946230054
-0.06539439243
-0.05678240118
-0.03638709946
-0.0264008168
-0.03551863983
-0.04775930126
-0.03108916881
-0.01716091647
-0.009413630094
-0.007775798866
-0.01238772844
-0.01501795952
-0.0118417509
-0.0008240025355
0.01131185748
0.006240683417
-0.001801909602
0.004765884445
0.01301501667
0.01543454864
0.01652830769
0.01642784565
0.015740972
0.0140265972
0.01407408977
0.01324886937
0.01503422829
0.01751703754
0.0185604867
0.01816854833
0.01784712877
0.01699075323
0.01772453181
0.01884732948
0.01704243424
0.01508183507
0.0151265303
0.01512934169
0.01534550523
0.01535372209
0.01273273799
0.01207365816
0.01234720689
0.0107739101
0.009959105057
0.009579454471
0.007508156874
0.006885609453
0.004846662044
0.002235495194
-0.003349339714
-0.01436178181
-0.07502188128
-0.5986173898
-9.032813005
-9.282080227
-8.824074352
-6.471111384
-7.642106757
)


100
(
-1.219040334
-1.120489218
-1.049883609
-1.025041187
-1.1370859
-0.9704108833
-1.045752844
-0.9414867982
-0.9010765637
-0.9183506107
-0.7799754908
-0.7448622132
-0.7744773078
-0.656367124
-0.5693552891
-0.5967114287
-0.5766322846
-0.4915445651
-0.4228225054
-0.449006058
-0.4622429109
-0.3912830987
-0.3455483489
-0.3121904685
-0.3213344305
-0.3218896613
-0.2767661289
-0.2436712629
-0.1977809993
-0.2037034037
-0.2261960687
-0.196967063
-0.1636079749
-0.1304139611
-0.1291691581
-0.1431950138
-0.1407140231
-0.1128247319
-0.09916247947
-0.08342335476
-0.07508561813
-0.07920748099
-0.08923111747
-0.07458006357
-0.05384684479
-0.03337838666
-0.03818154806
-0.047724809
-0.0475734174
-0.0327165306
-0.0298594854
-0.01643409891
-0.0147742332
-0.02202636564
-0.02409983049
-0.01045260644
0.00260179254
0.002287123121
-0.0009120399362
-6.820386285e-05
0.006058689075
0.007203161747
0.007704567655
0.007515184755
0.007462621951
0.007545791372
0.01132941405
0.01521994457
0.01651490064
0.01363718499
0.01247126147
0.01232193176
0.01397284319
0.01565964718
0.01626407722
0.01709197168
0.01644411185
0.01619650486
0.01554413739
0.01453725551
0.01470968666
0.0149685067
0.01517842727
0.01410878584
0.01232441176
0.01307831786
0.01247379014
0.01244843488
0.009774797729
0.009788438444
0.007117483717
0.003427871795
-0.005211715739
-0.06042582551
-0.6265384085
-9.566424955
-8.441828932
-8.569443825
-6.320834777
-7.50034619
)


100
(
-1.260588511
-1.075331201
-1.004369844
-1.097039938
-1.080444445
-1.058426356
-1.017901239
-1.049036229
-0.9073357567
-0.9151122312
-0.8967771141
-0.7649782972
-0.7551655824
-0.7781878697
-0.6661846717
-0.5775544877
-0.6101634672
-0.6004632773
-0.5209594471
-0.4573280363
-0.4543144794
-0.4687098971
-0.4238736481
-0.3800552217
-0.3366077933
-0.3223492775