/*--------------------------------*- C++ -*----------------------------------*\
| =========                 |                                                 |
| \\      /  F ield         | OpenFOAM: The Open Source CFD Toolbox           |
|  \\    /   O peration     | Version:  2.3.1                                 |
|   \\  /    A nd           | Web:      www.OpenFOAM.org                      |
|    \\/     M anipulation  |                                                 |
\*---------------------------------------------------------------------------*/
FoamFile
{
    version     2.0;
    format      ascii;
    class       dictionary;
    location    "constant";
    object      PV;
}
// * * * * * * * * * * * * * * * * * * * * * * * * * * * * * * * * * * * * * //

PV_table
100
(

100
(
1.898265891
1.744597676
1.641082122
1.562467495
1.49534515
1.436457841
1.383834855
1.33586851
1.291225724
1.249072697
1.209210314
1.171482411
1.135732828
1.101805402
1.069543971
1.038792373
1.009394446
0.9811940279
0.9540349567
0.9277610702
0.9022258404
0.8773636611
0.8531493826
0.8295581551
0.8065651289
0.7841454542
0.7622742813
0.7409267605
0.7200780419
0.6997032758
0.6797776125
0.6602770582
0.6411889061
0.6225084204
0.6042310327
0.5863521747
0.5688672779
0.5517717741
0.5350610949
0.518730622
0.5027726887
0.4871748727
0.4719243387
0.4570082517
0.4424137765
0.4281280779
0.4141383209
0.4004316703
0.386995291
0.3738163478
0.3608820056
0.3481794473
0.3356995672
0.323441483
0.3114054162
0.2995915885
0.2880002215
0.2766315368
0.2654857559
0.2545631005
0.2438637922
0.2333880525
0.2231361031
0.2131081404
0.2033037794
0.1937220503
0.1843619578
0.1752225065
0.166302701
0.157601546
0.1491180462
0.140851206
0.1328000303
0.1249635237
0.1173406906
0.109930536
0.1027320696
0.0957452431
0.08897201474
0.08241460059
0.07607521668
0.06995607906
0.06405940376
0.05838740683
0.0529423043
0.0477263122
0.04274164659
0.03799052349
0.03347515894
0.02919776898
0.02516056966
0.021365777
0.01781560705
0.01451227584
0.01145799941
0.00865499381
0.006105475066
0.003811659218
0.001775762306
3.682270044e-10
)


100
(
1.916117435
1.764163416
1.662232378
1.584662189
1.518012454
1.459266399
1.408297059
1.359750447
1.316251978
1.273981983
1.234353169
1.197390158
1.161589798
1.128287866
1.096618323
1.065663488
1.036535875
1.009475238
0.9818898824
0.9556647886
0.931043437
0.906360291
0.8819773696
0.8586445697
0.8365870788
0.8138672211
0.7919893591
0.770977515
0.7511568012
0.7303398642
0.7103584015
0.6911627485
0.6727553255
0.6538836574
0.6356171495
0.6179199263
0.6010985677
0.5842264355
0.5672035134
0.5509376796
0.5354244517
0.5202657452
0.5047643599
0.4898961137
0.4755737691
0.461732562
0.4475835315
0.4338671851
0.4206279231
0.407938363
0.3951230271
0.3821992688
0.3698337518
0.3579188401
0.3460612042
0.3341193475
0.322626253
0.3114925661
0.3004654601
0.2895225467
0.2786114433
0.2687321782
0.2587818503
0.2482859015
0.2383710353
0.2294570457
0.2203892959
0.2103993202
0.2019913846
0.1936580428
0.1850408932
0.1764081542
0.168982864
0.1613071224
0.1531230639
0.1459850756
0.1393459038
0.1317711541
0.1251383191
0.1190779982
0.1121885233
0.1064347924
0.1006003494
0.09461651766
0.0896519021
0.08413272648
0.07923016319
0.07458655721
0.06991838217
0.06578287655
0.06165540714
0.05789399907
0.05429407421
0.05100430221
0.04791477487
0.0450997548
0.04251700989
0.04017531546
0.03808525015
0.03613473457
)


100
(
1.93396898
1.783901668
1.683614226
1.607197242
1.540180573
1.482573352
1.431047469
1.384227216
1.340136643
1.299585399
1.259638179
1.223240885
1.187971867
1.15440182
1.123525726
1.093273144
1.063859952
1.036476092
1.010741383
0.9840836537
0.9589157227
0.9351377513
0.911564295
0.8878611149
0.8653305189
0.8438980127
0.8223084256
0.8010153246
0.7806074532
0.7611459433
0.7417183048
0.7221014554
0.7033469193
0.685317748
0.66759672
0.6497154991
0.6324661659
0.6158471442
0.5999511306
0.5838654041
0.5677965045
0.5524770943
0.5377490955
0.523554712
0.5087831025
0.4946719692
0.4810454442
0.4678322174
0.4545291885
0.4414114375
0.428744147
0.4164191037
0.4045939959
0.3921459792
0.3801880008
0.3684376388
0.3577785112
0.3461007062
0.3350693067
0.3241978719
0.3142174064
0.3032116097
0.2935736733
0.284017512
0.274130174
0.2642500451
0.2554909971
0.2469360967
0.2373879017
0.2290580909
0.2208937043
0.2129881513
0.2045869042
0.1970142998
0.1897801392
0.1824082331
0.1747313793
0.1682327788
0.1618150641
0.1549298791
0.1489656551
0.1425457788
0.1372156852
0.1310998791
0.1258542361
0.1208295337
0.1156647184
0.1110248705
0.1065360691
0.1022144483
0.09817546073
0.09436472234
0.09081379341
0.08746396824
0.08438998759
0.08153714822
0.07895661319
0.07660581537
0.07430607013
0.07226946876
)


100
(
1.951820525
1.8037022
1.705211432
1.628491337
1.562765025
1.506348424
1.454394732
1.409083693
1.364665949
1.324297456
1.285422194
1.248513814
1.214764136
1.181081433
1.149710291
1.120716859
1.091840965
1.063987983
1.037889067
1.013393448
0.9876771383
0.9633635174
0.9402703039
0.9179396967
0.8949423928
0.8730855802
0.8521969238
0.8318459088
0.8111094743
0.7912152376
0.772091925
0.7538299191
0.7348669997
0.7164777
0.6988183813
0.6817689026
0.6648018755
0.6479138345
0.6316571451
0.6159715686
0.6009466681
0.5858588836
0.5705972582
0.5559856802
0.5417424564
0.5285578769
0.5143931659
0.500919654
0.4876068605
0.4758129035
0.4626488464
0.4501524021
0.4378203495
0.4267629081
0.4147390119
0.4027689608
0.391204473
0.3812731471
0.370203858
0.3589347192
0.3487232728
0.339115713
0.3285884329
0.3189807483
0.3095988494
0.300348932
0.2908878096
0.2821224254
0.2735842163
0.2652298254
0.2567070201
0.248580715
0.24069615
0.2331109909
0.2258308087
0.2185209329
0.2108676509
0.2045342378
0.1983204185
0.191006005
0.1851091414
0.1793383176
0.1731703902
0.1677539843
0.1623893554
0.1572163162
0.1522202783
0.1474900279
0.1429961224
0.1387405246
0.1346871369
0.1308749136
0.1272913602
0.1239793598
0.1208516606
0.1179768744
0.1153015306
0.1130837387
0.1106015483
0.108404203
)


100
(
1.96967207
1.823044952
1.725718648
1.650186188
1.585648937
1.528884421
1.478226297
1.43231508
1.389796564
1.348780881
1.31158741
1.274435655
1.240169248
1.208315203
1.176600895
1.147108021
1.119705521
1.092248548
1.065700956
1.040650617
1.017032397
0.9925187608
0.968944944
0.9465026576
0.9252189242
0.9031745285
0.8819274386
0.8615708057
0.8420643208
0.8222692775
0.8028430121
0.7841415206
0.7661624081
0.7487989027
0.7305821355
0.7131918947
0.6962493598
0.6806027172
0.6639620148
0.6480788502
0.632699434
0.6179694637
0.6038165983
0.5888192486
0.574374333
0.5606257379
0.5487222086
0.5345335459
0.5211251251
0.5085487323
0.4972437395
0.4844544665
0.4719615379
0.4603437406
0.4494444841
0.4376975714
0.4257876323
0.4154226211
0.4051509877
0.3946132679
0.3838856343
0.3739102605
0.3643066877
0.3546332334
0.3449241855
0.3355958748
0.3264949219
0.3179307153
0.3091441086
0.3006585121
0.2924531597
0.284534512
0.2769433926
0.2690974068
0.2612068753
0.2545137693
0.2479391688
0.2405289009
0.2339538432
0.2277336668
0.2216524027
0.2156779075
0.2096938237
0.2041162265
0.1988003242
0.1935546482
0.1887353993
0.1839974538
0.1795429239
0.175160972
0.1711899884
0.1674208544
0.1637800814
0.1604528973
0.157306639
0.1543986349
0.1517103491
0.1492962934
0.1469134577
0.1445389372
)


100
(
1.987523614
1.842603911
1.746519292
1.672106435
1.60872772
1.55180787
1.502521291
1.456175739
1.414709648
1.373947821
1.336118088
1.300983275
1.266244344
1.234284269
1.204085058
1.174249018
1.14637658
1.120359017
1.094275319
1.068809692
1.0446428
1.021763257
0.9985336204
0.9756365022
0.9538555686
0.9331834374
0.9126173969
0.8919867765
0.8720156107
0.8527194382
0.8341750381
0.8150603386
0.7966985717
0.7789108074
0.7626663033
0.7448113572
0.727794397
0.7109640798
0.6970223636
0.6806629903
0.6651612434
0.6500379367
0.6364771225
0.6225047199
0.6077319717
0.5933198517
0.5810570753
0.5693226904
0.5551368257
0.5420806367
0.5303758274
0.518958918
0.5065888462
0.4946380111
0.4833918833
0.4724633505
0.4611967819
0.4506055041
0.4397847871
0.4292857687
0.4193050969
0.4094171139
0.399209249
0.3894306321
0.3801719592
0.3713272798
0.3623092723
0.3532972475
0.344815799
0.3365301228
0.3286413809
0.3204840953
0.3126263179
0.30499436
0.2980546543
0.2903017222
0.2836823165
0.2769496788
0.270606946
0.2641577932
0.2577264746
0.2516954873
0.2463050371
0.2405500593
0.2352585928
0.2301135128
0.2251357793
0.2204626845
0.2159806516
0.2118065898
0.2077123984
0.2038676867
0.2002860575
0.196917417
0.1937635283
0.1908586196
0.1881935273
0.1856745873
0.1832291601
0.1806736714
)


100
(
2.005375159
1.862329124
1.767534997
1.694294199
1.630657484
1.575119198
1.525790233
1.48054893
1.438547682
1.399757345
1.361375221
1.326401264
1.292955813
1.26054325
1.23061835
1.201994936
1.173797733
1.14733693
1.122496448
1.097715225
1.073134508
1.049757809
1.027543388
1.005635524
0.9833618228
0.9622274705
0.9422235021
0.9222259412
0.9020956277
0.8826118148
0.8640805724
0.8466471618
0.8279233744
0.8099649305
0.7930620537
0.7774777813
0.7599547055
0.7430895228
0.7277036425
0.7140001664
0.6980688817
0.6827748978
0.6685459154
0.6553876943
0.6416471634
0.6267987992
0.6141289858
0.6017047413
0.5900096674
0.5762555661
0.5644006078
0.5526456503
0.5413194223
0.5297843196
0.5179961244
0.5066781882
0.4956650972
0.4851238226
0.4746959474
0.4641204874
0.4538348178
0.4439942303
0.4344916751
0.425460596
0.4157221873
0.4065981851
0.3978574923
0.3890998662
0.380932035
0.3723732716
0.3640452503
0.3561302442
0.3487588317
0.3412309714
0.333815115
0.3269463152
0.3198754251
0.3132473756
0.3064880567
0.3001645049
0.2942682532
0.2882591868
0.282490488
0.2769824582
0.2716370918
0.2665391775
0.2617067128
0.2569641204
0.2524432809
0.2482245132
0.2442164715
0.2403387846
0.2367315836
0.2333541333
0.2301713759
0.2272079583
0.2247625791
0.2221315344
0.2195624353
0.2168084056
)


100
(
2.023226704
1.882271604
1.788797936
1.716061463
1.652999631
1.598799932
1.549149817
1.505402058
1.463012153
1.424358996
1.387298517
1.351738656
1.319280371
1.287449438
1.257092048
1.228942634
1.201818136
1.17503475
1.14979947
1.125910311
1.102366734
1.078572875
1.055943378
1.034361724
1.0137527
0.9920947984
0.9716193282
0.9523360291
0.9327874293
0.9132634687
0.8940593617
0.8773139045
0.8598849035
0.8415606351
0.8238739353
0.80838021
0.7929157129
0.7756554489
0.7592782867
0.7451409922
0.7314968235
0.7160491261
0.7011830801
0.6877549217
0.6747301761
0.6610756301
0.6476688411
0.6352937911
0.6231256666
0.6112212069
0.5990174913
0.5867238066
0.5748478043
0.5632125537
0.5522998398
0.5418706272
0.5304410526
0.5195436969
0.509172898
0.4991082781
0.489399738
0.4792184752
0.4696696033
0.4603958227
0.4511318576
0.442301512
0.4335757439
0.4245835455
0.4158330621
0.4079799283
0.4003695637
0.3923418061
0.3847605907
0.3772495569
0.3699613789
0.3630576502
0.3557877954
0.3492306119
0.3430297402
0.3367316696
0.330498471
0.324579346
0.3188509602
0.313356687
0.3081150502
0.303075408
0.2981534422
0.2935266372
0.2889675957
0.2847911795
0.280813555
0.2769092822
0.2732842289
0.2698607451
0.2666790455
0.263698876
0.261182343
0.2585548688
0.2559262793
0.2529431398
)


100
(
2.041078248
1.902206798
1.809814969
1.737568854
1.67563862
1.62167088
1.572944195
1.528973168
1.488011846
1.44888295
1.413213359
1.377797362
1.344748564
1.314489475
1.284224849
1.255667541
1.229033747
1.203373382
1.177843838
1.153589078
1.130499236
1.108203296
1.085155461
1.063229339
1.042273486
1.022443438
1.001902014
0.9819922782
0.9633633875
0.9442276647
0.9251265447
0.9068293802
0.8910909716
0.873797373
0.8557783296
0.8392274786
0.8241822613
0.8089118377
0.7917543807
0.777111226
0.7630053917
0.7495717279
0.734579926
0.7208507512
0.707595883
0.6947942276
0.6820266481
0.6690509628
0.6564562568
0.6441930307
0.6322812626
0.6209717315
0.6095134624
0.5977161053
0.5862195824
0.5755286821
0.5650525634
0.5550384156
0.544415915
0.5341417835
0.5243288658
0.5144190911
0.5049977926
0.4957544311
0.486378925
0.4773046955
0.4687122031
0.4605148003
0.4521687087
0.4437986349
0.4360440957
0.4280774941
0.4208774748
0.4132736101
0.4056175145
0.3989369911
0.392474498
0.3857724935
0.3791622981
0.372877913
0.366823614
0.3609613419
0.3553643018
0.3498803635
0.3445751939
0.339461736
0.3346390909
0.3299056761
0.3255472551
0.3212648213
0.317138342
0.3133045252
0.3096822522
0.3063304642
0.3031098081
0.3001486079
0.2975673401
0.2950063154
0.2922374215
0.2890778739
)


100
(
2.058929793
1.921804992
1.830479461
1.75935727
1.698592425
1.644434985
1.597152856
1.552863656
1.513056255
1.474016153
1.437825752
1.404536922
1.370995428
1.34015415
1.311797045
1.283059242
1.256064591
1.230787965
1.206498278
1.181975592
1.158587154
1.136217449
1.115176665
1.092867704
1.071607306
1.051242203
1.031903058
1.01274217
0.9933030593
0.9752218966
0.956366786
0.9375334514
0.9210009112
0.9053889443
0.8883359762
0.8706660044
0.8554037069
0.8405297929
0.8253820373
0.8095549989
0.7955048122
0.7816860993
0.7685471805
0.7546937539
0.7408345675
0.7275466022
0.7146261344
0.7023899234
0.6905802765
0.6781183004
0.6661224204
0.6544693219
0.643218898
0.6323185884
0.6215092822
0.6101046049
0.5995941658
0.589328859
0.5791105647
0.569339307
0.5595614958
0.5494710734
0.5397109132
0.5307090172
0.5220463641
0.5132282817
0.5043495967
0.4960834618
0.4877450932
0.4796961229
0.4719507129
0.4638453836
0.456264394
0.4492570436
0.4424279931
0.43527867
0.4283822369
0.4217885628
0.4153822082
0.4091764279
0.4032507328
0.3974664424
0.39168794
0.3861462193
0.3809679394
0.3759371018
0.371103933
0.3666165708
0.3620788637
0.3578289648
0.353779083
0.3498632435
0.3461827672
0.3427930266
0.3393760196
0.3365906758
0.3340324625
0.3313486814
0.3285449759
0.3252126081
)


100
(
2.076781338
1.941566734
1.851384108
1.781383664
1.720832375
1.6675796
1.620631618
1.577209398
1.53701609
1.499682768
1.463113638
1.429561816
1.397957578
1.366623846
1.33769143
1.311018489
1.283736459
1.25810776
1.233924351
1.211002639
1.187338464
1.16472351
1.143069462
1.122667789
1.101690209
1.081015133
1.061209913
1.042333461
1.024347148
1.005520276
0.98789017
0.9691827912
0.9515414613
0.9356704686
0.9202833532
0.9034288515
0.8872514598
0.8721940128
0.8576298626
0.8431588862
0.8285917552
0.8142613295
0.8003589549
0.7868965278
0.7743968972
0.7612956538
0.7481972243
0.7354931319
0.7235531299
0.711959086
0.7007788579
0.6888069645
0.6773757476
0.6663223974
0.655575018
0.6449564267
0.6348170243
0.6240309604
0.6136978011
0.6036290696
0.5941058071
0.5850647504
0.5755826986
0.5659958917
0.5572797097
0.5488458494
0.5400917902
0.5318298912
0.5232216358
0.5148356891
0.507496589
0.5004108691
0.4926140694
0.4853794308
0.4781548336
0.471320103
0.4645467176
0.4580339922
0.4517946499
0.4456643454
0.4395079137
0.4336418274
0.4280047603
0.4226375753
0.4174263788
0.4124831092
0.4075374803
0.4028249945
0.3984293723
0.3942077633
0.3900959178
0.386237093
0.3825856588
0.3790524839
0.3757986436
0.3729605824
0.3702332699
0.3677037268
0.3647954497
0.3613473423
)


100
(
2.094632882
1.961430414
1.872489658
1.803539125
1.743108093
1.691069865
1.643890661
1.601994934
1.561514548
1.524439948
1.488977467
1.455014852
1.423805975
1.393801036
1.364389686
1.337119794
1.312061648
1.286138208
1.261651736
1.238406922
1.216729494
1.193868415
1.171988849
1.151036818
1.131173023
1.111574977
1.091422873
1.07216214
1.053761416
1.036132126
1.018852588
1.001352875
0.9826663445
0.9667930318
0.9510194797
0.9359286961
0.9200622915
0.9047517216
0.8895717645
0.8749195845
0.8610768975
0.8471487338
0.833180414
0.8196817042
0.80658142
0.7941945897
0.7823360202
0.7698050867
0.7571612865
0.7455342389
0.7341288994
0.7230300804
0.7123604278
0.7010374475
0.689881378
0.6790808569
0.6684332761
0.6587793574
0.6492534283
0.6388526966
0.6290134844
0.6197501025
0.6108018217
0.6020364385
0.5930132148
0.5838794981
0.5750568694
0.5670751552
0.5595988144
0.5508306969
0.5433704645
0.5359790499
0.5285602353
0.5213704407
0.5143598349
0.5076405778
0.5010816916
0.4944300365
0.4878772059
0.4816415861
0.4757081059
0.4700568427
0.4645829426
0.4591782887
0.4538120975
0.4488051195
0.4439324
0.439467827
0.4349159254
0.4306608284
0.4266322616
0.4226629256
0.4190008324
0.4155018247
0.4123640771
0.4098830389
0.4068355003
0.4040925433
0.4010990474
0.3974820765
)


100
(
2.112484427
1.981428016
1.89378792
1.824947042
1.765675783
1.714248631
1.667570851
1.625678095
1.58649384
1.549075062
1.514768571
1.481073329
1.449416807
1.42025328
1.39182807
1.364146291
1.338350875
1.3146771
1.290081958
1.266537774
1.244162488
1.223157635
1.201540562
1.180320314
1.160027725
1.140681246
1.122250696
1.102847651
1.084084687
1.066126509
1.048860114
1.032468811
1.015545808
0.9982763549
0.9827042941
0.9672252623
0.9518865305
0.9372896247
0.9218380661
0.9071041205
0.8928352989
0.8793650696
0.8665557298
0.8531473037
0.8398747077
0.8271313317
0.8149476508
0.8031201207
0.7917921498
0.7799954005
0.7685001516
0.7569069448
0.7455940181
0.7347434079
0.725039065
0.7139979615
0.7032189216
0.6930659741
0.683452592
0.6740966587
0.665140326
0.6553630937
0.64575515
0.6364057339
0.6279183513
0.620128414
0.610871305
0.6025173243
0.5947541525
0.5871946881
0.5794380481
0.571802151
0.5643886502
0.557247007
0.5502446599
0.5433644879
0.5367217668
0.530439585
0.5241455318
0.5181458748
0.5123944677
0.5064490105
0.5007127922
0.4952736846
0.4903442661
0.4855030246
0.4804580211
0.4757484079
0.4714193273
0.467246998
0.4632029764
0.4593063432
0.4556581449
0.4522982089
0.4490650434
0.446442692
0.4439277199
0.4404917424
0.4374053756
0.4336168107
)


100
(
2.130335972
2.001348815
1.914614936
1.84665056
1.788508195
1.737008102
1.691632052
1.649516314
1.611510547
1.574244985
1.539569753
1.507657398
1.475685124
1.446098245
1.418817213
1.391899843
1.365727947
1.341208156
1.318693542
1.295390401
1.272626355
1.2510324
1.230637513
1.210308955
1.189694533
1.170019654
1.151210253
1.133196918
1.115317329
1.096968166
1.079456055
1.062593937
1.046405892
1.030902972
1.014433127
0.9985186514
0.9831116706
0.9682064393
0.9543172756
0.9402487056
0.9257206094
0.9117146132
0.8986039369
0.8859347164
0.8737265532
0.8609308037
0.8484911692
0.8365958695
0.8250227031
0.8134236031
0.8026096577
0.7912383108
0.7798448831
0.7686606583
0.7583631781
0.748474033
0.7390321478
0.7281802919
0.7185884647
0.7091030309
0.6992036643
0.6903101432
0.6814792723
0.6718579831
0.6628232972
0.6547780645
0.6469825598
0.6390118558
0.630719397
0.6227282449
0.615040691
0.6076038095
0.6002538896
0.5932136752
0.5863566301
0.579630572
0.5732339793
0.5667284516
0.5605439212
0.5542996303
0.5482196801
0.5425972117
0.5372612492
0.5322451793
0.5266999345
0.5214123168
0.5169003573
0.5123809846
0.507989054
0.5036462579
0.4994846317
0.4955975425
0.4919615664
0.4881441048
0.4853638399
0.482819853
0.4801527532
0.4768840148
0.4737443779
0.4697515449
)


100
(
2.148187516
2.021148857
1.935505921
1.868547312
1.811052386
1.760113114
1.715314442
1.673784599
1.635488903
1.599909442
1.564945386
1.532661479
1.502551381
1.472649293
1.44488669
1.419300489
1.393820734
1.368951141
1.345599868
1.323949787
1.301912874
1.279843332
1.258972738
1.23914628
1.220159079
1.200115477
1.181033133
1.162737261
1.145143908
1.12832946
1.110899419
1.093816209
1.077151636
1.061067891
1.045743917
1.030886876
1.015221779
1.000177637
0.9856374595
0.9720008667
0.9589327381
0.9453071312
0.931459578
0.9186798077
0.906266172
0.8942392988
0.882688946
0.8705653193
0.8585369814
0.846920767
0.8355652585
0.8250013622
0.8149490468
0.8035654622
0.7925575067
0.7826725209
0.7729111073
0.7635467268
0.7540995219
0.7438229689
0.7340329009
0.7244245255
0.7161809309
0.708252278
0.6986235901
0.6904038858
0.6822346335
0.6741105751
0.6663326093
0.6585627375
0.6510862603
0.6439011371
0.636875626
0.6295132259
0.6224214863
0.6155639056
0.6089738716
0.6027306946
0.5966669205
0.590738833
0.5851369814
0.5791563035
0.5736152246
0.5679813294
0.5630762414
0.558487745
0.5534218844
0.5486769137
0.5442086305
0.5401001253
0.5359809587
0.5321646818
0.5279973193
0.5248925899
0.5222835441
0.5192207365
0.5163691779
0.5132923739
0.5100025126
0.5058862791
)


100
(
2.166039061
2.041032847
1.956537922
1.890641059
1.833261864
1.783516116
1.738613275
1.698444282
1.659971371
1.624577392
1.590809141
1.558246348
1.528174304
1.499819382
1.471749934
1.445591017
1.421467847
1.397408931
1.373644881
1.351289918
1.330315751
1.309589966
1.288166611
1.267961845
1.248712569
1.230272029
1.211608581
1.193045464
1.1752589
1.158139307
1.141565769
1.125579654
1.108621856
1.092367303
1.076616155
1.061652177
1.047656606
1.032982476
1.018165731
1.003990605
0.9906213367
0.9776918111
0.965331918
0.9522594401
0.9397586944
0.9274039203
0.9152603941
0.9034638733
0.8929079805
0.8811352219
0.8696586722
0.85856666
0.8481954345
0.8380828784
0.8281714461
0.8176643591
0.8076195106
0.797524412
0.7876710746
0.7790534323
0.7696421546
0.759738026
0.7509852898
0.742689294
0.7347412149
0.7264812122
0.7180931241
0.7098920759
0.7019947345
0.6943573595
0.6866675667
0.6792861841
0.6721398101
0.6653155544
0.6585507046
0.6520654915
0.6458846704
0.6393354836
0.6328460883
0.6266281729
0.6208480416
0.6155537653
0.610222916
0.6049351051
0.5994349723
0.5944753074
0.5898275554
0.5852348405
0.5807376414
0.5764158116
0.5725499235
0.5686799581
0.5651375966
0.5613963014
0.5585002148
0.5556590431
0.552645637
0.549701222
0.5463480224
0.5420210133
)


100
(
2.183890606
2.060979779
1.97769702
1.912376497
1.855733049
1.806864385
1.762278703
1.722295285
1.684889671
1.649243353
1.616335653
1.584371666
1.554018219
1.525986295
1.499242638
1.472791855
1.448036086
1.425159162
1.40249778
1.379654572
1.358122273
1.337755133
1.318384134
1.297606387
1.278040624
1.259334621
1.241360245
1.224167921
1.206127352
1.188668125
1.171786294
1.155482798
1.140152707
1.124450393
1.108481761
1.093044692
1.078492917
1.064635747
1.051334312
1.037101605
1.023240404
1.010173616
0.9975624972
0.985305266
0.9733500656
0.9610319011
0.9487299192
0.9368158704
0.9254512373
0.9148661694
0.9046229096
0.8931057192
0.8823651047
0.872179816
0.8622655488
0.8519659746
0.8425569091
0.8323118996
0.8224204581
0.8131275692
0.8044526123
0.796061891
0.7865123275
0.7781307049
0.7694988432
0.7612254124
0.7532349997
0.7452635106
0.7375952525
0.7301294314
0.7229177246
0.7157861818
0.708437117
0.7013776246
0.6945411562
0.6878156718
0.681339029
0.6749907926
0.669191261
0.6635993555
0.6577379963
0.6516682487
0.6458345968
0.6408847045
0.6362775688
0.6313108063
0.626264436
0.6216099858
0.6172163771
0.6128673555
0.6085828659
0.6042275625
0.6009004136
0.5974734414
0.5942508008
0.5920934191
0.5892997436
0.5860857545
0.5826958327
0.5781557475
)


100
(
2.20174215
2.080999023
1.99885596
1.934055447
1.878416657
1.829603462
1.786268476
1.746192813
1.709830767
1.674365594
1.64120262
1.610756102
1.580430502
1.552041086
1.525860739
1.500624538
1.475594633
1.452122831
1.430231302
1.408938336
1.386849411
1.366054325
1.346299515
1.327450866
1.30818718
1.28918277
1.271010199
1.253567855
1.236521533
1.219849923
1.202753481
1.186295159
1.17035686
1.15534052
1.141065432
1.125491915
1.110333215
1.096183093
1.082590567
1.069449884
1.056929399
1.043601721
1.030547415
1.017773849
1.005340763
0.9938400215
0.9833081416
0.9709869859
0.9591577331
0.9481843122
0.9377082426
0.9275469943
0.9176546448
0.9068792302
0.8962902716
0.885968506
0.8763526215
0.8676758152
0.8578174887
0.8479584505
0.839167795
0.8305714422
0.8221013167
0.8135529075
0.805183739
0.7968328951
0.7887714198
0.7810294631
0.7731520325
0.765509233
0.7581177527
0.7510330815
0.7440698528
0.7373425644
0.7308395232
0.7245450427
0.7177267954
0.711201084
0.7049383533
0.6991764706
0.6935795933
0.688279094
0.6827459812
0.6772549478
0.6721084854
0.6672858925
0.6626501714
0.6579468364
0.6535904988
0.6494146333
0.6451406027
0.6411184471
0.6372582595
0.6340642487
0.6316492847
0.6285182968
0.6257579833
0.6224363225
0.6189779034
0.6142904817
)


100
(
2.219593695
2.100851645
2.019789664
1.955885125
1.9011846
1.852643716
1.810034853
1.770456491
1.733955147
1.699915635
1.666610006
1.635764552
1.607367408
1.578769863
1.552109926
1.527539995
1.503788156
1.479997076
1.457627059
1.43656602
1.416559903
1.395210446
1.375119766
1.355946724
1.33759097
1.319923182
1.301426727
1.283526233
1.266298533
1.249635973
1.234348639
1.217807935
1.201702376
1.186095874
1.171455524
1.157348841
1.143476896
1.128504709
1.114783776
1.101543029
1.088773378
1.076004215
1.064158838
1.051109784
1.038620709
1.026369014
1.015341315
1.004725406
0.9942225731
0.9823339038
0.9717997067
0.9616458384
0.9508949624
0.9410376352
0.9313867877
0.9207917746
0.9104711581
0.901483413
0.8926905606
0.8840139791
0.8746985316
0.8657038069
0.8569687802
0.8485402986
0.8403154028
0.8320899277
0.8241591199
0.8164954522
0.8090634269
0.8016865196
0.7942862061
0.7870540713
0.780070568
0.773116666
0.7663450817
0.7598806181
0.7536594289
0.7476440065
0.7418748963
0.7357366116
0.7297709535
0.7241084433
0.7188421474
0.7138283611
0.7086526223
0.7035293245
0.6988325576
0.6944084594
0.6899602638
0.6857742006
0.6818873114
0.6777516901
0.6741896537
0.6707382879
0.6681085136
0.6649919329
0.6621523562
0.6588014281
0.6552772032
0.6504252159
)


100
(
2.23744524
2.120724426
2.040836367
1.977837239
1.923420414
1.875922269
1.833348111
1.795052633
1.758459202
1.724521811
1.692480206
1.661468608
1.632702025
1.606041459
1.579179064
1.554044549
1.53086343
1.5085748
1.485869687
1.464366945
1.443975244
1.42462652
1.404730433
1.38528112
1.366689475
1.348860896
1.331509398
1.314280333
1.296828408
1.280023165
1.26384088
1.248798415
1.233816193
1.21797242
1.202744748
1.188444109
1.174598293
1.161287442
1.147775427
1.134372153
1.121036017
1.108161674
1.095660126
1.084373169
1.072710794
1.06027341
1.048330612
1.037608816
1.027071603
1.016967959
1.006837206
0.9955784948
0.9848029645
0.9741452294
0.9650334499
0.9564606219
0.9459897028
0.9361530466
0.9272715218
0.9185245049
0.9097074335
0.9010401337
0.8925875182
0.8843685702
0.8760751493
0.8681047143
0.8599630183
0.8520779968
0.8444369837
0.8370670952
0.8298152867
0.8228388945
0.8161030888
0.8094924912
0.8029048485
0.7962281411
0.7898856452
0.7835688537
0.7774119621
0.7716668576
0.7665374924
0.7610823481
0.755516668
0.7502829717
0.7453675632
0.7405863433
0.7355442177
0.7308473974
0.7264376841
0.7220943251
0.7179127047
0.7139685626
0.7100059438
0.7068378902
0.7047616495
0.7015338436
0.6984814987
0.695264695
0.6916314386
0.6865599501
)


100
(
2.255296784
2.140635207
2.061961255
1.999782761
1.945857855
1.899368105
1.856969029
1.818956184
1.783328177
1.749305775
1.717836466
1.687652968
1.658702131
1.631872835
1.606800422
1.581471776
1.557754994
1.535686892
1.514816666
1.492954582
1.472311297
1.452621967
1.433809201
1.415430378
1.396601128
1.378307965
1.360717735
1.343881112
1.328218337
1.311129614
1.294703907
1.278939278
1.264154944
1.249898309
1.235188553
1.22029787
1.206346774
1.192861552
1.179696005
1.166854895
1.154101995
1.141047512
1.128466733
1.116378311
1.105197047
1.094456792
1.08275831
1.07125569
1.060761755
1.050250863
1.039555464
1.030143963
1.019586862
1.008808772
0.9986379
0.9897370678
0.9810021492
0.9721211196
0.9626913319
0.9534322311
0.9444861897
0.9358452753
0.9274008394
0.9190734522
0.911027107
0.9032300645
0.8956113535
0.8881528302
0.8809708654
0.8734085988
0.8661472111
0.8589973856
0.851896717
0.8450109078
0.8384584832
0.8322578732
0.826341036
0.820510254
0.8139612251
0.8076235985
0.8021583492
0.7969764382
0.7918595111
0.7864398623
0.7811523249
0.7764534938
0.7719405486
0.7673353388
0.7630788713
0.7588286404
0.7547544043
0.7509803025
0.7470913068
0.7442814027
0.7412533739
0.7379339989
0.7347634113
0.7316465917
0.7278619149
0.7226946843
)


100
(
2.273148329
2.160579274
2.083152959
2.021516856
1.96843681
1.922182784
1.880846158
1.842884928
1.808097392
1.77448637
1.742871912
1.71370742
1.685210757
1.658104402
1.632986089
1.609464571
1.58548739
1.563004337
1.541915513
1.521891078
1.501354857
1.481415257
1.46236187
1.444127512
1.42650863
1.408524518
1.390745138
1.373622704
1.357280793
1.34209559
1.326421023
1.3102755
1.294895211
1.28042019
1.266402373
1.252969808
1.238902202
1.225125924
1.211527966
1.198369094
1.185967833
1.174687221
1.161977958
1.149562582
1.137860161
1.126865274
1.116207661
1.106002756
1.094925541
1.08386655
1.073152493
1.062739561
1.05365093
1.044397463
1.033431661
1.024061598
1.0152143
1.006269999
0.99740108
0.988568014
0.9799927259
0.971733834
0.9632070235
0.9549674314
0.9467093996
0.9386137168
0.9307680186
0.923226746
0.9158409412
0.9086967469
0.9018708307
0.8950699024
0.8888048139
0.8818717815
0.8749755958
0.8684565373
0.862061671
0.8557382057
0.8501655792
0.8448835693
0.8389707439
0.8332670031
0.827910316
0.822848529
0.8181148913
0.8130436705
0.8082200838
0.8036243308
0.7991106623
0.7949914843
0.7907006854
0.7864159149
0.7828564145
0.7802474955
0.7776410551
0.774511716
0.7714310743
0.7679866325
0.7643116025
0.7588294185
)


100
(
2.290999874
2.180458248
2.104146782
2.043362075
1.991136324
1.945213439
1.904679727
1.867108386
1.832289753
1.800017762
1.768380277
1.738937306
1.711817776
1.684956231
1.659493885
1.635877946
1.613805565
1.59108608
1.569673478
1.549413594
1.53005683
1.510919664
1.491656761
1.473124898
1.455160513
1.438032263
1.421545181
1.40421
1.387521932
1.371630658
1.356683511
1.342338029
1.326786584
1.311762776
1.29762985
1.283981347
1.270646733
1.257962803
1.244167333
1.230918337
1.218016661
1.206038572
1.194790022
1.183844466
1.171496159
1.160203251
1.149522093
1.138718611
1.127855135
1.118548998
1.107526112
1.096887622
1.086981103
1.07782577
1.06898697
1.059277771
1.050014068
1.040695569
1.031697388
1.023028065
1.014435749
1.005968951
0.9977980273
0.9898854651
0.982178979
0.974586233
0.9672533509
0.9594979309
0.9520285438
0.9446778113
0.9373814982
0.9303028614
0.923510958
0.917276038
0.9112430526
0.9053033174
0.8990285846
0.8923648726
0.8860630739
0.8804545536
0.8750908082
0.8699550011
0.8644194687
0.859213747
0.8544372642
0.8498872472
0.8450942349
0.8406339216
0.8362728985
0.831996766
0.8280406381
0.8243243158
0.8204195197
0.8175226763
0.8144468906
0.8110032267
0.8077657691
0.8043341403
0.8006676677
0.7949641527
)


100
(
2.308851418
2.200251295
2.125178229
2.065279986
2.013551602
1.968398331
1.928081993