/*--------------------------------*- C++ -*----------------------------------*\
| =========                 |                                                 |
| \\      /  F ield         | OpenFOAM: The Open Source CFD Toolbox           |
|  \\    /   O peration     | Version:  2.3.1                                 |
|   \\  /    A nd           | Web:      www.OpenFOAM.org                      |
|    \\/     M anipulation  |                                                 |
\*---------------------------------------------------------------------------*/
FoamFile
{
    version     2.0;
    format      ascii;
    class       dictionary;
    location    "constant";
    object      rC2H6;
}
// * * * * * * * * * * * * * * * * * * * * * * * * * * * * * * * * * * * * * //

rC2H6_table
100
(

100
(
1.094271453
2.724008719
4.373942372
5.78239044
7.002182567
7.958744536
8.715056595
9.282186828
9.704930325
9.978608454
10.17444108
10.20047148
10.16571181
10.06794799
9.892971194
9.677602321
9.428765471
9.143521286
8.836892166
8.515796259
8.194135582
7.866274505
7.531858597
7.196109245
6.863532986
6.528536098
6.193493749
5.872815248
5.568817947
5.265685454
4.965316294
4.682979113
4.411764519
4.144336912
3.881823867
3.632153582
3.400605004
3.172954882
2.950507278
2.741725715
2.553108175
2.369061506
2.190245872
2.022062867
1.868167431
1.719356899
1.576130528
1.439726679
1.321557453
1.207546237
1.098287732
0.9965234366
0.9086063668
0.8243016584
0.7439853687
0.6707527445
0.6045210328
0.542741447
0.4870454687
0.4366748274
0.3891185618
0.3464824596
0.3083828237
0.272790187
0.2395667988
0.2102555056
0.18439111
0.1601530214
0.1384370044
0.1197577518
0.1030085394
0.08744817356
0.07435599931
0.06312688944
0.05244959899
0.0437066544
0.03640727079
0.02943200644
0.02404409278
0.01933022671
0.01529625009
0.01229179547
0.009430035591
0.007421496255
0.00560156111
0.00432134052
0.003195524871
0.002404091603
0.001739405514
0.001222925876
0.0008368579244
0.0005575582248
0.0003657563287
0.0002254782881
0.000136500893
7.999191148e-05
5.200988911e-05
3.111962269e-05
1.155274819e-05
1.6033784e-14
)


100
(
0.9870885616
2.438948175
3.95891522
5.272898995
6.445042761
7.413419421
8.09929382
8.72209802
9.115157801
9.443043335
9.656083493
9.711236736
9.718200759
9.622984196
9.462559758
9.288960759
9.058374743
8.760521443
8.501539965
8.209628326
7.879752013
7.572796747
7.274114728
6.958272794
6.622604452
6.327295154
6.022152395
5.710516682
5.395697955
5.122757905
4.849056468
4.576345517
4.308235381
4.065868759
3.824740753
3.586705336
3.354327363
3.139375047
2.93822125
2.741827037
2.553739134
2.378305104
2.215135726
2.055498494
1.90143387
1.757196923
1.623888074
1.495972945
1.374510951
1.26378485
1.165789109
1.076938776
0.9914510805
0.9095853198
0.8341504411
0.7618195169
0.6941044487
0.6401952857
0.6204691631
0.674998064
0.7922032436
0.7066277624
0.5396556171
0.5233722643
0.5900374395
0.5194876081
0.4082318936
0.4344734631
0.4517424994
0.371628663
0.3186932753
0.3472650225
0.3189693742
0.262876958
0.3500091559
0.4033743663
0.2468419641
0.2804490548
0.3133561689
0.185341456
0.2441775212
0.2002414448
0.166847011
0.2308148138
0.1390712309
0.1690033862
0.1818637196
0.1318696519
0.1842741953
0.1368606967
0.1614733444
0.1507173014
0.1934003024
0.191447923
0.237486069
0.2209495717
0.2354225991
0.2170975334
0.07919404219
0.01883318329
)


100
(
0.8848381822
2.166388962
3.551344614
4.762838878
5.915717224
6.826362617
7.548878615
8.103042579
8.546592968
8.822115512
9.0800173
9.154248914
9.178283902
9.131977583
8.976317038
8.808709866
8.624080666
8.376404042
8.087753088
7.84557864
7.568499871
7.265610763
6.975650571
6.703143897
6.413730844
6.115739309
5.839964975
5.568336371
5.287871788
5.007165205
4.74760897
4.507506168
4.269846037
4.037375348
3.816843243
3.605793819
3.392854658
3.183092368
2.988837178
2.814409771
2.652095767
2.498154012
2.35618399
2.230223466
2.098499416
1.960786268
1.82854564
1.712376185
1.59841935
1.483058933
1.385453955
1.321769623
1.298906449
1.25968382
1.223713496
1.192257161
1.186750337
1.147356367
1.125620667
1.152465625
1.324817201
1.546751846
1.532874035
1.347762952
1.237025199
1.25186096
1.196649248
1.101464958
1.049065135
1.001823521
0.9195145618
0.8409175977
0.7976560399
0.7401861031
0.7420868085
0.9507473329
1.257958547
1.143312198
1.057772231
1.054132082
1.002943543
1.211172695
1.015166163
1.380457385
1.320566536
1.208501519
1.385478043
1.338065652
1.384655955
1.612226673
1.825843422
1.986915072
2.244266628
2.971304282
2.916086546
3.1312166
3.419626672
2.230761283
0.8958621558
0.3004475878
)


100
(
0.787722142
1.917503068
3.160982638
4.324264099
5.387327795
6.225345374
6.974418158
7.468974938
7.945229846
8.239922261
8.47271085
8.614432855
8.610175397
8.61076074
8.517560018
8.342451554
8.176814956
7.986818045
7.750870919
7.4856399
7.264857063
7.0161484
6.750239542
6.486423053
6.244698441
5.990361812
5.738029885
5.502681285
5.27626991
5.033090522
4.786892623
4.566857591
4.37314069
4.187120002
4.008952361
3.849862555
3.6998087
3.53228698
3.360882981
3.208304041
3.101867747
3.023999591
2.948401783
2.903123035
2.881594986
2.910507044
2.872586212
2.840623154
2.806967218
2.84832004
2.802721332
2.777272485
2.747304909
2.76368519
2.708280676
2.643219074
2.585174871
2.590643501
2.524500256
2.429988376
2.386285293
2.444286031
2.53947715
2.496522588
2.340787371
2.185006332
2.085882395
1.994762556
1.956401355
2.046817986
2.186712203
2.387204771
2.684014419
3.05146417
2.976856154
3.239490511
4.350740421
3.952165513
3.539578481
4.755850501
4.66302839
4.453935323
5.052827852
4.906665572
4.94316608
5.437872859
6.12929901
7.009639537
7.619333354
8.970371148
10.43695034
11.60526257
13.5340369
14.4294043
16.60612768
18.91628877
19.70092532
10.65010586
4.736714563
1.918098507
)


100
(
0.6959158712
1.709247086
2.832936515
3.896595506
4.863807805
5.703591475
6.392764967
6.926059901
7.335858584
7.683157682
7.874183757
8.061896891
8.126385989
8.094794154
8.060717463
7.949462958
7.782957818
7.629576974
7.456827279
7.253925939
7.03937444
6.852634461
6.652804367
6.443017724
6.242887272
6.053520022
5.860419388
5.687021485
5.554076021
5.421990124
5.259663021
5.090362848
4.958952933
4.899646471
4.810160692
4.748025935
4.720314898
4.791015714
4.774605191
4.771611725
4.78072885
4.817151813
4.882630113
4.851804618
4.840031252
4.872402183
5.024682598
4.966496075
4.920454924
4.911382371
4.978998008
4.919668274
4.85433545
4.810840593
4.779619626
4.677877754
4.564164798
4.548370046
4.538697692
4.472985532
4.327163161
4.225530461
4.259811732
4.452208819
4.689322302
4.969971179
5.244226395
5.464297042
5.676641216
5.950463463
6.180189719
6.393809913
6.957030967
8.549455199
10.52110695
10.08597613
9.754047428
11.20104552
11.56765556
11.6360328
12.02620343
12.72382856
14.87711437
17.21302509
18.94307777
20.58600168
22.09818679
25.34598266
29.74150336
37.62007989
39.46462879
43.45105555
50.92354288
57.45324094
66.72241551
76.67637023
74.49502907
36.33778996
17.3546503
7.632499896
)


100
(
0.6095479054
1.512717802
2.521570255
3.485078289
4.365131623
5.191863196
5.819137226
6.381746422
6.768583961
7.127582118
7.375956012
7.524450949
7.650753866
7.674518341
7.64018515
7.595277101
7.499916758
7.378038976
7.269721242
7.150815437
7.019121265
6.902208203
6.807158825
6.707006653
6.611825022
6.549015052
6.500303934
6.44030972
6.417275422
6.45508986
6.549122204
6.556433299
6.565194438
6.599844658
6.7753787
6.775002451
6.801815281
6.840788972
7.155688206
7.198166899
7.259246032
7.312999648
7.485867748
7.558749315
7.504856648
7.457031242
7.595907396
7.752588463
7.63163872
7.547118995
7.556662097
7.596201556
7.551669442
7.508911328
7.483181121
7.471280544
7.456017078
7.661495637
8.08162059
8.666185338
9.292568132
9.809370786
10.19923449
10.62024294
11.01096492
11.39179766
11.78792992
12.14850226
12.40575678
12.67674082
13.2816894
14.46174964
16.07847937
17.94243503
20.03883382
22.84015662
23.30017538
24.21151331
26.05143532
29.93276663
34.4283078
38.74242725
42.68598994
46.92809976
53.09774702
61.52773673
68.23569119
76.76421823
95.04901285
105.5545759
115.7385203
136.9542199
153.7171612
178.3621251
205.0187693
231.7757565
195.4915366
102.6481973
51.99867491
22.99524457
)


100
(
0.5410001036
1.331334263
2.22956517
3.093007986
3.939779373
4.694062928
5.320107697
5.847210909
6.273905928
6.589944415
6.889155152
7.075883308
7.21034309
7.305624527
7.329666678
7.32598112
7.316929675
7.29342203
7.281236702
7.285638829
7.284832673
7.294720872
7.35358096
7.457512172
7.53174348
7.644174594
7.819868509
7.967988305
8.064572612
8.201539456
8.438154285
8.764804489
8.889474442
9.019559575
9.233934154
9.561129894
9.589929155
9.63342715
9.830220866
10.19904003
10.24402091
10.2798406
10.38174878
10.55639293
10.60777709
10.5004773
10.59556562
10.73991867
10.97917606
10.93902792
11.05434586
11.21311635
11.57876628
12.1428643
12.77316716
13.52270743
14.30748281
15.10707576
15.89037265
16.68661662
17.55633739
18.35829041
19.11239867
20.0437631
20.78362389
21.4935381
22.50523609
24.32977866
26.97583651
29.50095688
32.07905352
34.64390346
37.24393971
39.95942051
42.61932274
46.11040172
51.90316641
59.03035478
66.76212732
74.47456637
82.1598188
90.76047309
103.7847061
119.6052734
134.802877
150.6160722
170.5349872
192.285358
220.8160465
248.2959269
271.4604575
300.0550175
335.3617122
376.0743254
422.8837558
468.3913553
384.5278933
239.0359077
136.9885342
57.02762176
)


100
(
0.4839173383
1.165034058
1.957293059
2.746972692
3.532509629
4.214703726
4.846435213
5.329866687
5.788563442
6.132058103
6.425760416
6.6760973
6.849411184
7.002732284
7.119112097
7.203086896
7.288717973
7.389303123
7.528476037
7.706903149
7.924982119
8.118059441
8.350843431
8.656026028
9.054950816
9.323652031
9.645086154
10.03503223
10.32522038
10.55168705
10.79335925
11.32581303
11.71237771
11.88054746
12.04373275
12.4599824
12.80158138
12.82033946
12.88531422
13.22074665
13.59778615
13.65895973
13.69775924
13.88363102
14.12280352
14.29892575
14.503371
14.92846601
15.56851884
16.51124193
17.57631592
18.60234319
19.73259013
20.92660002
22.30075806
23.77463711
24.85374575
25.96621186
27.04891024
28.15844105
29.57453537
30.89535385
32.46935596
34.65597082
38.04209095
42.30779824
46.57046479
50.62543384
54.90253644
59.69185765
65.00495455
70.2032776
75.86290291
83.65588258
93.86822553
104.9351981
115.9973722
128.0895688
141.4288329
155.5002832
174.2802923
195.2099152
216.6509725
238.7363929
263.3313202
291.5934373
320.143089
347.7241393
379.3315001
412.8263429
446.7741353
486.9845064
531.0599937
582.7236273
644.3251835
698.0270332
570.9243919
416.7975915
284.3266343
119.8788935
)


100
(
0.4297844583
1.019052159
1.718300412
2.436479624
3.1445256
3.793863579
4.386182291
4.885659811
5.317956774
5.706638722
6.012819147
6.31211053
6.569447821
6.798136437
7.023225834
7.234662479
7.458539204
7.702157196
8.038050692
8.408028034
8.853432849
9.374794334
9.79472373
10.26428711
10.7950632
11.42235561
11.9036422
12.3742286
12.90572111
13.27086661
13.56997394
13.95331598
14.66551807
15.06658747
15.24081675
15.53791168
16.0120176
16.37269238
16.38453241
16.69267029
17.11561814
17.67710895
17.94936071
18.40586691
18.99356286
19.87986738
21.10789407
22.45762802
24.05279963
25.85805034
27.77113419
29.86517055
31.77364956
33.46185542
35.18987662
37.09787266
39.11945315
41.56799504
43.76263583
46.05568538
49.0647986
53.35748363
59.01117205
65.16757433
71.56505384
78.49865968
85.83023816
93.71125977
101.877452
110.3734924
121.2394776
135.1566995
151.5244414
166.7879345
181.7585444
198.6994279
216.8262428
235.0011289
256.7119559
279.8304072
303.1373727
325.9959507
349.5361053
378.6004548
407.7670433
437.9491144
467.9019933
506.2089203
539.4902606
575.5712092
618.8062587
667.624194
727.4992226
795.4451498
866.1584281
922.4741741
750.5313891
587.3820392
446.4427342
215.8493367
)


100
(
0.3786909003
0.8950540236
1.509579914
2.147410611
2.778554161
3.404452092
3.943550357
4.456406448
4.880464308
5.298474683
5.667749248
6.002399828
6.348302226
6.689387329
7.064066194
7.433523905
7.833426586
8.303250536
8.877935203
9.431501161
10.05102949
10.75224524
11.57914993
12.19736137
12.85129913
13.54132552
14.30303518
15.00785246
15.57165844
16.18810152
16.58478347
16.91971315
17.57306544
18.34424728
18.77840914
18.9884503
19.53014435
20.14494375
20.70618953
21.11131589
21.90699089
22.94434633
24.40811869
25.96959786
27.571699
29.41205742
31.48444906
33.97436458
36.7583133
39.20330677
41.86297407
44.57163435
47.34988675
50.35745155
53.63077128
56.6491171
60.46846022
65.28327675
71.60228758
79.49833632
87.73644118
95.59474337
104.1379671
114.0957042
125.2621918
136.6581329
148.0695576
161.2616711
176.7729321
195.4218483
215.3937169
234.4045436
254.0969157
274.5503058
294.9086216
314.4954311
337.1784789
360.8048918
383.9374734
406.5808034
430.236286
458.3676348
487.8061729
518.7280173
550.113065
586.3333697
627.3992931
668.2375027
710.5479101
759.9003756
813.5709249
879.6310649
946.8973396
1032.088796
1117.102615
1156.152277
933.022566
760.4067796
603.6982818
338.0008468
)


100
(
0.3307079466
0.7821385785
1.319180312
1.878992172
2.461154554
3.033606708
3.550616193
4.041110205
4.496617987
4.917980644
5.34775227
5.767114904
6.20385453
6.664174066
7.180137303
7.796979952
8.38786615
9.047522695
9.819915938
10.71596065
11.49735105
12.33668736
13.23954391
14.24921657
15.10220782
15.88686752
16.68673427
17.54134925
18.4400152
19.1089275
19.78770692
20.23576287
20.78402719
21.66068079
22.62735359
23.26022417
23.9709528
24.97497203
26.27625125
27.82862321
29.57689019
31.65409629
34.1060815
36.91679295
40.35498818
43.44595777
46.424543
49.55984008
53.08335401
56.955328
61.38563475
65.28076745
69.71606133
74.84032979
80.95228437
88.67279558
98.74311765
108.5521787
119.6157502
131.6815654
145.1686782
159.7871367
173.4067741
186.6518328
202.1050945
219.3872671
238.7237978
259.6878485
279.3068464
299.4202596
322.011959
344.6146357
364.2406323
385.5777152
409.6661574
434.789318
458.7778906
482.6811177
507.9202164
536.5164305
568.3904868
601.9749942
635.0311054
668.4556818
712.0305787
755.3839231
802.3938147
850.2781386
905.018269
963.2614929
1032.355274
1108.823369
1198.958767
1301.452665
1402.24623
1382.869875
1117.790286
938.4241954
766.6469868
477.2443042
)


100
(
0.2916019214
0.6805523078
1.146219587
1.635988942
2.171206525
2.684069526
3.189835064
3.647896144
4.125314949
4.587744622
5.062803724
5.566730812
6.119560909
6.729619979
7.389381569
8.160026822
9.077646198
9.92283581
10.85140751
11.88583694
13.06730491
14.03681024
15.04186211
16.09710288
17.23576922
18.32167885
19.21500634
20.12280542
21.08001218
22.09707324
23.09941548
23.9320885
24.35719433
25.6446335
27.02647892
28.73656418
30.37653036
32.33093779
34.58529937
37.29750069
40.7076216
44.23792222
47.81923764
51.76936014
55.99922243
60.78218346
66.04447477
70.82705333
75.49028881
81.15910904
87.61295889
95.33465928
104.9237956
115.2975088
126.7722481
139.7313947
153.9300804
171.237163
189.3744804
204.9225331
221.3940335
239.438265
258.4251064
278.6803499
299.3475237
319.2200314
339.3962808
361.3818153
383.5994822
401.7730069
422.7503421
445.8168686
472.0194884
498.6145078
525.1712753
552.7978864
581.6455343
611.5023024
645.8480094
681.896108
717.9234817
755.3038425
797.7833076
843.6749443
892.3231605
940.9204911
1000.514243
1059.851624
1122.19605
1198.980423
1280.341771
1374.054826
1481.421414
1598.198661
1712.025538
1603.076079
1308.482197
1126.614242
938.455973
630.8961563
)


100
(
0.261040462
0.5901157827
0.9908340741
1.430643889
1.903113561
2.37191061
2.847596413
3.305632457
3.77359503
4.278331572
4.81761717
5.401008232
6.05820118
6.825416443
7.667599979
8.575461674
9.617658519
10.82131428
11.91692276
13.06706409
14.30762471
15.65918876
16.84791695
17.98743811
19.17271203
20.43152729
21.75231248
22.83516836
23.92234889
25.10779655
26.43279934
27.99938119
29.50946235
31.03069263
33.25493344
35.91935354
39.0377838
42.84046083
46.29714163
50.20812536
54.55012712
59.63399363
65.4936314
70.92221719
76.46290926
82.61301992
89.62201554
97.58615335
107.029112
116.7540259
127.6683799
140.1865612
154.5143987
171.3249042
191.7863403
209.1228454
226.5906568
245.6164333
266.0834569
287.2386224
308.7524185
328.0565919
348.1371041
368.7989728
391.5526398
415.0846933
433.7812256
453.6676174
475.2275895
498.7678379
525.4524523
553.0049974
581.7460464
611.5730859
641.6399102
673.0770929
711.4023445
753.1100818
793.1227525
832.7893498
875.2015285
923.6269973
975.6173974
1027.444355
1081.298417
1146.706001
1213.718127
1279.437216
1361.954369
1453.452955
1552.098667
1654.296432
1774.275896
1906.082994
2014.739606
1818.42383
1526.525803
1328.425296
1126.271852
792.1770002
)


100
(
0.2320700645
0.5126730313
0.859961377
1.24448142
1.657120099
2.09506399
2.527369154
2.983488373
3.45235505
3.982232946
4.58109391
5.26935467
6.016291526
6.887601042
7.911727148
8.998715155
10.14967406
11.4292034
12.86646432
14.18744857
15.50792616
16.90920387
18.40296933
19.82505733
21.10824682
22.45550168
23.89859492
25.46407408
27.06836874
28.59422163
30.36861529
32.47777032
35.0710959
38.3705275
41.63926611
45.37824632
49.71122294
54.64670487
60.64751959
66.6932769
72.32813899
78.41530409
85.53220794
93.5891535
102.8369217
111.7811903
121.7387933
133.544017
147.2854145
163.0602868
182.0956479
200.4535499
218.6603673
237.7676945
259.4242599
282.3450696
305.4002928
323.7351713
344.1934601
365.0578445
386.0023614
409.2863801
432.1889192
452.3130045
473.0770241
496.1457102
520.2200756
544.5356385
571.1483335
599.9071399
630.4909056
661.8347353
693.1156668
726.0461648
762.5537816
804.8320483
849.5609654
895.0248726
940.818251
986.6293352
1041.325321
1098.607433
1155.35006
1215.289414
1284.185428
1356.252001
1427.377643
1511.709409
1610.469729
1707.388797
1818.358906
1934.782679
2075.095919
2214.152199
2297.036099
2046.093423
1761.497399
1555.493454
1339.379457
981.5572418
)


100
(
0.2047258323
0.4462522876
0.7447698563
1.076905932
1.441851193
1.838502298
2.24129112
2.67791026
3.160009767
3.70711659
4.345443858
5.102944941
5.984156971
6.937248133
8.041956884
9.320231326
10.63262135
11.99070101
13.46866073
15.0838427
16.61711651
18.08671734
19.64191553
21.29374679
23.02552804
24.54241139
26.19253869
28.04326898
30.17358217
32.72162731
35.36622521
38.34910176
41.92605212
46.20566531
51.43452911
57.4452519
63.12358766
69.3982909
76.31162122
84.48070401
93.66299523
102.5044198
111.2375612
121.7990601
133.8879268
147.9431468
164.480924
181.7631763
199.9569592
219.8542125
240.9165908
264.8664599
289.4736023
308.84914
328.2913122
349.9596764
371.6095959
393.7287106
416.6461317
437.0282971
458.0604556
479.66989
504.8004092
530.4439802
551.9117364
576.9844292
604.8573897
635.8926392
668.7780245
701.4682656
734.9064394
770.083789
807.2667885
847.4006762
891.1976714
937.539276
985.0550434
1034.595081
1088.508874
1148.929621
1210.866495
1271.875434
1334.157251
1407.707579
1485.537008
1563.632329
1645.891517
1738.651629
1838.080595
1950.863301
2069.393858
2201.578204
2351.459136
2502.629106
2561.94233
2282.95182
2006.717405
1796.618184
1573.743349
1171.372226
)


100
(
0.1790379854
0.3873239547
0.6429310673
0.9272712137
1.254237879
1.602852157
1.983854962
2.393675104
2.876419276
3.445594601
4.121047865
4.920634573
5.875458211
6.967597837
8.132620015
9.454032081
10.95195304
12.46799821
13.99919974
15.64623611
17.41798
19.1847736
20.82740433
22.59036817
24.49925622
26.59980447
28.76260488
31.07059414
33.80022464
37.06433984
41.03385235
45.92096637
50.72493699
56.23460287
62.51974822
69.94112438
78.80208836
87.42971888
96.02137855
105.5891373
116.8017506
129.500614
144.1352897
158.5325945
174.6979511
192.7426575
212.7271779
234.8744534
261.2993588
283.3808053
305.0087132
326.7632502
349.6348351
371.9015925
393.4661843
412.8237787
433.6688111
455.2624426
477.6241128
503.9150038
527.4245122
549.0774023
573.7268317
600.586285
629.7645837
661.8435851
694.7793694
728.8447412
764.3706431
800.6662251
836.8839742
875.5227651
921.3659352
970.2900195
1019.457574
1069.728188
1122.770467
1178.835177
1241.519368
1307.030789
1372.541973
1440.194128
1517.942897
1599.546966
1680.349399
1766.657855
1861.911181
1964.656827
2075.163301
2183.046334
2313.391346
2451.410344
2599.21902
2752.18186
2788.014994
2513.787189
2247.719527
2040.979808
1814.817037
1368.383952
)


100
(
0.1589742463
0.3354059426
0.5530894429
0.7998361087
1.085257462
1.392954056
1.744100137
2.13886931
2.607430025
3.184807905
3.895798785
4.733203634
5.721202362
6.88534417
8.177392556
9.535385281
11.04341976
12.72786996
14.43844563
16.12827508
17.94355532
19.89733538
21.98130458
23.91112647
26.05096134
28.47876768
31.31340146
34.74712932
38.30935828
42.53972381
47.57301568
53.52842148
60.87590907
68.55125861
76.27834916
84.84965199
94.88782146
106.586638
119.8989278
132.4550745
146.0103109
161.9098303
179.8980371
200.1758128
223.2448561
245.8570538
268.3347053
291.5111749
315.8070431
341.5385614
366.1011957
385.2575782
405.0685349
425.7336312
446.9036304
468.6715793
493.3268672
515.8439535
539.0201085
564.0772896
591.2924016
619.4259932
644.7787703
674.8446761
708.2637407
744.3188063
781.6360604
818.8980989
857.2373045
897.5461519
941.2523769
990.3719037
1040.191078
1091.921039
1144.475818
1198.26952
1257.343209
1322.964012
1392.224112
1463.561465
1534.381234
1611.635838
1693.718526
1779.071559
1869.276244
1974.335336
2076.261596
2178.689137
2293.141712
2412.256815
2543.254311
2703.048737
2844.432374
2995.344028
2983.026102
2721.128172
2475.778597
2275.72829
2052.433567
1567.236154
)


100
(
0.1425904405
0.29019183
0.4753203682
0.6891259249
0.934106749
1.211679463
1.524475909
1.900596253
2.357747283
2.929467719
3.648216947
4.536788317
5.542143574
6.717993001
8.078496571
9.549681482
11.07737637
12.75727993
14.60564514
16.52592821
18.3952744
20.434225
22.67471872
25.16652591
27.79000056
30.68122569
34.11855288
38.26557691
43.33367958
49.32362018
55.61351837
62.84449024
71.09860018
81.08040187
92.66878178
103.2962321
114.7830707
128.3989587
144.0671842
161.8826299
182.1691409
201.6531888
222.7511299
245.4550704
269.576527
296.5310907
324.9958184
347.0089456
368.3747241
390.468848
412.5213267
434.3609411
456.1472311
476.6363021
498.1264476
520.8680167
546.4530425
575.2122026
600.226671
624.7124482
653.3546766
683.9280824
717.4373341
753.3068262
790.9242973
828.7482782
867.9421071
908.4333894
949.569728
994.5986144
1045.419048
1098.959934
1153.406463
1208.979117
1267.25337
1331.523442
1397.503659
1465.833029
1535.984794
1609.742784
1691.202767
1779.63608
1866.130573
1952.093296
2052.128788
2156.705151
2263.415312
2376.082279
2493.505954
2617.292218
2747.612555
2896.042853
3049.357953
3185.387005
3154.918555
2897.782732
2674.590767
2491.390663
2277.099292
1753.386535
)


100
(
0.1270549197
0.2521848638
0.4095752649
0.5918670181
0.8014337593
1.048092514
1.329904749
1.678326748
2.120611612
2.686802809
3.392787003
4.27447433
5.340201181
6.508253146
7.853159712
9.38596419
11.0255075
12.71117299
14.5605122
16.58822221
18.77648956
20.92556122
23.34149624
26.11439439
29.3774779
33.28943009
37.50218079
42.54088682
48.57869121
55.79107357
64.96645184
73.86767397
83.63971927
94.61433515
107.8171589
122.8886115
139.3326218
154.7819172
173.1396491
193.8867642
216.893108
241.6185792
269.2990516
293.1583018
317.2363564
341.1509103
366.8075332
391.8136441
414.7185066
433.5065586
454.2507138
475.8161648
497.7697503
522.6744646
548.8028673
572.8517622
597.4659303
626.1881766
656.3058071
687.2085968
717.2939635
751.5290283
788.5120405
827.5084745
867.4526822
907.7176026
949.5871755
993.9634548
1043.049062
1096.561105
1150.793137
1206.180214
1262.786
1321.108773
1385.246021
1454.69716
1527.005265
1600.721375
1676.765988
1756.153703
1842.367832
1930.626715
2020.548571
2118.642014
2220.817462
2324.041395
2436.158394
2554.451042
2679.689985
2794.678804
2928.877507
3066.549343
3205.468159
3339.702839
3279.745341
3039.587497
2843.082671
2678.942056
2480.004317
1926.930224
)


100
(
0.1123820899
0.219179048
0.3523789714
0.5068089308
0.6896369948
0.9020410882
1.15819741
1.476144541
1.894090184
2.442770345
3.139585733
3.994300449
5.035854061
6.258278804
7.576825515
9.071003016
10.75899324
12.57228869
14.42845819
16.48512211
18.74787608
21.29802191
24.03382004
27.1430582
30.87535593
35.42557933
41.02149977
47.55362035
54.708583
63.06406778
72.86691185
84.90228902
98.12924989
111.0424558
125.4972551
142.706142
162.1144073
183.8922448
206.3946902
229.6137419
254.0990142
279.7263742
305.9698047
334.7078275
360.1966723
381.7611625
402.8782388
425.2591439
447.3920023
469.9223501
492.6636428
514.4660475
537.5310644
561.9015671
590.9726362
622.0061985
648.4720247
676.4677764
708.1239729
742.0456277
778.801816
817.5485065
857.957931
899.5227511
941.0087383
983.9977177
1028.26689
1077.831337
1131.406537
1187.001908
1244.018737
1302.734137
1363.970869
1430.687634
1501.77402
1573.117496
1645.510469
1720.628274
1799.716177
1885.80125
1979.071552
2068.942642
2163.043653
2263.625305
2365.74294
2473.824354
2587.901106
2700.434162
2819.044564
2935.787585
3065.633349
3189.193169
3327.229883
3428.737722
3356.505095
3147.754811
2981.639562
2837.204403
2658.348613
2085.906478
)


100
(
0.0985843603
0.1902264872
0.3027304183
0.4336439629
0.5914720223
0.7737805647
1.002838237
1.295240547
1.683410564
2.201919863
2.876077448
3.706149927
4.702896842
5.890417368
7.249552844
8.70313146
10.34034073
12.17832229
14.19687048
16.26886366
18.61526477
21.32078007
24.51101734
28.29069826
32.56400854
37.76605579
44.10693715
51.87890961
61.57785567
71.25075712
82.29812824
95.14509862
110.5941661
128.2923191
146.4289685
165.1445587
186.8382806
210.670555
236.3273974
263.746467
290.7802935
315.8549903
340.4833555
364.8011935
389.7840637
413.5072681
433.9274294
453.9611149
475.7166001
498.319571
521.9210117
549.5035405
575.3030035
600.6108326
627.9034232
659.2043699
692.0693582
725.2783278
759.1177341
795.7310017
834.5867088
875.1943768
916.7795201
959.1210755
1003.205139
1049.690795
1101.557327
1157.129013
1215.026351
1271.646358
1329.379795
1389.326762
1454.490865
1523.89539
1596.394824
1671.968399
1749.425443
1830.107136
1911.557622
1995.95217
2085.987085
2180.133706
2278.849804
2376.668109
2474.19286
2583.408145
2692.22338
2805.276272
2913.818475
3024.684747
3137.144789
3251.47133
3363.290347
3451.345138
3381.982958
3216.205842
3085.114998
2965.581619
2808.303924
2220.947995
)


100
(
0.08888776058
0.1650973368
0.2597831251
0.3718081519
0.5057953722
0.6654889487
0.8646488984
1.13000336
1.489600674
1.971352019
2.60366136
3.405523115
4.355479276
5.477633058
6.792957417
8.280853498
9.865783365
11.6536976
13.6748357
15.95018246
18.42041667
21.27848325
24.72465242
28.95792792
34.23036377
40.3649564
47.49539486
56.03674162
66.37638926
79.12914223
92.81303367
107.1019251
123.597852
143.0296182
164.9383687
189.2896365
213.0748941
238.0897597
263.9511408
290.4007445
317.9501263
346.1201878
368.9296141
390.3533351
411.7927218
433.702115
455.7766517
478.6361558
500.8203348
523.9224972
548.3937092
574.4595159
605.2165782
635.9018814
663.0008587
694.015009
727.9860127
764.2027034
802.7107318
842.7460178
884.3692567
927.2397715
969.6666565
1013.582856
1059.134594
1110.144848
1164.280399
1220.538626
1278.359005
1337.533253
1398.51369
1463.541106
1535.191518
1605.725144
1676.84002
1750.836087
1828.682466
1909.28471
1996.311756
2086.06453
2172.656858
2267.978994
2362.613332
2454.893762
2554.415431
2657.151659
2756.089662
2855.510034
2957.557388
3055.077215
3157.749051
3255.632453
3345.839846
3403.978256
3351.996377
3233.369127
3141.930506
3054.465321
2926.458966
2338.515084
)


100
(
0.07967112605
0.1437492901
0.2236468723
0.3182764485
0.4315428572
0.5704323675
0.7444817259
0.9806234206
1.308604204
1.756138867
2.337431901
3.08061949
3.997309104
5.052732869
6.284689216
7.717207107
9.33792276
11.07475441
13.05617331
15.35160519
18.04702715
21.2078469
24.91234275
29.50123649
35.20841803
42.35028524
51.10999084
60.56682133
71.68587206
85.00047396
101.1165503
119.7892792
138.2863577
158.7863545
182.2305126
207.7720091
234.8410151
263.6046324
288.9325534
313.9175045
338.242073
362.8610073
387.1844597
409.9920526
429.4585395
450.0329445
471.7537198
494.3264958
518.4217273
546.4246079
571.9290992
598.3177438
627.349829
659.5419353
693.2338873
725.7976304
761.1570595
798.8333669
838.3634689
879.3405774
921.2101543
964.0999665
1008.505698
1054.925222
1106.144473
1161.110048
1218.444759
1274.568898
1331.802736
1390.785525
1453.43375
1519.57304
1588.37973
1660.703299
1734.170033
1809.158489
1889.382937
1969.19288
2051.458448
2137.524185
2226.715642
2316.695544
2403.440681
2490.382973
2582.788585
2673.434541
2766.355018
2855.466944
2941.296267
3026.447837
3106.196049
3177.362883
3243.466444
3285.62539
3262.601013
3196.665584
3143.87863
3092.970431
3001.408678
2423.056344
)


100
(
0.07094066846
0.1255124939
0.1926271477
0.2720727418
0.3688982886
0.4875490383
0.6407273756
0.8489975216
1.142350134
1.548130359
2.084783689
2.762276198
3.605060351
4.620298847
5.77210122
7.107601183
8.659398994
10.42988394
12.39223736
14.67250204
17.42085946
20.80146387
25.0426507
30.04272699
36.16566538
43.71484856
53.0946644
64.87053534
77.46281288
91.64891751
108.3674273
128.2270022
150.7414924
175.4724309
199.376483
225.2771421
251.7455618
278.4466727
305.9822708
331.8016776
353.8246336
375.0418766
396.9136241
418.9570081
441.1600305
463.2295352
484.7336316
507.0737736
530.9882438
558.0307578
588.8538823
618.2692394
646.359369
678.4362436
712.7003253
748.8851402
787.0770281
826.8670314
868.1683444
909.2717492
951.1914789
994.3690178
1039.171446
1088.294913
1140.119598
1194.053633
1250.239498
1307.876186
1366.749032
1428.088606
1495.071754
1560.783675
1627.296867
1695.709474
1766.136396
1839.222461
1916.462937
1998.928513
2080.948933
2163.007455
2246.838157
2327.454148
2405.010045
2487.911907
2570.291208
2648.566524
2724.01672
2801.483632
2871.043248
2939.977016
2999.870377
3050.898444
3089.249848
3112.386914
3116.689755
3104.899802
3089.475251
3076.398222
3020.844557
2467.11032
)


100
(
0.06270286916
0.109581394
0.1659500658
0.2324371074
0.3149037416
0.4158914535
0.5495284101
0.7337307137
0.9939060129
1.355440824
1.839908716
2.458406016
3.221073697