/*--------------------------------*- C++ -*----------------------------------*\
| =========                 |                                                 |
| \\      /  F ield         | OpenFOAM: The Open Source CFD Toolbox           |
|  \\    /   O peration     | Version:  2.3.1                                 |
|   \\  /    A nd           | Web:      www.OpenFOAM.org                      |
|    \\/     M anipulation  |                                                 |
\*---------------------------------------------------------------------------*/
FoamFile
{
    version     2.0;
    format      ascii;
    class       dictionary;
    location    "constant";
    object      rCH2(S);
}
// * * * * * * * * * * * * * * * * * * * * * * * * * * * * * * * * * * * * * //

rCH2(S)_table
100
(

100
(
2.730322791
2.18570931
1.316313491
0.6221316278
0.01016837128
-0.2648468704
-0.5410149751
-0.6688656178
-0.7844968406
-0.8021851325
-0.8416921428
-0.8147418947
-0.7947551256
-0.7735515835
-0.7354859143
-0.696896462
-0.6568821445
-0.6171455664
-0.5744146849
-0.5278588851
-0.4912557295
-0.455749004
-0.4166966845
-0.3791549602
-0.3525637983
-0.3233997499
-0.2914289254
-0.2635693254
-0.2428585187
-0.2201230618
-0.1953228443
-0.1778532769
-0.1644943108
-0.1497763884
-0.1335582383
-0.1186738908
-0.1084223623
-0.09706594876
-0.08468501014
-0.07375572961
-0.06723400721
-0.06009589002
-0.05223976721
-0.04546452982
-0.04170800267
-0.03742024492
-0.03253185227
-0.02718378186
-0.02458374584
-0.02151435851
-0.01800779231
-0.01456900242
-0.01291119109
-0.01095651204
-0.008700147415
-0.006915918632
-0.005904362673
-0.004777885243
-0.003732630014
-0.002939497369
-0.002341381425
-0.00189056232
-0.001483394322
-0.00103293325
-0.000664570756
-0.0003889231286
-0.0001402778644
9.788013941e-05
0.0002735838746
0.0003667371087
0.0004724087124
0.0006077714661
0.0006387965665
0.0006154054086
0.0007425516963
0.0007293541118
0.0006431490029
0.0007522156491
0.0006649248442
0.0006340051355
0.0006183743415
0.0004687689092
0.0004792043333
0.0003525243818
0.0003217185875
0.0002225490395
0.0001856200005
0.0001223474457
9.097546185e-05
6.848811178e-05
5.021239314e-05
3.552295704e-05
2.422562219e-05
1.552347971e-05
9.508451304e-06
5.42159118e-06
3.308441676e-06
1.582750939e-06
4.02043037e-07
1.31806656e-19
)


100
(
2.85982844
1.246787547
0.5956450246
0.2177904729
0.06425260303
0.005084359721
-0.02395882461
-0.03813253757
-0.03985514751
-0.03440693527
-0.03725061653
-0.02347290633
-0.01912669456
-0.01492793566
-0.008321448948
-0.005402123598
-0.003058389179
-1.419371002e-05
0.0008285071286
0.001932388212
0.00306147269
0.003063925649
0.003385288628
0.003936916932
0.004043358318
0.003526741792
0.003628087257
0.003766191193
0.003565681815
0.003050273034
0.003021195732
0.002939547096
0.002661165467
0.002298080403
0.002131849466
0.001979642937
0.001805656064
0.001560190434
0.001387041082
0.001276897841
0.001138698973
0.0009705301596
0.0008330662922
0.000741337587
0.0006470717822
0.0005449359737
0.0004585436241
0.0003970030714
0.0003445563679
0.0002900835041
0.0002406958865
0.000201110346
0.0001657874267
0.0001342695313
0.0001077150839
9.023665685e-05
7.826896204e-05
6.9011162e-05
4.599140326e-05
-1.780021078e-05
-0.0001066810851
-0.0001053727751
-3.852990951e-05
-2.081795936e-05
-8.564923283e-05
-8.458321537e-05
-4.793707916e-05
-5.609413825e-05
-9.075437578e-05
-6.423511759e-05
-4.404822456e-05
-6.593207843e-05
-6.247202046e-05
-4.15783925e-05
-9.267978957e-05
-0.0001314823077
-6.49299069e-05
-6.579705801e-05
-9.567645449e-05
-4.324014752e-05
-6.997937992e-05
-5.028581755e-05
-3.987480833e-05
-7.524753759e-05
-2.957263088e-05
-4.08125757e-05
-4.465512554e-05
-2.343940231e-05
-4.608164203e-05
-2.317837774e-05
-3.073586462e-05
-2.307810937e-05
-3.860944445e-05
-3.102602192e-05
-4.626659433e-05
-3.188163196e-05
-3.202127136e-05
-2.547408228e-05
-1.406881573e-05
0.0003533453681
)


100
(
2.933594181
0.6086237646
0.235493088
0.07962822508
0.04831093171
0.03030036548
0.0257601668
0.0247742239
0.02431326781
0.02294797056
0.02417044303
0.02260339984
0.02263061833
0.0215555461
0.01969549179
0.01868257432
0.01759992303
0.01622234807
0.01440455843
0.01380054051
0.01259524947
0.01133246945
0.01033661168
0.009605443848
0.008704904713
0.007756205344
0.007082410327
0.006441551599
0.005793199924
0.005149369136
0.004645203005
0.004230778943
0.003778803412
0.003362156994
0.00300837498
0.002724536732
0.002434238385
0.002179585933
0.001942171562
0.001753401075
0.001577614218
0.001398113758
0.001244338657
0.001084438958
0.0009733970853
0.0008584347166
0.0007731677582
0.0006807030034
0.0006025413645
0.0005437603153
0.0004963644178
0.0004504111346
0.0003656253319
0.000334900024
0.0002935844903
0.0002748967128
0.0001919507851
0.0001832852606
0.0001587867235
0.000131966803
2.32228229e-05
-6.044577288e-05
-9.839226787e-05
-5.095082341e-05
-1.105819317e-05
-3.069968456e-05
-4.536049282e-05
-3.519882533e-05
-2.717212738e-05
-3.283913195e-05
-1.85391577e-05
-1.363843999e-05
-1.918056524e-06
1.744197628e-05
1.262052639e-05
-6.401006183e-05
-0.0001381417434
-5.519774464e-05
-2.259087076e-05
-4.508876454e-05
-1.678654406e-05
-2.943118839e-05
-1.222215144e-05
-5.487514432e-05
-1.702295559e-05
1.063691883e-05
-8.920640649e-06
2.443002872e-05
4.999470917e-05
5.3375368e-05
7.665401097e-05
0.0001124790007
0.000150905192
0.0002065852079
0.0002789888805
0.0003514828035
0.0004251890773
0.000119705769
-4.247965896e-05
0.001794665914
)


100
(
2.951647465
0.3182845175
0.08889361213
0.04806498096
0.03121702678
0.02303086699
0.02680585264
0.02311209157
0.02616198677
0.02408099133
0.02410125937
0.02302730919
0.02051610643
0.02026723768
0.01875833087
0.01692970947
0.0159959678
0.01491222
0.01378275216
0.01241770387
0.01187316951
0.01093412116
0.01006245338
0.009201099742
0.008658822055
0.007954357513
0.007286950604
0.006647238043
0.006170408011
0.005647082463
0.005198231933
0.004716529668
0.004385993247
0.004018664234
0.003683109483
0.003350050454
0.003048490165
0.00280186135
0.002568699358
0.002368488066
0.00215372207
0.001960677742
0.001834661235
0.001683133329
0.001580909459
0.001340341573
0.001269571301
0.001151019848
0.001120651642
0.0009239751958
0.0008802167713
0.0007739122303
0.0007527339552
0.0006470546997
0.0006078813847
0.0005541520068
0.0005598980508
0.0004869938939
0.0004567980081
0.00045858525
0.0004669907915
0.0004265836702
0.0004025546686
0.0003555516164
0.0003511085786
0.0003449973398
0.0003636246214
0.0003644570806
0.0003705019768
0.0003555847179
0.0003657440167
0.0003515952835
0.0003266196096
0.000306513391
0.0003141347857
0.0003574921783
0.0003829691648
0.0004784577633
0.0004941667337
0.0004813374293
0.0005765331661
0.0006510024568
0.0006236384179
0.0007364618547
0.0008363738065
0.0009432189361
0.001111202339
0.00130936071
0.001542433051
0.00188163814
0.002362562001
0.00281673379
0.003446531046
0.004190062904
0.00517198355
0.006413978367
0.007356183759
0.00245222128
0.0005185175378
-0.002876365696
)


100
(
2.91433175
0.3049328817
0.06159115494
0.02694718408
0.02242297971
0.02204478447
0.02290953787
0.02266068529
0.02208084556
0.02247770294
0.02034129409
0.02101371384
0.01977779341
0.01812866057
0.01769618929
0.0165816675
0.01527465566
0.01460602106
0.0138143705
0.01304007197
0.01202079583
0.01154470749
0.01087201879
0.01025211398
0.009452303445
0.008985363587
0.008401905622
0.007875495523
0.007238022905
0.00675411222
0.006282144792
0.005859501527
0.005475236937
0.004940149572
0.004704879501
0.004373513776
0.004192662929
0.003684908242
0.003517227156
0.00325702055
0.003025388589
0.002855663613
0.002582331048
0.002494829869
0.00235640395
0.002371728149
0.002073090932
0.002086041476
0.001992860172
0.002002616474
0.001855794544
0.001819567878
0.001751998098
0.001735245131
0.001673141141
0.00161726733
0.001607022463
0.001556054197
0.001521395149
0.001444549523
0.001433510263
0.00144189525
0.001443112303
0.001433905118
0.001439478234
0.001427035637
0.001452782873
0.001441999217
0.001455729141
0.001467363339
0.001524219194
0.001611463006
0.001673040723
0.00178763458
0.001964541655
0.002192544886
0.002422857779
0.002619157644
0.002742230091
0.003021950976
0.003316480724
0.003621154701
0.00414856075
0.004782074607
0.00549233237
0.006261979025
0.007280899044
0.008640673994
0.01024627764
0.01225187878
0.01422232737
0.01697588305
0.01992536605
0.02423051708
0.02950319405
0.0359960361
0.03743740338
0.01368015657
0.004453946585
-0.02495270071
)


100
(
2.822087607
0.2451861418
0.04140443537
0.01798672632
0.01421400138
0.01906603106
0.01778255411
0.02043679687
0.01912703557
0.02074510666
0.02025724139
0.01909072125
0.01927786033
0.01832765278
0.01729588692
0.01692783687
0.01618099502
0.01519158981
0.01468818132
0.01413646289
0.01356264109
0.01271334621
0.01219692375
0.01171673869
0.01118681259
0.01041105213
0.009678431131
0.009121779006
0.008609955816
0.008171777733
0.007459062073
0.007123860125
0.006654869643
0.006513316425
0.005728358166
0.005636226049
0.005236731023
0.005455526783
0.004730920257
0.004784303703
0.004494681748
0.004482794049
0.004288379305
0.00414906797
0.004034740677
0.004074398828
0.004105090488
0.003914353742
0.003962128871
0.003920735377
0.003939902786
0.003875912833
0.003827675452
0.003755797641
0.003718353749
0.003639296512
0.003662046878
0.003600116837
0.003652874344
0.003719094304
0.0037581956
0.003751543528
0.003763892172
0.003847671271
0.004007266445
0.004131818643
0.00420696643
0.004274503347
0.004406236751
0.004628063113
0.004824946714
0.005124221917
0.005497081292
0.006083065108
0.006780889657
0.007513311349
0.008066755874
0.008953954522
0.009959070217
0.01109557458
0.01235815481
0.01402002722
0.01633927687
0.01862960413
0.02129882064
0.024124464
0.02741136606
0.03107933861
0.03488987128
0.03972201607
0.04415799669
0.04889306281
0.05504110053
0.06250619027
0.07204892388
0.08517024486
0.07914689833
0.04072044859
0.01809719504
-0.08968266089
)


100
(
2.80414724
0.1886217024
0.02806221085
0.01125958482
0.01429970667
0.01626582272
0.01678364644
0.01851594036
0.01907513335
0.01850317164
0.01988910015
0.01925749996
0.01900358482
0.01898219343
0.01825118042
0.01756045629
0.01736162615
0.0168401279
0.01599283096
0.01546121102
0.01508854458
0.01458205485
0.01387823126
0.01311153958
0.01286745714
0.01239438867
0.0114611282
0.01053809104
0.009901615527
0.009504474759
0.009300745502
0.008517121193
0.008444645379
0.008140162746
0.00813686629
0.007394289873
0.007462265017
0.00734364221
0.007538991892
0.00703745918
0.007185689101
0.007070454932
0.007117541912
0.007072137689
0.006907880054
0.007078190819
0.006965623773
0.007243311462
0.006969367849
0.007176150895
0.007040236992
0.007172892037
0.00718814155
0.007157803558
0.007194230105
0.007279912604
0.007435188147
0.007553821608
0.007699345175
0.007894136785
0.00816059194
0.00851026703
0.008958661829
0.009242981575
0.009554124058
0.009927701673
0.01047452434
0.0112345211
0.01198057522
0.01274485985
0.01358621647
0.01477081095
0.01622076297
0.01763665566
0.01923033655
0.02129459536
0.02330055906
0.02564344207
0.02795951557
0.0310518842
0.03501282381
0.03886552258
0.04241617224
0.04568483705
0.04942292513
0.05318422657
0.055724845
0.05805496918
0.05924245037
0.0601722745
0.06186834422
0.06396640595
0.06571169776
0.06986581164
0.0769069562
0.08922628302
0.08147493194
0.06091643852
0.04035295628
-0.2289437267
)


100
(
2.827494244
0.1304961204
0.01635055856
0.008744392306
0.01194854582
0.01233247477
0.01590179356
0.01555978324
0.01850555248
0.01855338256
0.01933654635
0.02001731993
0.01931927003
0.0196620949
0.0195783546
0.01895176703
0.01836629519
0.0182609416
0.01780791017
0.01708170978
0.01629689116
0.01615399234
0.01567926044
0.01533020006
0.01419087782
0.01428026098
0.01397873684
0.01286131517
0.01194259775
0.01116245369
0.01158947185
0.01100962463
0.01080694426
0.01078706677
0.01108181599
0.01093385309
0.01051949057
0.01068981791
0.01088717423
0.01105691136
0.0108580238
0.01103701597
0.01113207598
0.01121282536
0.01128112652
0.01131143371
0.01144425733
0.01148438603
0.01172028032
0.01185407572
0.0119477263
0.01216645619
0.0123979837
0.0128461701
0.01339811803
0.01372596369
0.01418281426
0.01467198171
0.01535917978
0.0162152826
0.01687478998
0.01764483373
0.01848475567
0.01961348405
0.02099029196
0.02255479397
0.02424766189
0.02591722595
0.02801300563
0.03087163293
0.03395903276
0.03677393928
0.03981404063
0.04267103899
0.04534688221
0.04834226502
0.05110933846
0.05491284695
0.05901643861
0.06228240095
0.06374935838
0.06452501502
0.06529081073
0.0657623576
0.0649618793
0.06324697311
0.06146373878
0.06032362348
0.0597143482
0.06061235582
0.06215142206
0.06455317769
0.07066560587
0.0803272055
0.09288167336
0.1107265009
0.07500088205
0.04847867045
0.04157989797
-0.5115607735
)


100
(
2.810491532
0.107020865
0.01071952578
0.00772142926
0.01006213392
0.01131964491
0.01459727713
0.01586255105
0.01738876199
0.01903017519
0.01865807106
0.02047621801
0.02087802629
0.01992161416
0.02061416121
0.02043166215
0.01970736412
0.01923415962
0.01931026826
0.01872504841
0.01829741508
0.01710066877
0.0174003672
0.0170943427
0.01719782684
0.01629612516
0.01642357417
0.01659148254
0.01533896253
0.0144736506
0.01394132697
0.0148743612
0.01435804316
0.01459699056
0.01499031433
0.01527769087
0.01545936138
0.01508679906
0.0158949248
0.0157852534
0.01643469493
0.01617742328
0.01671463235
0.01673928927
0.01711688848
0.01744671026
0.01762452367
0.01795901764
0.01836675919
0.01889500962
0.01976726306
0.02067894779
0.02156395355
0.02243988996
0.02359460228
0.02493475552
0.02663821441
0.02804991298
0.02945124496
0.03104329259
0.03299943881
0.03527461739
0.03774752189
0.04042327559
0.04318642598
0.04639116263
0.05055801115
0.05522774052
0.05946112
0.06363038697
0.06761513429
0.07062340941
0.07328488197
0.07529929669
0.07689048919
0.07904594592
0.08035055657
0.08037823503
0.07830141806
0.07555698911
0.07321211771
0.07181645306
0.07104625796
0.0689618222
0.06882530086
0.06906113416
0.07237531509
0.07200731397
0.08225167599
0.09202924817
0.09922721427
0.1082563914
0.1178457733
0.1316486175
0.1584260364
0.1694499477
0.1100919206
0.05863599476
0.03256857331
-0.9021118572
)


100
(
2.753458745
0.1252509822
0.01020226473
0.005741474499
0.006549890474
0.01081579907
0.0120813041
0.01559598579
0.01598903009
0.01904544837
0.02016726112
0.01947208474
0.0215123819
0.02186872043
0.02044874346
0.02134797775
0.02111764046
0.02070275471
0.01947399879
0.01989188303
0.01963397521
0.01999418996
0.01850589715
0.01935885381
0.01941901733
0.01993573219
0.01990457316
0.01974157694
0.02051854328
0.01916128469
0.01804827144
0.01880911288
0.01943240825
0.0196560456
0.01999914153
0.02110364222
0.02123865962
0.02185931145
0.02182816736
0.0226964686
0.02285195524
0.02372215909
0.02398136049
0.02434883885
0.02498527452
0.02573535423
0.0268786893
0.02828164248
0.02945762102
0.03100463539
0.03254447587
0.03453295775
0.03696772978
0.03972023132
0.04206245353
0.04469259778
0.04765509986
0.05112099854
0.05484359781
0.05875823228
0.06260506538
0.06634405233
0.07064059152
0.07608932407
0.0819828331
0.08689543053
0.091267604
0.09543958752
0.09815494627
0.09921573993
0.09939838087
0.09890433002
0.0978540579
0.09686862862
0.09482168093
0.09251992326
0.08862124512
0.08511340084
0.08376387752
0.08475964297
0.08708979987
0.08877034679
0.09203865198
0.09611659358
0.1016211143
0.1060908892
0.1098560432
0.122000444
0.1315972166
0.1392075586
0.1476239129
0.1523081426
0.1681116685
0.1792521102
0.2127123399
0.2070506286
0.1475695454
0.09097893429
0.05395470013
-1.432789231
)


100
(
2.656832588
0.115519704
0.008314715436
0.003879972659
0.006059523932
0.009627580038
0.01137745384
0.01492114786
0.01699511013
0.01771061071
0.0203659838
0.02105166363
0.02054105166
0.02201766593
0.02251368398
0.02048816337
0.02158189204
0.02140910158
0.02156643789
0.02010744944
0.02126005545
0.02139093516
0.02239229715
0.02174315247
0.0224235164
0.02321058036
0.02399163549
0.02493094023
0.02457479458
0.02495657191
0.02593042177
0.02554602658
0.02495130172
0.0263121609
0.02679833381
0.02798579131
0.02882694404
0.0296884111
0.03062051302
0.03114643385
0.03189233336
0.03281069855
0.03390767235
0.03587603671
0.03735708148
0.0392751809
0.04137419054
0.04409109774
0.04732857676
0.05148962914
0.05511693062
0.05892518119
0.06293048564
0.06774790924
0.07302134153
0.07895534231
0.08426677809
0.08957450833
0.0947430507
0.1004627433
0.1072178119
0.1136850261
0.1184202408
0.1225974722
0.1261518913
0.1276213914
0.1263162461
0.1231779833
0.1199575915
0.1163515623
0.1130242275
0.1093591102
0.1075778705
0.1053368665
0.1031018276
0.1019757501
0.1049533534
0.1101524028
0.1159595044
0.1205619313
0.124036746
0.1282555129
0.1359681988
0.146926873
0.1454249615
0.1552851855
0.1564043179
0.1698425115
0.1766403272
0.1857618111
0.1915669303
0.1969519433
0.1932612326
0.1971202654
0.21947837
0.2051178471
0.1602931361
0.1138784641
0.07701772034
-1.855947264
)


100
(
2.588091605
0.09828183411
0.005684885143
0.0008220824781
0.005392515611
0.007587876802
0.01136069759
0.012692282
0.01689465934
0.01803724408
0.01957071621
0.02118643902
0.0210765408
0.02078451029
0.02188440966
0.02267697903
0.02017077116
0.02176971305
0.02205135861
0.02340097592
0.02176537373
0.0236940932
0.02443436874
0.02588100446
0.02659055277
0.02683434006
0.02854304489
0.02966022953
0.03105610357
0.03193267484
0.03278628367
0.03036680499
0.03414203054
0.03458974942
0.03598717374
0.03681997002
0.03832253986
0.03938930351
0.04098816674
0.04302579849
0.04477534397
0.04686330691
0.04957577008
0.0524639042
0.05646284879
0.06152973988
0.06648729767
0.07120033846
0.07675075323
0.08309895162
0.09062118787
0.09872030775
0.1061686047
0.1128183157
0.1194300717
0.125723649
0.1332285701
0.1414954832
0.1477563171
0.1523199412
0.1557467014
0.1580416573
0.1578714474
0.1540422628
0.147895476
0.1416364195
0.135378236
0.1306725691
0.1262680568
0.1271298217
0.1266363863
0.1277017672
0.1272743834
0.1297175887
0.1359926943
0.1428438182
0.1480867771
0.1535047329
0.1569222981
0.161351316
0.1702535189
0.1789001623
0.1801432596
0.1849904841
0.1859972272
0.1926634063
0.1777473062
0.1878154942
0.1940925669
0.187338039
0.186588819
0.1737370081
0.1521834925
0.1513346714
0.1361628561
0.1447165192
0.13869194
0.1096335549
0.08779982854
-2.20564644
)


100
(
2.566723265
0.07525936821
0.001666469268
0.001199487995
0.004269665913
0.006224413871
0.01068090354
0.01299802088
0.01570783841
0.01848217538
0.01820810216
0.02051696202
0.02130634998
0.02029209302
0.02025420618
0.02139552721
0.02287737969
0.0204388176
0.02261106611
0.0238493604
0.02603875169
0.02551630576
0.02725242
0.02903734612
0.03078351882
0.03287536985
0.03296376492
0.03510496307
0.0368288961
0.03856150033
0.04070733411
0.04122021515
0.04182352303
0.04387970301
0.04537279283
0.04774109079
0.05078612244
0.05217393135
0.05550855579
0.05881052945
0.06333941446
0.06891713736
0.07436011222
0.08041788759
0.08697313851
0.09474431233
0.1038810541
0.1144141473
0.1242224825
0.1335977455
0.1427524381
0.1516188753
0.160080662
0.1698647597
0.1765295997
0.1822732653
0.1864102721
0.1895611262
0.1911658408
0.1899760637
0.1828995355
0.1762174298
0.1668245791
0.1581279268
0.1509644694
0.1441905873
0.1456693932
0.1473293977
0.1519094152
0.157201027
0.1611888897
0.1659083069
0.1707527153
0.1758695217
0.1827624798
0.1914116014
0.1929301273
0.1903116039
0.1981616021
0.2101810332
0.2152120918
0.2102887774
0.2060425435
0.2110190552
0.2126320434
0.1889510145
0.1797812106
0.1846441191
0.1571596438
0.1266352569
0.1011266505
0.07452002925
0.04825252045
0.01464350705
-0.04708088591
0.04315520572
0.04667741548
0.07240194905
0.08049830207
-1.183497356
)


100
(
2.519517816
0.07045110136
0.001236724963
-3.004501756e-05
0.002477323039
0.006252691566
0.008844150245
0.01288119552
0.0137443381
0.0176590194
0.01929433465
0.01734628509
0.02007430083
0.02056549322
0.01906873171
0.01972313205
0.02139240473
0.02380937964
0.0221253933
0.02459674753
0.02709397769
0.02977352809
0.03086828751
0.03206036303
0.03519037922
0.03734683144
0.03999789105
0.04174498824
0.04282100083
0.04571552722
0.047877757
0.05049198008
0.05347983553
0.05430217422
0.05752079811
0.06131088954
0.06564279661
0.07188063305
0.07771324049
0.08379001644
0.09117845463
0.1000348504
0.1103444611
0.1228295695
0.1346007982
0.146402362
0.1587445506
0.1718424785
0.1842653208
0.1967584069
0.2057547283
0.2132462701
0.2190300928
0.223846383
0.2264482829
0.2277133763
0.2209432021
0.21824907
0.2091174511
0.1977913943
0.1877935104
0.1756672505
0.1673823563
0.1668639253
0.1683888681
0.1736847972
0.1805717827
0.1868508729
0.191441576
0.1959948578
0.201175702
0.2080580466
0.2173475213
0.2251597353
0.2301468511
0.2309427832
0.2339890844
0.2344257035
0.2335994428
0.2393016249
0.2297205106
0.2184436597
0.2231187658
0.2106947673
0.1764287116
0.1550486502
0.1623360734
0.1239719854
0.05172676615
0.01223769693
-0.05015194548
-0.1937170793
-0.2263261584
-0.2443274223
-0.2972599149
-0.1307649176
-0.09391020928
-0.03416781883
0.03228308953
-0.4547699675
)


100
(
2.446735897
0.07556391245
0.00019574398
-0.0008691962108
0.001240852759
0.005503956446
0.007783333783
0.0120402783
0.01452950964
0.01469176362
0.01793234764
0.01860573096
0.01638652459
0.01880344506
0.01986810038
0.01832994532
0.01989452725
0.0225771127
0.02567107987
0.0255240222
0.02776043373
0.03176904582
0.03478101995
0.03793122561
0.03824847621
0.04260884991
0.0453524409
0.04849880093
0.05202610399
0.05339421925
0.05650036811
0.0601460866
0.06424735024
0.06964773782
0.07563703967
0.08056614083
0.08880849938
0.09720783293
0.1083768063
0.1216341958
0.1350390108
0.1478648652
0.1628876467
0.1789609158
0.1968521542
0.2149340893
0.2298693398
0.2416496575
0.2521730267
0.2592023813
0.2653965451
0.2686891276
0.2640707316
0.2618668772
0.2575665429
0.2475307516
0.2369089196
0.223628677
0.2067581682
0.2002607426
0.1922303631
0.192176842
0.1949786015
0.1985174749
0.212644978
0.2199253671
0.227447646
0.2296370649
0.2307394112
0.2385133202
0.2490294776
0.2563047912
0.2590547893
0.2598052363
0.2597863985
0.261765337
0.2676952759
0.2673331374
0.2563184076
0.2332931401
0.224474588
0.2130753765
0.1993588041
0.1515774067
0.110492432
0.09874128589
0.0726153751
0.02167427847
-0.03549940333
-0.1518736279
-0.2321983534
-1.068480852
-0.5255928014
-0.597138935
-0.6444775119
-0.3985738917
-0.3199419241
-0.2073441758
-0.07467428024
4.587511888
)


100
(
2.34872266
0.07019318922
-0.000685457734
-0.002431741387
0.001059288424
0.004125454017
0.007838247307
0.009563162881
0.01364310745
0.0144193007
0.01491821907
0.01671500497
0.01669491517
0.01501765
0.0177827077
0.01984453492
0.01895758777
0.02110424195
0.02518064938
0.02874246459
0.03070505184
0.03213062632
0.03792568125
0.04147541544
0.04573938484
0.04792722071
0.05113982193
0.05565163852
0.05960928514
0.06417931178
0.06970166855
0.07265406423
0.08014646526
0.08773435749
0.09775884504
0.1109096639
0.1234510507
0.137472812
0.1533184143
0.1716335501
0.1923244652
0.2156417388
0.2357200989
0.255078058
0.272622493
0.2884427265
0.300462536
0.3122977997
0.3110868879
0.3117735625
0.3074001043
0.301376916
0.2906600537
0.2788540691
0.2619241886
0.2517096233
0.2379437122
0.2258651108
0.2229076265
0.2153296267
0.2199891529
0.232672944
0.2422400069
0.2552657773
0.2634480679
0.2662697183
0.269835463
0.2737351504
0.2775333677
0.2819889077
0.291250254
0.3013028014
0.2929298611
0.2825280427
0.2851597644
0.2916047973
0.2845709502
0.2687799961
0.2476852823
0.2291904878
0.2131620474
0.1800022125
0.09862877967
0.05804689472
0.03445951937
0.003707131462
-0.07384717194
-0.1752383485
-0.2959983915
-0.3488390431
-0.4356417151
-0.359084712
-0.8588341286
-0.7848895108
-0.9251548504
-0.7334805585
-0.6282663168
-0.4619309928
-0.2567868017
12.78488489
)


100
(
2.279436722
0.06046246587
-0.001861423561
-0.002906206906
0.0003094855997
0.002483647334
0.007078466444
0.009269474509
0.01158665035
0.01373078331
0.01248169411
0.01398974437
0.01507083753
0.01468400074
0.01413393554
0.01766572544
0.02084103146
0.02129071381
0.02343357557
0.02917303881
0.03318280781
0.03770190541
0.03804781603
0.04527884863
0.0497043439
0.05487692539
0.0603565691
0.06261780133
0.06912190955
0.07546953519
0.08310869982
0.09422803152
0.1040290051
0.1157661521
0.1311338766
0.148894304
0.1700520342
0.1955426482
0.2191016376
0.2429056952
0.2682970401
0.2942420094
0.3188203355
0.3400652475
0.3517831782
0.3582297948
0.3618062287
0.3594292524
0.3535609449
0.3414302894
0.3193562185
0.3107658488
0.2966893359
0.2823934824
0.2673319004
0.2599630279
0.2453258392
0.2473183338
0.2492451559
0.2577484639
0.272482958
0.2806005082
0.3015729303
0.3077238336
0.314337218
0.3140135132
0.3131469626
0.3197557853
0.3260117531
0.3280853014
0.325039345
0.3113140828
0.3086426707
0.3056535909
0.3068741879
0.3132678905
0.2944085293
0.2521979321
0.2270255196
0.1968596289
0.1449843025
0.08887765442
0.02371160679
-0.01675671935
-0.06990657841
-0.2072789872
-0.3022377453
-0.3742975839
-0.532439349
-0.6766808039
-0.8053422805
0.1033688652
-1.192516131
-1.283953703
-1.095329219
-1.041926134
-1.005637026
-0.8047250431
-0.5331146216
24.73995383
)


100
(
2.229353692
0.04888768842
-0.003253904491
-0.003382091641
-0.0005462383096
0.002486227033
0.005306565075
0.008745489672
0.00888067402
0.01174723614
0.01248961431
0.009167895742
0.01249482977
0.01375125775
0.01349224364
0.01413235718
0.01887596358
0.02274950196
0.02540348115
0.02689544643
0.03469692816
0.03946225558
0.04541871365
0.04837208724
0.0539092736
0.06088835377
0.06755223143
0.07524074283
0.08368463552
0.09089022964
0.104052071
0.1177879333
0.1366876318
0.1596367407
0.180661218
0.205689241
0.2339874955
0.2649629478
0.2993567029
0.3345555929
0.3611072859
0.3839062135
0.4017621991
0.4121661092
0.4172145635
0.4135530411
0.3889492271
0.3789570372
0.3644495682
0.3455597949
0.3282453865
0.3124091238
0.2930366097
0.2857665687
0.2782361941
0.2758001493
0.2800691274
0.2786346537
0.2939752954
0.3155197121
0.3283223889
0.3435895145
0.3483044828
0.3519223623
0.353510257
0.3586139511
0.3612961131
0.3608074746
0.3672782661
0.3686027848
0.3512537214
0.332647549
0.32575048
0.3236959314
0.314242709
0.2736388694
0.2471028571
0.2286552717
0.2217588842
0.1738364001
0.05523104047
-0.05239109853
-0.09205887912
-0.1044667804
-0.2069294555
-0.3340120702
-0.4518411066
-0.5764643188
-0.7219677208
-0.9205484009
-1.029868805
-0.8499598966
-1.458465767
-1.271885678
-1.433742982
-1.286970153
-1.319062893
-1.175533324
-0.8878443824
42.30634641
)


100
(
2.164272384
0.05091447306
-0.003456499304
-0.00391837226
-0.001937123338
0.001839725888
0.00388056261
0.007454815507
0.008954105636
0.007605103411
0.009995117704
0.010468434
0.006477477328
0.01109681363
0.013311127
0.0138329875
0.01516349349
0.02155511729
0.02606294111
0.03165863092
0.03199589565
0.04154666923
0.0475239098
0.05478342743
0.06210102992
0.0664267063
0.07658010764
0.08708197192
0.09981981569
0.1190531793
0.1331263469
0.1556810674
0.1801651548
0.2110871078
0.2467775184
0.2861587448
0.3196539653
0.3575572946
0.3926324343
0.4266464772
0.4522843394
0.4719409346
0.4649711563
0.4637738478
0.4491932703
0.4345658136
0.4072724769
0.3795606322
0.3468523265
0.3439259328
0.3285699426
0.3147281837
0.312326919
0.3020851405
0.2937525791
0.3044658703
0.3213734693
0.3341552969
0.3547157422
0.3643180677
0.3829700607
0.3881796802
0.3925342988
0.3940201
0.3957789398
0.4037876719
0.4061281573
0.4035137153
0.3873282757
0.3639943504
0.3517393229
0.3408715048
0.3322227384
0.3325539541
0.3119836416
0.2606355313
0.2138801063
0.1919241886
0.1261188823
0.04152814029
-0.03709685618
-0.1012499904
-0.1373168815
-0.2565725346
-0.3586514621
-0.4627511159
-0.6176397279
-0.8141795082
-1.066865153
-1.072312554
-1.307660488
-1.301194057
-1.166622853
-1.486854751
-1.36220381
-1.416296052
-1.544114143
-1.486326308
-1.174831734
66.16244869
)


100
(
2.08444313
0.04919916587
-0.003979587381
-0.004439916365
-0.001954053238
0.0009614031551
0.003712690995
0.004784816929
0.007425963582
0.007087864114
0.005836975749
0.007466293477
0.008287759879
0.005121747128
0.01054638941
0.01393541124
0.01593482946
0.01733898564
0.02621268105
0.03024338912
0.03746278417
0.04161841699
0.04987612596
0.05903925539
0.06845900752
0.07957009537
0.09107048071
0.1035845631
0.123685008
0.145991328
0.1771663746
0.2105250212
0.2442880984
0.2835527623
0.327332302
0.3741441887
0.4233469575
0.4636895555
0.4949680817
0.5170370128
0.5290225518
0.5254647839
0.5184070493
0.4816693727
0.4454720204
0.4233877267
0.402245541
0.3740281254
0.3589903426
0.3435362219
0.3267113505
0.330916269
0.3255267921
0.3364199753
0.3398316868
0.3358356602
0.3667043742
0.3921180869
0.4092369819
0.4222266603
0.4219748623
0.4221584854
0.4257987415
0.4261593449
0.4318293791
0.4250441028
0.4315106195
0.4205350186
0.4037663559
0.3835768507
0.3711181701
0.3567958912
0.3324199564
0.2766294989
0.2200787094
0.1931992686
0.1835429917
0.1795602876
0.0990529878
-0.04956741481
-0.1575869542
-0.2053901413
-0.2514606809
-0.3635458531
-0.5204528002
-0.7008539246
-0.8460086982
-0.8789308443
-1.030255333
-1.077558304
-1.286976851
-1.097000701
-1.217351081
-0.5656241664
-0.9141079307
-1.339291241
-1.698896206
-1.686685868
-1.264420864
97.44254435
)


100
(
1.990145501
0.04478720041
-0.004398401946
-0.005046704776
-0.002467306485
-0.0005735510511
0.00292998374
0.004096249856
0.004895586359
0.005624789276
0.003693569136
0.003762774905
0.005410123031
0.006498715622
0.004587117454
0.01127497822
0.01538573777
0.01988611436
0.02077824555
0.03080491585
0.03811088836
0.04686140699
0.05513225317
0.06249790138
0.07599548008
0.09042171146
0.1088388219
0.1342515315
0.1550217652
0.1891866916
0.2265155607
0.2735249783
0.3270097732
0.379951813
0.4291051453
0.4811456847
0.5272924067
0.5652315155
0.5891825412
0.5907982233
0.5728170495
0.5537801969
0.5197259363
0.4853369155
0.442799216
0.3990613346
0.3835423457
0.3782552169
0.3644419662
0.3552397139
0.3633961269
0.3388568113
0.3485383631
0.3663733213
0.3887738991
0.4060426141
0.4235446622
0.4334961551
0.4498136244
0.4570648183
0.4619794264
0.4655645534
0.4706022011
0.4813312479
0.4798038841
0.4730562538
0.4385067899
0.4104554685
0.3763554738
0.368495574
0.3537095129