/*--------------------------------*- C++ -*----------------------------------*\
| =========                 |                                                 |
| \\      /  F ield         | OpenFOAM: The Open Source CFD Toolbox           |
|  \\    /   O peration     | Version:  2.3.1                                 |
|   \\  /    A nd           | Web:      www.OpenFOAM.org                      |
|    \\/     M anipulation  |                                                 |
\*---------------------------------------------------------------------------*/
FoamFile
{
    version     2.0;
    format      ascii;
    class       dictionary;
    location    "constant";
    object      rCH3;
}
// * * * * * * * * * * * * * * * * * * * * * * * * * * * * * * * * * * * * * //

rCH3_table
100
(

100
(
2.579871949
26.58539224
45.74924156
58.1561443
63.93463075
72.6709582
74.49594155
76.02179578
74.53334558
76.95196219
72.09790709
76.22533474
73.4271635
67.94814662
67.94201842
62.81285902
54.54378465
53.06003051
48.23324777
40.76937226
37.86429352
34.99518638
30.27822796
25.7254362
24.18906829
21.20204797
16.98157482
14.00531843
12.86646408
10.64698556
7.55592204
5.836475645
4.579770214
2.654685731
0.1814262026
-1.674538779
-2.005026475
-2.951729895
-4.375666912
-5.548895585
-5.868287492
-6.595021436
-7.645541949
-8.493890624
-8.754752859
-9.237208478
-9.873415694
-10.53932871
-10.39136816
-10.41903725
-10.55881683
-10.65972654
-10.41422264
-10.26315698
-10.18471161
-10.00152662
-9.664997053
-9.395107276
-9.199268802
-8.927337922
-8.489592516
-8.12705425
-7.823275595
-7.432405601
-6.971184845
-6.571286054
-6.21735923
-5.771273586
-5.34427113
-4.969102668
-4.590090283
-4.178323112
-3.817140856
-3.483282548
-3.113976761
-2.792604218
-2.500591443
-2.18835121
-1.926074761
-1.673994458
-1.43678275
-1.240514823
-1.03789898
-0.8772534099
-0.7208092044
-0.5960440729
-0.4784662996
-0.3849684034
-0.3008077843
-0.2294159457
-0.1706708531
-0.1236161002
-0.08752727306
-0.05878804301
-0.03824624977
-0.02375559168
-0.0150527705
-0.008436052412
-0.002969190313
-1.165982994e-12
)


100
(
1.800834568
17.56782682
26.30381536
27.17686895
28.02263513
30.79447622
21.57408308
23.73241107
15.89511717
15.73452744
12.06198914
7.406376018
5.804551636
-0.07869988129
-5.071587331
-7.709707489
-12.93495059
-19.26878425
-20.82608192
-24.01422881
-28.34488947
-30.10989361
-31.26882483
-33.44824081
-36.05530638
-35.98320462
-36.76864276
-38.17587166
-39.74320716
-39.04633577
-39.06146897
-39.50815103
-39.89562912
-39.14159024
-38.77758516
-38.64300439
-38.59827725
-37.89372844
-36.87691544
-36.2137131
-35.69124183
-34.92823937
-33.79859694
-32.86014711
-31.93998548
-30.92436738
-29.67008651
-28.52192237
-27.43689423
-26.37575902
-25.24532163
-24.14904482
-23.11577555
-22.04702099
-20.94084688
-19.7604998
-18.60906928
-17.65697581
-17.42575747
-18.92593251
-21.74592954
-20.015178
-16.23736511
-15.96744754
-17.67678543
-16.10709821
-13.38855069
-14.04588692
-14.49910347
-12.51781376
-11.11687759
-11.80092415
-11.03264993
-9.395003438
-11.27818476
-12.21007658
-8.616267271
-9.319492169
-9.899670725
-6.868516532
-8.141698538
-7.040112674
-6.141497432
-7.465311099
-5.251790388
-5.891876273
-5.936058101
-4.854165876
-5.802062664
-4.801427487
-5.227544954
-4.981015177
-5.708545873
-5.634706176
-6.367588982
-6.071471848
-6.267937831
-5.785694413
-2.436520341
-0.7244536911
)


100
(
0.6331841844
7.956117682
8.74010339
2.972095498
4.265331744
-0.8334979006
-6.649246411
-12.87380716
-17.59058965
-24.24429441
-26.4813948
-32.19334702
-35.35713163
-38.73457728
-43.98939426
-47.23610423
-49.72677486
-53.2545387
-56.69239654
-57.42796754
-58.77962682
-60.3486896
-60.98993086
-60.84712062
-61.04321478
-61.33958333
-60.86798973
-60.24992752
-59.72455763
-59.18351352
-58.21655092
-56.97651043
-55.92181181
-54.88505233
-53.69083948
-52.22020971
-50.78075759
-49.31509345
-47.93876585
-46.4612567
-44.99623196
-43.68259558
-42.46706739
-41.38218068
-39.89523379
-38.28824987
-36.67516723
-35.25146838
-33.7232913
-32.083922
-30.71435789
-29.92390333
-29.87515899
-29.39268019
-28.96220432
-28.56052981
-28.63326712
-27.90593686
-27.48042247
-27.93184568
-31.07676348
-34.87698647
-34.56718196
-31.25999746
-29.18406635
-29.39326697
-28.36983003
-26.55897916
-25.45832224
-24.51988072
-22.92228918
-21.32645493
-20.39814963
-19.18789545
-18.95816201
-22.08486862
-26.31603217
-24.34426201
-22.75153901
-22.59225614
-21.52572905
-23.92274363
-21.21938993
-25.45841448
-24.45507978
-22.83061496
-24.56959301
-23.56919625
-23.52334455
-25.3461064
-26.67967043
-27.12099559
-28.16451565
-33.45555887
-30.64467285
-30.50310377
-32.53034302
-27.28009631
-14.59747417
-6.235013356
)


100
(
-0.8901539847
0.09530388034
-5.65506298
-9.686867968
-14.20843321
-23.30821036
-27.47373965
-36.6971261
-40.40174313
-46.55009896
-50.8752809
-54.61046975
-59.65903424
-61.88199997
-64.90613048
-68.45355334
-70.34994232
-71.83961712
-73.51869179
-75.12262705
-74.93560717
-74.9364878
-74.96667368
-74.78910197
-73.74021297
-72.83375791
-72.07515536
-71.34590757
-70.08169247
-68.68072104
-67.19793384
-66.02503623
-64.60662924
-63.26485966
-62.01933942
-61.00053227
-59.89311537
-58.32053608
-56.65242361
-55.22191734
-54.45752878
-53.96676528
-53.37261244
-53.27901443
-53.5020558
-54.50256106
-54.19342761
-53.98428528
-53.69741955
-54.60834189
-53.96486094
-53.63637267
-53.20839803
-53.50749796
-52.61031392
-51.5497414
-50.60363452
-50.64481978
-49.50721668
-47.91435602
-47.12422836
-47.87882996
-49.13838061
-48.35862206
-45.88458238
-43.35173473
-41.70878183
-40.13549512
-39.20700385
-39.99502189
-41.34047607
-43.30698094
-46.21803459
-49.6589467
-48.25054167
-50.29038156
-60.14008549
-55.48815844
-50.3046159
-60.25463682
-57.61636257
-53.24592957
-55.78921364
-50.65729468
-45.62616893
-42.982624
-40.55279429
-36.78384428
-27.7468215
-20.82389968
-8.860065222
11.03455974
28.69245344
68.85991502
97.99514766
128.3179922
138.5063757
-1.476021905
-28.26741948
-21.14048609
)


100
(
-2.732577847
-3.279833253
-12.45218259
-20.17549756
-28.09019498
-35.24192765
-42.21711528
-49.16492104
-55.56467134
-60.07041254
-65.78663835
-68.72207547
-72.21249898
-75.7402324
-77.52540281
-79.57908253
-81.7158181
-82.68116955
-83.24804423
-83.78418475
-84.35131013
-83.91689669
-83.37390572
-82.84488475
-82.53711965
-81.48873956
-80.44484162
-79.78367941
-79.7591965
-79.3085355
-78.28777732
-77.15987167
-76.56004703
-76.93055465
-76.43374933
-76.38315749
-76.78807423
-78.68818397
-78.93105773
-79.35353902
-79.91138884
-80.80718738
-82.0194231
-81.69885189
-81.64677278
-82.177008
-84.30706198
-83.38122347
-82.6457778
-82.42131055
-83.19242457
-82.18122176
-81.08236041
-80.29407651
-79.66167813
-78.07126916
-76.29500001
-75.73183518
-75.1709965
-73.88502189
-71.6315144
-69.84837438
-69.57329528
-70.99326631
-72.74729246
-74.72038311
-76.40093105
-77.2535269
-77.83434642
-78.66721459
-78.68188833
-78.02074342
-79.85034541
-89.75579299
-100.6206408
-90.73530897
-79.20636012
-81.02164228
-71.98358375
-54.96758684
-34.01014095
-12.03295552
0.7222072236
23.48970779
64.9370135
114.8532693
192.2849503
270.3439465
352.1650135
405.9092255
576.9401619
787.8661813
931.7590103
1197.569705
1423.028941
1641.331789
1597.575716
526.8687236
125.8498509
-0.2821819609
)


100
(
-4.856660288
-7.1479431
-18.45048432
-28.31237929
-37.59912428
-43.84942138
-52.18896076
-57.83695084
-64.5751704
-68.94881134
-73.36828899
-77.60672271
-80.21529873
-83.03304794
-85.43285377
-86.76235468
-88.15065581
-89.65359097
-90.41470862
-90.78681885
-91.21123194
-91.9971985
-92.38323356
-92.44322741
-92.69563915
-93.48137768
-94.13095287
-94.34395076
-95.14152266
-96.80848073
-99.18860571
-99.9839193
-100.8052229
-101.9283213
-104.9906953
-105.2432329
-105.8799315
-106.6024402
-110.9844368
-111.4557851
-112.1573287
-112.7180502
-114.7392363
-115.4054328
-114.4673952
-113.597097
-114.9129337
-116.2891437
-114.4134056
-112.9551158
-112.482583
-112.197299
-110.9513016
-109.6539586
-108.378736
-107.0663042
-105.6365831
-106.1365394
-108.4646847
-111.8423519
-114.861103
-116.3854561
-116.7078707
-116.6255528
-115.0609377
-111.8955434
-108.4134414
-104.0073073
-96.31981615
-86.1165991
-75.24201725
-68.03505601
-60.73420345
-49.87872013
-29.41792146
-11.43485245
37.13136681
101.8321594
179.0736055
246.3718023
313.4870625
422.1166367
605.9209773
774.8512084
976.4792443
1183.980994
1443.896116
1720.963459
1946.860595
2329.721655
2727.656953
3061.569447
3479.492479
3887.352015
4287.87233
4657.891527
4264.932833
2374.854997
1056.502486
370.845834
)


100
(
-5.963919197
-10.76091
-23.37394837
-34.38598112
-42.25923011
-49.88385831
-57.30592395
-63.64454277
-69.30399845
-74.72148604
-78.39891337
-82.37875988
-85.5828599
-87.94184921
-90.35834435
-92.3836998
-93.76042969
-95.41695541
-97.54557724
-99.33716575
-100.6837061
-102.3529513
-104.8079335
-107.6022774
-109.4913783
-111.9641129
-115.2960471
-117.9319296
-119.6579054
-121.9246186
-125.4867624
-130.0782283
-131.7168896
-133.405883
-136.0934194
-140.0270623
-140.1283601
-140.3944885
-142.4156779
-146.2453049
-146.2455601
-146.1039312
-146.6148466
-147.7546169
-147.4895543
-145.5808682
-145.4837147
-145.5457815
-146.1091147
-144.2919852
-143.2896054
-142.1893687
-142.3425339
-143.9664167
-145.9998375
-148.1722387
-149.5372409
-149.2899283
-147.5758643
-145.2708332
-141.3447
-133.2674635
-120.3535523
-103.7435324
-87.37365554
-64.83952939
-37.32123169
-9.588491887
25.09651831
60.53743518
103.332217
165.215144
256.4274981
353.6401576
467.2503624
611.8454209
748.9878778
921.5114673
1097.032159
1337.002871
1658.574473
1972.097622
2281.114335
2576.946506
2903.691554
3233.805466
3497.267098
3671.376548
3743.462624
3875.998384
3986.013686
3991.947772
3947.51677
3890.458282
3870.476067
3969.260303
4510.370485
4353.093227
3138.414167
2196.41031
)


100
(
-6.45897275
-14.35419819
-27.41032239
-37.66764975
-45.6446842
-53.9395002
-60.47139265
-67.43005547
-72.44276739
-77.62870434
-81.89345878
-85.49591509
-89.32097957
-92.23723459
-94.81165724
-97.64082362
-100.3835066
-102.9005023
-106.2675222
-110.3568787
-114.6615936
-118.1005577
-122.152586
-127.1394628
-133.2160038
-136.9321462
-141.2774234
-146.3556637
-149.8592108
-152.4442364
-155.1524456
-161.3077827
-165.4239394
-166.8705306
-168.208416
-172.1980339
-175.1396896
-174.6150721
-174.4999841
-176.8362523
-179.1629871
-178.4844245
-177.4296728
-177.1504727
-176.8100002
-175.8250601
-174.6948195
-174.1009323
-174.0734189
-175.253058
-176.8120349
-177.3862322
-176.8149667
-174.3019787
-168.5061609
-158.8304855
-148.6759785
-134.8995951
-113.9414334
-85.24776728
-49.5862673
-13.43656066
36.16840083
95.77760442
158.4936379
234.4525957
325.00738
414.0698401
524.1145333
696.6294238
908.7198503
1110.898146
1340.752208
1559.149801
1775.663641
2026.104671
2244.908672
2550.30276
2896.201307
3182.663281
3355.891639
3468.989223
3545.997911
3572.657578
3506.192294
3345.381358
3139.730749
2937.092332
2741.59422
2533.089344
2368.053207
2300.502061
2298.094824
2379.802867
2554.925918
2732.603346
2653.720277
3214.778827
3836.17251
7806.552615
)


100
(
-7.148428117
-16.92439557
-29.69502628
-39.51351266
-47.9330095
-55.72157824
-62.47619459
-68.9090452
-74.52842431
-79.37983179
-84.38667666
-88.26985344
-92.26651895
-96.79118432
-100.4021388
-104.160447
-108.5575576
-113.0780753
-118.4593957
-124.4250363
-131.347056
-138.9978688
-144.6067118
-150.7707374
-157.5185321
-165.2143938
-170.6487454
-175.7117278
-181.2455481
-184.6232928
-187.167078
-190.5495445
-197.1071566
-200.1694365
-200.8685161
-202.512213
-205.3186441
-206.7345013
-205.2604119
-205.4692934
-205.6787948
-205.8582571
-204.3825981
-202.7571895
-200.6180784
-198.9049563
-198.207028
-197.4081069
-195.2137727
-190.5789615
-181.8543557
-166.4743111
-146.7862812
-125.0732537
-96.06161251
-51.77480134
6.703406738
79.16883834
149.8991881
233.5518815
331.0695561
432.7358082
556.7357346
701.0399128
851.0651832
1026.92934
1260.895789
1540.91709
1817.14353
2098.373216
2402.34925
2645.077663
2886.141576
3061.600801
3190.542817
3353.16568
3453.298215
3460.92913
3352.122816
3172.256263
2949.989385
2711.765369
2467.229636
2230.190891
2052.750538
1941.529983
1887.852462
1902.332503
1948.298704
2042.241422
2185.052525
2386.166658
2639.24077
2957.661965
3314.193607
3527.708058
2739.012469
2205.533011
2268.444396
19738.92549
)


100
(
-8.010180478
-18.07474276
-30.82532375
-40.73477216
-49.33970109
-56.49348387
-63.63684207
-69.65551723
-75.77532569
-80.75863649
-85.89533292
-91.35873757
-95.90616556
-101.249683
-107.7130314
-113.1337593
-119.2649499
-126.5578828
-135.0903756
-142.620565
-150.8757622
-159.8973095
-170.1537271
-177.1036821
-184.2532904
-191.5239991
-199.249109
-205.9179478
-210.7317549
-215.7223546
-218.315114
-220.2024593
-224.5362853
-229.0760222
-230.5092548
-230.0296069
-230.7261225
-230.7559907
-229.7663911
-227.7179873
-225.241002
-221.8810998
-218.1200401
-214.6133675
-209.8553139
-202.4009237
-191.0169741
-172.7418454
-145.9831496
-116.7732845
-78.18891308
-25.86752852
45.98670385
136.9459892
240.3825134
343.2630996
480.3986302
640.0512315
811.0838704
1003.414911
1205.109183
1391.580993
1599.917341
1875.209696
2192.459051
2484.85027
2754.980872
3036.749435
3247.005155
3376.688354
3437.665277
3421.334925
3346.174015
3202.827545
2988.785521
2765.902067
2496.550002
2231.834888
2005.129191
1831.644477
1719.554811
1669.871573
1684.84533
1746.768617
1845.371373
1975.544116
2137.179256
2311.169327
2503.983613
2726.129733
2989.390244
3314.025636
3686.34264
4157.063063
4654.682941
4723.190868
3574.52123
2723.059543
2108.234009
39403.51449
)


100
(
-9.021527292
-19.27117987
-31.64793848
-41.42134749
-49.47055143
-56.70646904
-63.70134427
-69.92491206
-76.03462451
-82.10160714
-87.62601149
-93.93380548
-100.7046844
-107.1793547
-114.998157
-124.580033
-132.6848284
-141.7273279
-152.1056571
-163.6949055
-172.9359295
-182.552447
-192.4808298
-203.119392
-211.3844282
-218.4732511
-225.2700029
-232.0300959
-238.4511093
-242.3160103
-245.6504974
-247.1267497
-248.433753
-250.4008721
-250.9414798
-249.5582486
-247.0547512
-243.1023192
-237.7490783
-231.5204772
-224.574902
-215.0881503
-201.3082258
-181.2629394
-150.2443868
-115.2297704
-74.21716479
-20.17264814
57.8772639
161.9446647
292.3647927
416.2444716
568.905216
754.9748157
968.4815515
1200.738353
1457.173121
1686.310055
1929.060085
2186.594489
2484.663087
2790.499953
3032.265626
3236.555496
3432.401855
3551.535886
3542.048358
3436.137718
3280.057271
3064.877911
2758.679284
2419.929962
2165.728199
1925.142833
1735.549909
1610.361734
1555.777743
1555.490178
1602.103136
1687.449174
1803.403729
1941.19011
2094.24438
2261.417087
2457.442438
2659.390645
2900.023341
3146.408927
3425.416992
3746.515341
4120.196721
4563.326796
5093.823068
5735.697783
6344.969562
6073.080773
4571.568529
3581.717209
2787.018645
65606.32618
)


100
(
-9.630532507
-20.28059916
-32.1748269
-41.5428834
-49.10763456
-56.4655329
-63.16425751
-69.91370699
-76.10848363
-82.95206323
-89.78275867
-96.99208009
-105.5669388
-114.7095464
-124.025416
-135.020725
-147.9085079
-158.54993
-169.936497
-182.1569255
-195.537697
-205.5017675
-215.3448985
-225.1033659
-234.9361194
-243.3994966
-249.4354653
-254.7267278
-259.2355404
-262.7230002
-264.7279052
-264.6328542
-262.3464455
-261.3663361
-256.7152071
-249.1419183
-240.9050546
-229.8075911
-215.7931984
-196.5526499
-168.3123679
-133.7071985
-92.02192947
-36.40441341
38.59296756
144.2287114
279.4491852
415.8226238
565.2651542
766.3027815
1005.666139
1279.087303
1575.43507
1843.494947
2105.806672
2372.139342
2644.216302
2947.792724
3206.754441
3375.291319
3502.997687
3580.894607
3564.214448
3431.84548
3214.770417
2964.368178
2673.205548
2322.335879
1979.334799
1785.908617
1598.368926
1484.860953
1444.979811
1465.276402
1526.820468
1621.201131
1743.42591
1886.75775
2043.074169
2211.560786
2393.304107
2593.792315
2815.258335
3047.483788
3308.85695
3585.723125
3906.729914
4230.962552
4613.215945
5062.334838
5566.149741
6151.278513
6853.860604
7666.522115
8350.559284
7548.665494
5712.71473
4608.822171
3665.217545
97963.57237
)


100
(
-9.740994704
-21.17527524
-32.39477719
-40.88239454
-48.40141746
-55.63843259
-62.32403212
-69.21620584
-76.11722449
-83.5263829
-92.15040691
-100.6951785
-110.5515847
-122.2570444
-134.2749807
-146.4816834
-160.1378479
-175.3078686
-187.8053687
-200.2925179
-213.0687542
-226.1152575
-236.4946062
-245.5327419
-253.955463
-261.6426917
-268.023713
-271.665163
-273.5571046
-273.539109
-271.2934136
-266.4178345
-260.0880324
-252.2172619
-238.0351265
-218.9205444
-193.9485145
-159.5594393
-123.9356643
-76.41956919
-13.33773948
76.41667061
198.5325795
326.319367
473.7047612
661.0095826
899.240376
1180.685828
1499.729613
1803.994553
2115.110638
2418.899397
2713.848398
3006.698664
3279.756284
3453.928886
3566.708999
3627.742359
3605.578744
3469.970167
3224.247263
2970.948345
2668.271919
2351.803228
2005.35287
1693.20626
1544.503509
1424.558198
1359.43196
1361.736276
1417.014193
1505.498494
1618.79416
1751.960885
1901.706075
2068.483223
2256.468798
2461.442084
2671.787779
2891.385791
3134.329906
3407.176597
3698.943718
4004.927805
4336.152319
4705.559569
5098.779933
5519.553488
6038.303852
6627.35684
7287.535472
8010.871002
8892.705187
9869.162525
10542.24919
9145.089564
7102.128402
5824.159356
4720.093942
133522.893
)


100
(
-9.946890146
-21.52983685
-31.93182471
-40.06143692
-47.41616855
-54.35205452
-61.27896356
-68.23814748
-76.06379405
-84.14051398
-93.7391222
-105.0605951
-116.0623568
-128.9500224
-143.7150351
-158.1348746
-172.428424
-187.5677269
-203.6116217
-216.9658124
-229.3119918
-241.3674544
-252.8302956
-262.1304447
-268.9739771
-274.2863459
-277.568273
-278.1669411
-275.7995545
-270.9150201
-262.01902
-248.5277026
-229.3961961
-202.7062056
-174.2277849
-135.2265925
-83.0196036
-13.46275187
86.69721458
202.2049512
323.9121084
475.9845773
680.5028397
935.7095784
1238.219433
1530.749432
1854.262699
2216.730926
2585.160479
2928.786394
3243.213408
3471.514998
3626.265857
3718.37541
3731.085764
3631.845871
3393.507856
3172.001297
2841.566597
2489.586794
2153.702414
1810.875725
1559.37321
1424.646751
1336.559573
1290.905604
1311.42166
1381.463487
1477.271879
1591.496028
1722.42703
1869.399695
2032.231278
2210.560151
2407.301926
2625.008332
2859.719414
3117.140015
3390.727317
3681.464676
4001.444768
4345.004507
4699.57238
5084.942337
5519.55268
5974.777513
6438.025654
6979.536114
7636.22231
8352.143342
9177.749434
10041.02977
11165.40971
12307.40874
12832.84792
10916.68957
8746.67449
7313.062558
6007.542693
186437.4786
)


100
(
-10.23547442
-21.4734957
-31.31974382
-39.04707915
-46.08835973
-52.86267292
-59.90633501
-67.11584968
-75.41485085
-84.98785907
-95.33650849
-107.8540685
-121.8992161
-135.6887201
-151.1392503
-168.1214525
-184.0059406
-199.2223523
-214.6677794
-230.0970087
-243.0768478
-254.01141
-263.8001179
-271.8062032
-277.0488401
-279.2754466
-278.2716236
-273.191076
-262.9603305
-246.139767
-226.050367
-199.1337884
-162.4869146
-113.0941598
-44.31491881
45.97250273
141.839031
264.6300047
421.3748333
634.1215208
896.7317301
1162.14871
1439.331631
1786.666099
2175.748747
2586.069244
2985.695026
3312.523324
3576.864412
3767.792439
3873.819374
3866.379687
3709.94289
3525.995833
3257.023019
2876.459696
2464.865156
2059.010597
1715.569351
1508.601711
1352.658613
1263.802659
1216.985002
1238.818559
1316.589455
1409.197965
1525.25668
1657.590453
1801.95012
1957.249322
2125.220681
2310.972225
2516.833318
2744.138998
2988.897922
3253.823623
3539.921067
3851.634596
4191.502415
4559.931929
4943.737807
5360.517734
5803.193408
6289.806272
6801.110505
7323.572051
7904.704231
8566.444953
9318.634302
10164.731
11133.06586
11929.22706
13509.58894
14791.01571
15150.76729
12899.7269
10627.72842
9041.931438
7521.216498
248111.5113
)


100
(
-10.5937511
-21.35286941
-30.5885061
-37.89688746
-44.52856382
-51.22856726
-58.22202799
-65.99622198
-74.63119473
-85.20025617
-97.14765122
-110.4628224
-125.8686535
-142.2955653
-158.2089673
-175.2196043
-193.1368856
-209.4691993
-224.3912532
-238.7758504
-252.0083207
-262.6226717
-270.2355486
-275.2052948
-276.4362827
-272.657901
-264.586066
-251.5089418
-230.5949077
-199.7810789
-156.2649703
-95.90239105
-31.68597309
53.07969242
163.5274881
313.7579095
518.5530178
735.296707
970.5626139
1257.065725
1613.642754
2019.708196
2457.109337
2845.27924
3226.253524
3567.116828
3831.33041
4001.349419
4013.782587
3937.050015
3741.32082
3448.954682
3030.668612
2565.866919
2118.757905
1800.804274
1513.963674
1315.390091
1197.581243
1133.339233
1156.364793
1220.023917
1305.109599
1410.057859
1533.127005
1674.442556
1827.625715
1993.148517
2173.513041
2368.842013
2579.301497
2807.772559
3063.626613
3338.116151
3627.780761
3938.094325
4280.088184
4658.178132
5067.396713
5507.198322
5965.070782
6448.591904
6990.090369
7551.606624
8152.492414
8791.555997
9491.733311
10262.16189
11137.74121
12074.87563
13212.23946
14241.61773
15842.40293
17290.06893
17441.89248
14999.72911
12663.80942
10953.71865
9255.674801
327514.4937
)


100
(
-10.66369866
-21.14088543
-29.76432037
-36.53930182
-42.87614678
-49.45873004
-56.39520151
-64.50403505
-73.83714321
-85.00200937
-98.53558828
-113.055729
-129.0653755
-146.7685641
-164.6794057
-181.6925511
-199.0744571
-216.548757
-232.0009224
-245.1136197
-256.5160691
-265.1518334
-269.491285
-270.3889088
-265.9049781
-254.516058
-234.1983388
-202.2240671
-165.7881428
-114.2078465
-43.71189456
50.88296915
184.2591782
337.2854188
507.7397452
719.7847108
996.4346961
1344.527624
1750.932581
2128.127562
2530.22116
2971.47161
3401.069517
3772.66222
4034.593702
4162.22472
4164.314821
4032.545873
3758.008527
3318.206555
2791.31884
2405.934512
1983.192279
1603.465025
1320.39752
1153.98048
1064.156715
1068.44241
1113.514364
1185.064784
1275.68588
1386.020663
1515.139739
1655.046615
1813.788122
1985.555722
2170.356281
2369.112607
2582.980858
2815.801802
3071.318489
3351.493057
3650.316172
3970.630654
4314.918762
4688.272473
5097.30046
5542.904415
6004.908628
6501.758893
7042.554869
7624.909852
8248.899822
8876.987754
9561.875392
10351.04524
11180.94341
12050.1496
13044.01777
14117.13629
15378.72387
17266.14956
18406.13212
19885.03314
19729.20492
17095.09078
14754.12523
12976.04743
11147.07282
435073.3143
)


100
(
-10.54960341
-20.85290005
-28.81771356
-35.11440173
-41.15635419
-47.50716928
-54.51809182
-62.76248912
-72.97127586
-84.68063742
-98.86648555
-115.3958084
-131.900899
-149.7797235
-168.750965
-187.0788747
-204.0093395
-220.4753511
-235.6894981
-247.9888853
-256.9242501
-262.1809467
-262.0030232
-254.2665247
-240.364202
-218.2966626
-183.7436709
-133.1394703
-61.84200237
32.06030133
140.9356724
283.1825257
465.6986306
713.3602005
1027.024596
1323.77823
1664.584949
2082.73937
2556.188706
3051.350261
3519.997723
3877.34648
4148.914201
4297.862309
4297.423632
4106.63483
3686.329276
3320.694478
2865.330958
2346.032435
1843.510441
1434.491429
1167.715212
1045.271985
991.9233861
1001.451356
1051.19186
1128.88271
1234.474607
1352.096758
1479.454759
1616.222345
1767.044504
1935.779325
2118.800611
2318.26422
2536.372863
2773.071185
3028.130089
3305.313414
3612.501638
3939.484171
4282.938153
4649.034771
5049.946046
5491.520377
5965.43357
6467.804757
7003.179902
7574.511428
8203.161617
8859.393685
9531.87935
10251.38592
11068.17804
11962.65296
12902.5774
13912.66715
15027.64205
16217.40616
17618.67006
19312.42827
20908.59522
22448.26138
21927.74494
19138.22244
16819.28754
15017.44492
13121.16796
569523.866
)


100
(
-10.47866208
-20.30425429
-27.72823665
-33.65314723
-39.39902156
-45.48950503
-52.55135288
-60.89916953
-71.4613998
-84.36776692
-98.82617991
-115.6957542
-134.2760938
-152.0873809
-170.7370341
-189.6917478
-207.2058349
-222.556431
-236.1063315
-246.4183705
-251.2977164
-252.0848432
-245.6190916
-229.4797552
-200.3764386
-155.0494842
-101.0629551
-24.89062632
79.22257653
218.7998527
421.8743179
630.2943077
882.6150528
1189.855868
1584.114044
2043.567858
2526.944516
2955.906366
3421.641657
3860.804712
4204.904151
4399.418074
4370.590605
4232.577827
3923.274085
3501.724112
2907.831352
2278.45536
1740.90693
1425.621286
1135.881934
970.3954055
913.3198544
919.8414271
980.289034
1073.96592
1181.303532
1293.491834
1416.0394
1552.880435
1704.249215
1868.286676
2048.592862
2245.754705
2459.127867
2689.370964
2938.494237
3209.53693
3507.845096
3830.985494
4174.711716
4544.206512
4941.206491
5369.513049
5840.569412
6350.790472
6878.821109
7431.208064
8033.225524
8691.724637
9400.705984
10133.69228
10866.21594
11692.90818
12622.12272
13622.44127
14694.27507
15836.74516
17096.91885
18353.25585
19900.89285
21577.20176
23328.24796
24882.79687
24037.86247
21101.83512
18833.06377
17028.60424
15165.17378
738725.3382
)


100
(
-10.44346355
-19.7051587
-26.62167758
-32.16531606
-37.57869789
-43.43800742
-50.40633031
-59.05911674
-69.71836383
-83.11365389
-98.55799462
-115.4486522
-134.0996101
-153.530007
-171.7418321
-189.9198733
-207.2707427
-222.0079056
-233.4978195
-240.881248
-241.5662898
-233.3732886
-217.3484331
-189.9026171
-145.7581808
-79.69803475
14.86671608
137.1049708
284.2662523
475.9280296
724.0512947
1060.208376
1447.334656
1829.732629
2266.566378
2775.622955
3301.536005
3792.022459
4172.2998
4424.729862
4519.624205
4420.902968
4138.730588
3577.752543
2989.073748
2477.516997
1964.832831
1463.976126
1108.425449
901.7252261
834.4061143
852.6518786
910.3664938
997.0183055
1096.501703
1208.474978
1338.26744
1474.990219
1620.209974
1776.691509
1949.490987
2137.839825
2341.887878
2564.739183
2809.56487
3075.04982
3362.560714
3677.165316
4020.902216
4385.8607
4769.807186
5179.379898
5624.908065
6118.22142
6645.833451
7208.675601
7804.829363
8436.995224
9117.038661
9841.706251
10583.09932
11371.77083
12214.71966
13161.26267
14178.18689
15298.52018
16498.32219
17742.59604
19077.924
20449.95542
22109.87568
23800.25842
25631.78258
27114.01742
25917.59242
22977.32327
20814.28258
19007.82001
17226.10483
949058.2919
)


100
(
-10.43674723
-19.071351
-25.49118385
-30.66088603
-35.76117972
-41.41540832
-48.17493452
-56.93394203
-67.88972793
-81.36264983
-97.37902146
-114.7127203
-133.0915312
-152.4550673
-171.5190619
-188.8189316
-204.8934034
-218.2525548
-226.6067348
-230.1117687
-225.8362459
-210.4702548
-179.7146127
-130.8608327
-67.20921985
23.95129894
150.6559092
325.0946935
570.3711841
823.6391818
1137.176822
1523.877723
2005.228579
2546.207529
3059.045562
3538.701962
4002.238979
4368.386982
4568.25613
4542.580238
4304.322036
3930.315224
3405.047402
2790.906636
2097.709463
1503.529684
1155.156547
927.5783056
797.0395528
773.8233667
817.3663394
893.5921304
997.6732832
1113.593846
1237.149629
1363.123741
1500.98494
1654.67234
1823.163965
2004.453975
2202.164206
2418.511521
2652.822121
2904.319649
3176.198155
3472.491386
3800.8725
4153.508764
4525.998943
4928.854257
5360.55672
5824.446045
6330.711802
6884.897449
7462.662595
8069.956646
8728.030452
9429.766589
10169.23484
10954.07964
11748.52011
12602.21594
13552.42565
14596.94781
15713.44977
16939.38658
18194.10903
19514.05483
20866.97854
22323.8225
24011.4884
25729.71652
27557.66357
28869.47215
27557.62429
24738.12019
22715.17676
20963.22919
19274.32736
1218628.999
)


100
(
-10.14086953
-18.41216682
-24.34745567
-29.14608925
-33.95214891
-39.36339804
-45.95145631
-54.59715555
-65.86233033
-79.34145964
-95.26431825
-113.1515652
-131.3777462
-150.1213894
-168.8877926
-186.1008104
-200.6321276
-211.9540644
-217.6332945
-214.3750183
-202.749719
-178.2710778
-135.2235161
-67.05320915
34.63434186
164.2767883
330.9028892
550.9433235
841.7780775
1231.72567
1657.450381
2102.31472
2611.445156
3176.675549
3732.105604
4201.602838
4512.379458
4651.966161
4585.217127
4294.601451
3771.498382
3006.520719
2426.233186
1864.828174
1365.588186
980.6552137
762.0775562
685.1556187
712.6603445
784.168138
883.6518301
993.8865095
1106.571943
1227.894401
1365.694668
1509.637452
1666.420197
1838.702509
2026.487127
2228.755351
2446.170992
2683.252634
2944.817117
3227.907173
3533.639245
3869.974675
4235.997939
4625.834406
5034.352944
5469.200346
5941.115585
6461.298147
7007.242878
7594.778948
8228.227025
8908.213398
9642.463561
10413.49967
11165.19608
11939.61804
12797.5147
13764.13183
14807.50317
15910.31907
17111.90729
18407.64194
19712.88137
21066.87386
22448.42058
23940.09019
25645.60306
27394.4823
29073.59461
30308.4473
28883.5547
26240.25237
24426.72658
22810.37582
21181.20096
1548770.991
)


100
(
-9.868761834
-17.69499213
-23.17329684
-27.64693725
-32.17523905
-37.32476138
-43.77706746
-52.18367692
-63.33556006
-77.16911842
-92.70368421
-110.2150578
-128.8612046
-146.9751062
-164.7845629
-181.2531619
-194.203146
-202.9586519
-205.212449
-197.3263482
-174.5925628
-134.8323467
-76.52365811
11.58897285
138.604871
318.9239362
563.6078767
838.8034375
1183.63175
1616.019701
2149.488236
2743.542265
3275.928503
3796.418924
4266.33101
4591.979936
4703.304941
4506.164219
4183.157521
3657.419808
3024.661391
2293.974959
1592.525728
1077.727771
836.2775539
677.3332019
630.3404577
663.1941016
740.2908901
839.7665251
961.2493289
1088.484846
1216.824666
1344.411989
1482.23047
1641.182698
1814.335021
2007.10093
2217.650027
2445.458484
2689.265641
2949.701969
3231.104581
3539.086338
3879.367473
4242.706446
4626.20775
5043.078695
5489.832368
5971.267033
6496.654036
7069.388804
7659.447071
8266.679677
8929.565891
9665.2158
10444.36737
11252.093
12065.04427
12867.97103
13764.52024
14789.72574
15888.80069
17067.06573
18338.44246
19620.26992
20935.55732
22276.77581
23600.99725
25113.11877
26734.30992
28445.49475
30056.38923
31052.22351
29821.48176
27431.78436
25833.33231
24423.14643
22899.26847
1946865.39
)


100
(
-9.61636036
-16.93876597
-22.01539825
-26.16235908
-30.41961762
-35.31109877
-41.55895861
-49.85103305
-60.64031292
-74.19907369
-89.84522973
-106.7469469
-124.8292821
-142.978261
-159.7381034
-174.8469163
-186.4167332
-191.4089671
-189.0421054
-175.4478349
-144.8587235
-90.42931718
-2.932250578
110.6220901
268.4611726
483.7971271
775.8167712
1173.123745
1597.540487
2074.487191
2630.561131
3243.4966
3837.710493
4320.932708