/*--------------------------------*- C++ -*----------------------------------*\
| =========                 |                                                 |
| \\      /  F ield         | OpenFOAM: The Open Source CFD Toolbox           |
|  \\    /   O peration     | Version:  2.3.1                                 |
|   \\  /    A nd           | Web:      www.OpenFOAM.org                      |
|    \\/     M anipulation  |                                                 |
\*---------------------------------------------------------------------------*/
FoamFile
{
    version     2.0;
    format      ascii;
    class       dictionary;
    location    "constant";
    object      rCH3O;
}
// * * * * * * * * * * * * * * * * * * * * * * * * * * * * * * * * * * * * * //

rCH3O_table
100
(

100
(
-148.6190062
-243.4370569
-309.2200345
-351.8585181
-378.4849564
-401.8765992
-412.3034361
-418.5993898
-418.6768995
-420.8835023
-413.3743886
-414.0542527
-405.8598981
-393.6610199
-386.6333075
-373.1955791
-355.7124154
-345.4361474
-331.0894953
-313.5797837
-301.3115257
-289.052821
-274.6517141
-260.4935635
-249.9219609
-237.7106784
-224.1404149
-212.2531624
-202.7638032
-192.1042284
-180.5409401
-170.8903669
-161.9950181
-152.4365852
-142.3690594
-133.2560411
-126.2274911
-118.5969811
-110.5444421
-103.0538149
-96.93557276
-90.46560746
-83.75067469
-77.49225447
-72.1999625
-66.77817204
-61.31510786
-55.98166464
-52.01641823
-47.95832914
-43.89329947
-40.05966631
-36.96643835
-33.86518658
-30.78936726
-28.01329129
-25.59196261
-23.21892234
-20.92898733
-18.89033297
-17.14700425
-15.46144788
-13.84822483
-12.43146478
-11.18449228
-9.994269007
-8.870338545
-7.92840533
-7.058353962
-6.241258295
-5.513327567
-4.883829234
-4.296355349
-3.762442483
-3.312503936
-2.894859415
-2.518355182
-2.199279975
-1.903973432
-1.646094966
-1.419705264
-1.211842838
-1.038649023
-0.8774952394
-0.741271231
-0.6162118512
-0.5107758729
-0.4154643196
-0.3345842528
-0.2643772389
-0.2037197674
-0.1525489497
-0.1106656731
-0.07657062139
-0.05023120257
-0.03027345169
-0.01778408127
-0.009116476681
-0.002515266674
-2.795289856e-13
)


100
(
-141.6324477
-220.7812793
-272.4312293
-299.5802291
-320.4071896
-337.451952
-332.8070214
-341.6659257
-333.4686202
-333.9630867
-328.4271519
-318.9514208
-313.0291677
-300.3876946
-287.7930457
-278.1876645
-264.6708281
-248.5894269
-239.2684991
-227.4717272
-213.6057059
-203.3861122
-194.0889112
-183.2556078
-171.5680442
-163.9959462
-155.1785461
-145.4796881
-135.5317638
-129.1801626
-121.9032401
-114.1009351
-106.4677406
-100.7516806
-94.55666333
-88.13779698
-81.71470289
-76.45188416
-71.83477006
-66.86794992
-61.89189146
-57.47971165
-53.77073849
-49.90378558
-46.13357162
-42.69665785
-39.77969328
-36.85631193
-34.00594823
-31.38337212
-29.13950706
-27.06833267
-25.02671808
-23.14072311
-21.47179586
-19.98299504
-18.58999741
-17.29251522
-15.93826753
-14.23630799
-12.35914046
-11.54069099
-11.25250387
-10.26584915
-8.860484876
-8.299736649
-8.03434823
-7.088169056
-6.267951158
-6.050637844
-5.704194492
-4.978975389
-4.720005247
-4.552033646
-3.594193433
-2.885203006
-3.463511797
-2.898380366
-2.353740598
-2.843431419
-2.222203353
-2.246210202
-2.267092909
-1.747380896
-2.049149041
-1.823649289
-1.532095991
-1.845726019
-1.479420954
-1.731176962
-1.629153393
-1.753862211
-1.657567513
-1.754255094
-1.763319873
-1.934135228
-2.031130787
-1.956907359
-0.8918662145
-0.3352188576
)


100
(
-133.9928601
-197.3258665
-237.4299965
-255.1795868
-277.5160238
-283.7372398
-284.7535378
-281.7391526
-278.8898629
-270.4092297
-267.7696487
-257.5531176
-250.1052678
-241.562619
-228.8976243
-218.807001
-209.606367
-198.0640089
-186.010487
-178.338301
-169.2652703
-159.4864731
-151.1711261
-144.1674686
-136.4187862
-128.4005843
-121.7933873
-115.430346
-108.7888126
-102.1734465
-96.49819911
-91.50714255
-86.31050078
-81.19133377
-76.5012467
-72.34342575
-68.1027411
-63.96687856
-60.02843748
-56.60183334
-53.38415569
-50.14838601
-47.04462532
-44.12435339
-41.61187914
-39.15943765
-36.84405732
-34.64962017
-32.65294139
-30.77012979
-28.92841225
-27.11516997
-25.30670946
-23.66955301
-22.06571581
-20.580245
-19.19530199
-18.01573374
-16.84928367
-15.60508234
-13.97881576
-12.21300019
-11.34873318
-11.12822951
-10.56942541
-9.66336345
-9.150234475
-8.843403848
-8.265877509
-7.857323594
-7.686917328
-7.509821149
-7.18240518
-7.0790372
-6.839953689
-5.712646869
-4.320747388
-4.504265021
-4.58764446
-4.626669291
-4.625784892
-3.624132918
-4.695553724
-3.295328613
-3.643126797
-4.403811536
-4.015390455
-4.577056509
-4.964205415
-4.803254736
-4.850513378
-5.156390932
-5.453820437
-4.654150461
-5.990036884
-6.736306497
-7.293219138
-5.794300931
-3.122494767
-1.587618828
)


100
(
-125.7467148
-176.845658
-206.3842657
-227.0505234
-240.6020249
-240.6127514
-245.0665058
-237.1900908
-236.7882462
-229.707268
-224.1211885
-218.0018577
-207.7198776
-201.6804358
-193.1404708
-182.6159182
-174.6425196
-166.8794542
-158.1056779
-148.9420742
-143.0353176
-136.3411485
-129.3000381
-122.5769476
-117.4308822
-111.8257703
-106.0432304
-100.5227519
-95.89489979
-91.13093462
-86.42922387
-81.78861848
-77.9698384
-74.17549788
-70.40452001
-66.70174888
-63.31133645
-60.22000133
-57.18687908
-54.22827778
-51.31062712
-48.59011297
-46.02664295
-43.38671897
-40.83898492
-38.28206553
-36.14210083
-33.9958364
-32.02296519
-29.9997218
-28.3105001
-26.54606937
-24.94921677
-23.46754238
-22.18188024
-20.87450648
-19.70587074
-18.69499804
-17.80472364
-16.93510667
-16.16213168
-15.28331616
-14.20069117
-13.52683912
-13.25975382
-12.97557021
-12.60796119
-12.34594185
-12.03297124
-11.39346714
-10.5560957
-9.628597687
-8.498002919
-7.350646177
-7.958457398
-7.186909091
-3.684771908
-5.490137321
-7.485964381
-4.027526271
-4.787704806
-6.248291579
-5.471168857
-6.606543195
-7.695927907
-7.771521492
-7.532055095
-7.142932011
-7.677491274
-6.969883746
-6.625002856
-7.196307976
-6.604843342
-8.772854211
-9.106974415
-9.687156006
-11.5793622
-9.294866387
-6.152239341
-3.966135127
)


100
(
-116.9446061
-163.6916179
-186.8214934
-201.3953291
-208.9219968
-212.7229765
-212.5928673
-209.19991
-204.1204084
-200.7529317
-192.7681047
-188.9031166
-182.1848837
-173.8396839
-168.1815466
-160.9039125
-152.6037644
-146.3042749
-140.2526038
-133.7072607
-126.8760144
-122.0126088
-117.0213948
-111.8089431
-106.4248162
-102.3018419
-98.05534616
-93.61570956
-89.00844183
-85.04027753
-81.30772603
-77.59707726
-73.86811088
-70.12291555
-67.04086701
-63.8094049
-60.61262282
-57.12304414
-54.35461739
-51.50213569
-48.71690697
-46.06265924
-43.4933796
-41.3096049
-39.0812649
-36.98180972
-34.7877822
-33.13989619
-31.42157576
-29.86930076
-28.3809442
-27.05062062
-25.68643282
-24.546321
-23.61676541
-22.69078905
-21.73567201
-20.94653947
-20.30579891
-19.7283558
-19.30498576
-18.95381364
-18.33197896
-17.20750924
-15.90040286
-14.59120638
-13.52216454
-13.00021083
-12.34479371
-11.61305246
-11.283837
-11.31356746
-10.52993911
-6.872040984
-2.690699379
-5.003518995
-7.392121232
-5.165442226
-5.49997628
-7.207415437
-8.684586735
-9.431038522
-7.018453509
-5.260626721
-5.576330301
-5.974302498
-7.73176034
-7.092870572
-5.103876141
1.500946516
-1.973774011
-4.569240713
-1.432661847
-3.008147836
-1.882053424
-0.9034948872
-3.925839197
-8.009122029
-7.465550501
-6.899149526
)


100
(
-107.6360214
-149.8288303
-168.235097
-178.4360343
-183.0964074
-189.0059177
-186.2308751
-185.939938
-180.3402564
-177.8124471
-173.1649856
-166.8860963
-162.8288451
-156.6448486
-150.1155997
-145.18565
-139.3195415
-132.8247576
-127.755778
-123.0658511
-118.0283624
-112.6887952
-108.3855581
-104.4497429
-100.2717177
-95.84492632
-91.85416903
-88.26893787
-84.46851454
-80.49540848
-76.44427466
-73.13486133
-69.75201467
-66.43335082
-62.66792858
-59.98069152
-57.1112454
-54.45431372
-51.0164019
-48.73825184
-46.24993503
-43.97580447
-41.65902667
-39.71782905
-37.96667521
-36.31369564
-34.68982282
-33.22456084
-32.02679746
-30.8173911
-29.82733417
-28.92451181
-27.92758984
-26.95897599
-26.24036555
-25.64762653
-25.00135486
-23.91602744
-22.22829073
-20.30654972
-18.66295796
-17.40525337
-16.21319324
-15.09105896
-14.49686183
-14.27567154
-13.82115142
-13.38181459
-13.6382175
-14.15999357
-14.17898174
-12.6798399
-10.5080049
-8.384178406
-6.978789396
-3.78684733
-5.782961738
-7.779048435
-8.694308462
-5.805561689
-2.010809156
-0.297675069
-1.860579404
-1.885037833
-0.6248155712
2.881785653
2.721572914
3.814873393
14.07736662
13.66672194
11.9192225
18.60803313
19.09073147
22.67708818
26.13562123
29.67204527
21.57370045
4.814859442
-3.028937884
-10.20121925
)


100
(
-100.5752051
-136.2694773
-150.9298969
-158.0783524
-165.4558168
-168.5527306
-167.9963051
-166.463318
-163.8571175
-159.235324
-157.1219146
-152.2769544
-147.6488383
-143.7202636
-138.364976
-133.1813066
-129.0662514
-124.2983714
-119.0259654
-114.6177159
-110.7766757
-106.5637627
-102.0108901
-97.77075234
-94.3404596
-90.57435948
-86.44832144
-82.7523823
-79.45049459
-76.00536595
-72.2941735
-68.36895855
-65.47440781
-62.47424297
-59.38851522
-56.09144436
-53.87989543
-51.58681915
-49.18178671
-46.55801927
-44.7636742
-42.87310945
-41.11757977
-39.52088807
-38.13087554
-36.92606485
-35.71972799
-34.78919928
-33.72698232
-32.81683239
-31.93774463
-31.18327681
-30.04796258
-28.29440184
-26.22988037
-24.0483743
-22.06628181
-20.50104417
-19.1298377
-17.60575532
-16.16764444
-15.43427625
-15.3139908
-15.11110025
-14.73137497
-14.84104662
-14.75450089
-13.18693745
-10.80112431
-8.48503847
-6.31693959
-5.126502688
-5.18159265
-4.857108491
-4.98530733
-5.038453873
-1.597628931
2.094579836
6.492926421
8.526027972
7.766893129
8.194574422
12.13877958
17.70559955
20.28496884
21.45607532
25.03325916
29.88209841
39.66836845
42.90998243
38.92825308
39.62441714
41.15000467
43.23099988
45.96834844
47.03060379
44.63188619
29.44316318
13.55033951
-15.45782869
)


100
(
-94.89568089
-122.7895425
-134.7773345
-142.4848803
-149.4533467
-150.7633751
-152.6795458
-149.8392998
-149.5241757
-146.3226913
-143.4991947
-140.9276414
-136.3512044
-132.9072347
-129.3352405
-124.7070501
-120.3377298
-116.7710527
-112.6485134
-108.0248482
-103.7623728
-100.303125
-96.41312592
-92.21981532
-87.813959
-84.73319978
-81.25042102
-77.38818686
-74.10219014
-71.10968776
-68.28049425
-64.49569083
-61.45332097
-59.04616549
-56.67314004
-53.82815684
-51.36522041
-49.66332971
-47.91534405
-45.98789317
-44.21145875
-42.88883801
-41.59194771
-40.41812779
-39.3775418
-38.31531415
-37.24988628
-36.12793371
-34.75421089
-32.75613302
-30.37773267
-28.01565947
-25.6228707
-23.42209371
-21.52414412
-19.83012566
-18.33547152
-16.98415378
-16.32503817
-16.16169278
-15.77485632
-15.20871039
-14.9720647
-14.17152506
-11.37627605
-7.904159812
-5.096286236
-2.251428773
0.1893884371
0.9145413152
1.186227114
1.920319788
2.319862273
5.393944753
10.63057225
14.93307858
19.56079012
21.36138586
21.36098252
22.02699953
27.02829038
32.312632
35.3631035
36.29259421
37.55006624
39.29040042
41.14247318
40.53694642
43.01075738
40.07129019
34.3743305
33.25801846
31.52554897
29.27406504
27.67543126
23.41341646
34.303923
38.76589294
33.26248753
-25.08028137
)


100
(
-88.85792909
-111.2177283
-121.7768335
-129.488332
-134.8478265
-137.356665
-138.8419341
-138.0600546
-136.68643
-135.5989467
-132.255324
-130.6705632
-127.9855298
-123.7345021
-120.9876006
-117.6738956
-113.4804262
-109.4802271
-106.1429152
-102.1732734
-97.83528193
-93.42494144
-90.24671685
-86.64790477
-82.84403122
-78.78855678
-75.77608656
-72.73330295
-69.28712623
-66.50423726
-64.07797899
-61.68392009
-58.42515305
-56.18478501
-54.37561301
-52.38061148
-50.30373589
-48.53882003
-47.41350074
-45.96896385
-44.76645744
-43.40230644
-42.30957929
-41.05762594
-39.84589644
-38.19697269
-35.82284116
-33.15084234
-30.23716887
-27.26664904
-24.56243347
-22.21181795
-20.24614622
-18.42498039
-16.9084852
-16.05794365
-15.67268786
-15.04014458
-14.3413218
-13.91008894
-12.85743808
-9.871194669
-5.878393673
-2.007538738
2.059268939
5.887997674
8.041596396
9.195862799
10.59500896
11.78672931
13.92665829
19.53746818
25.20685979
30.19510231
34.74665527
35.56088961
34.88169412
34.86908446
37.80249447
40.56181629
41.44133789
39.50679536
36.38474567
35.87210958
34.87373088
33.94807295
28.26724638
27.85686908
21.29114404
14.78885434
9.924431819
6.671975701
2.099341469
-2.253263042
-8.142903315
-15.8058128
6.834783675
21.19539138
30.65199812
-38.50338116
)


100
(
-82.49386974
-102.3443644
-111.0926594
-117.3815539
-121.4808652
-125.72144
-126.1368228
-127.2667218
-125.5654285
-125.544033
-124.0171655
-120.9733573
-119.7887319
-117.031367
-112.9530334
-110.4607109
-107.1932578
-103.1704334
-98.91321837
-95.67535046
-91.97705901
-88.02574724
-83.60673943
-80.77029938
-77.5881367
-74.33394767
-70.95767506
-67.98014154
-65.468467
-62.52448194
-60.32420827
-58.70599199
-56.4759178
-54.2236679
-52.64007326
-51.42716262
-49.81038625
-48.40332727
-47.06595546
-45.98127024
-44.54332336
-42.99788921
-40.75337988
-38.09094099
-35.30849226
-32.3622404
-29.40067858
-26.38271921
-23.41631516
-20.89067315
-18.38336434
-16.48861275
-15.356836
-14.54124488
-13.51592392
-12.59227046
-11.66638457
-10.01233155
-6.491924312
-1.728223808
2.859814747
7.236299264
11.45938812
14.66939683
17.1439093
19.72167895
21.89201337
23.47396894
26.96959639
32.3067005
37.21874874
41.89718067
44.50178409
43.39912298
41.03596798
38.76632725
38.50437714
38.09879649
35.9439857
31.67238369
26.62411168
22.92831847
20.31329186
18.21104319
13.29267543
9.223549442
5.086797493
-0.7034069696
-6.462817088
-11.72160027
-16.1141622
-20.74382367
-26.61090848
-33.16205302
-42.17581603
-47.24089237
-23.21325936
-2.924241404
11.73771858
-56.45807425
)


100
(
-75.83544165
-93.48034555
-100.956352
-106.0253258
-111.0310828
-114.7793193
-115.9940572
-117.0531803
-117.0701367
-115.9082259
-115.8441147
-113.9794514
-111.4860641
-109.9448187
-107.0306175
-102.8172926
-100.247914
-96.94163497
-93.01049223
-88.6627654
-85.70415462
-82.3838023
-78.92175614
-75.14041506
-72.34218967
-69.75694439
-67.14474695
-64.49574356
-61.7598491
-59.57288745
-57.31008979
-56.16293108
-54.65643066
-53.11692043
-51.47466858
-50.35140859
-49.09654711
-47.60469707
-45.81509343
-43.58234117
-40.95988968
-37.88759853
-34.49565008
-30.98768705
-27.13409597
-23.95195907
-21.05885566
-18.49179566
-16.36232261
-14.69257892
-12.92812799
-11.47117115
-10.06687292
-8.80047911
-7.029277108
-3.79553377
1.412297674
6.550863219
12.25395494
17.73896812
22.20926015
25.79540592
28.75471534
30.85936499
31.90915673
33.24984829
36.9425082
40.88165106
44.39831265
46.72507028
45.23209657
41.64419653
38.22720469
33.2255601
30.03294184
27.05618561
22.73478065
17.5071196
12.07414902
7.428199306
4.189893682
1.199299659
-3.238823285
-8.607601739
-12.49240135
-16.3071231
-19.13959304
-25.87683688
-32.0437394
-37.62752845
-42.75240525
-47.32282492
-53.57748199
-60.13123978
-69.36809119
-68.31180344
-44.55908447
-26.48414323
-7.155089358
-74.32145506
)


100
(
-70.29921409
-84.96532932
-91.31754477
-95.7883068
-101.5630981
-104.486563
-107.133901
-107.3365551
-108.75032
-108.2270262
-107.7060132
-107.0514177
-104.7990023
-102.4328662
-100.4619795
-97.29952931
-92.93845976
-90.32465058
-87.11850857
-83.51756222
-79.28749433
-76.71639913
-73.88953969
-71.02496337
-68.02483364
-65.37596115
-63.45948507
-61.50691622
-59.56698857
-57.5958083
-55.68014137
-53.74639705
-53.10794581
-51.81820431
-50.29699567
-48.30164577
-46.32495627
-43.80884492
-40.87646022
-37.45595678
-33.39259549
-29.47483821
-25.76760087
-22.08033654
-18.79520833
-15.8314398
-13.077771
-10.88867886
-9.166402977
-7.594810739
-6.121122596
-4.050667906
-0.5713327031
4.135044077
9.613583142
15.59759711
21.31179619
26.94664267
31.85763086
35.47076084
38.08443522
39.01898276
39.12011313
39.76546249
41.32866681
42.78295803
43.6673188
42.09628826
38.62375175
35.51832639
29.0840369
21.79365641
16.85914985
11.92272304
6.70611246
1.527089677
-3.217730102
-7.970531036
-11.84724333
-15.3498419
-19.29255202
-23.4715725
-27.79809926
-32.33618181
-35.99550046
-39.27977777
-41.5214331
-47.01145675
-52.44025632
-56.36324004
-59.99642016
-65.38364918
-71.35483439
-78.59079817
-87.37930215
-80.42843159
-58.87112478
-43.58064729
-25.23815145
-93.32321757
)


100
(
-66.13896264
-76.78213368
-82.33094662
-87.7728462
-92.65747852
-95.71019768
-98.64347501
-99.80952184
-100.628304
-101.3148183
-100.2327741
-99.95557351
-98.67763948
-95.9351033
-93.47288109
-91.19832343
-87.97557475
-83.71362409
-81.10709668
-78.25539534
-75.10491786
-71.5434794
-69.08025002
-66.85885751
-64.62010938
-62.36458589
-60.03760203
-58.5817302
-57.1649977
-55.74320725
-54.23561005
-52.27067832
-50.53828601
-48.99112386
-46.65722836
-43.82225416
-40.39698872
-36.09650895
-32.48882023
-28.55320601
-24.63021127
-20.59470043
-16.50046527
-13.24711323
-10.36538041
-7.848085181
-5.639409962
-3.472772461
-0.678099294
2.35344001
6.111546793
11.03028133
16.80694281
23.10816144
30.14220744
35.13805367
39.32913425
42.07892917
42.94672544
42.44927938
41.38897014
40.23225915
39.47866287
38.39954615
36.10871284
32.52667048
29.15095321
23.79346447
15.96916255
8.396152131
2.121076184
-3.424696828
-8.03029979
-12.4373432
-17.24638338
-22.2858419
-26.8115158
-30.8980658
-34.46391135
-37.58619066
-40.47173822
-44.31105306
-48.42425538
-52.26040379
-55.04166354
-57.39529458
-59.18346837
-62.61327406
-65.67033432
-68.60791601
-71.97043339
-76.07654373
-81.18496047
-87.99778682
-96.00267872
-85.21994076
-69.20192235
-54.02765522
-39.4698616
-117.8458116
)


100
(
-61.79377322
-69.85837702
-75.197211
-80.13325724
-84.28216834
-88.2453106
-90.49122038
-92.75245368
-93.11584458
-94.37853232
-94.30560747
-92.65361303
-92.22426472
-90.3947483
-87.3193971
-84.82470976
-82.4714876
-79.4365062
-75.54202874
-73.03854096
-70.68011149
-68.0702641
-65.22605089
-62.91103814
-61.2935803
-59.62370542
-57.92728077
-56.15253645
-54.51176572
-53.26779993
-51.72372806
-49.76155501
-47.15453279
-43.57562422
-40.34231946
-36.68513851
-32.59311452
-28.19571739
-23.13357852
-18.62259774
-14.98871702
-11.60567646
-8.258210312
-5.131616232
-1.875183485
0.8182567386
3.608975486
6.903165016
11.14828009
16.57264993
23.47804582
29.60552321
35.10729621
39.79581938
43.40103869
45.15043756
45.2752065
43.72065315
40.78455794
36.9907598
33.46609864
29.89226035
26.22343028
22.68338087
17.89293505
10.65089296
2.78323096
-4.415501031
-11.0237706
-17.0504388
-22.3818902
-27.30042141
-31.82131197
-35.97653699
-40.16735581
-44.6326513
-48.04227714
-50.82408025
-53.04250136
-54.99002063
-58.37067884
-61.7354274
-64.18089891
-65.94235347
-68.34562766
-70.22793344
-70.21861714
-71.36469171
-73.15102024
-75.21043453
-77.83645221
-80.12522445
-85.3541217
-91.64719608
-97.41592187
-86.19835454
-74.16603222
-60.67511368
-48.20507178
-145.4018008
)


100
(
-57.28218781
-63.97981735
-68.6150988
-72.95849368
-77.05801829
-81.07083096
-83.43235096
-85.81808117
-87.12899184
-87.33574373
-88.14626913
-87.30958394
-85.46851509
-84.49363885
-82.37989686
-79.18308953
-76.770855
-74.58373991
-71.87563597
-68.57956195
-66.22076022
-64.40461677
-62.34634482
-60.17874488
-57.96769559
-56.79631273
-55.43619222
-53.95943514
-52.19965745
-49.86599858
-47.65178221
-45.0691441
-41.8113191
-37.79372109
-32.91558459
-27.60679732
-23.33061301
-18.94385965
-14.68098472
-10.13993184
-5.644010493
-2.059181158
0.7715314367
3.864700618
7.037984956
10.77250243
15.66618949
21.06331312
26.63126534
32.45560891
37.78498558
42.59072612
45.8846436
46.6476524
45.82969228
42.71834573
37.59198856
31.75166918
26.2616801
21.40066471
16.75380685
11.55745909
4.922539287
-1.945768646
-7.887064256
-15.14090587
-22.86180989
-29.78514946
-35.75327107
-40.85687713
-45.23320147
-48.99767134
-52.55882031
-56.53390596
-60.65758759
-64.47774039
-66.82217404
-67.68598338
-68.36368774
-70.04412401
-71.9088112
-73.99770869
-74.78824665
-76.4382011
-76.96002343
-75.81991174
-75.46867243
-75.70993499
-76.09311322
-77.3012956
-78.88813271
-77.62844247
-84.46689853
-89.90334843
-93.63934639
-84.32681483
-75.07414712
-63.09803879
-52.8714313
-174.8964467
)


100
(
-52.62296431
-58.36923122
-62.43983672
-66.21398181
-70.76431781
-74.17156302
-77.25241669
-78.93892669
-81.03961036
-81.57901705
-81.69979966
-81.66892264
-80.25630599
-78.27061722
-76.99800546
-74.85806389
-71.81231293
-69.53251528
-67.680916
-65.40625621
-62.77518205
-60.54445814
-59.24416963
-57.67318519
-55.95447542
-54.05645031
-52.46136916
-50.9243319
-48.89594504
-46.20916049
-42.71259903
-38.14117606
-34.24308845
-29.795811
-25.03490654
-19.74597031
-13.85671098
-9.112502524
-5.167027381
-1.368952425
2.60517107
6.538010448
10.84156054
14.52176845
18.65638236
23.2722408
28.46048976
33.93953353
40.19645303
43.70542355
45.91448764
46.21838821
44.30387603
40.04966159
34.18537616
27.71556902
20.57997315
13.4201848
6.575083286
-0.2923560307
-6.350342387
-12.08030212
-18.93487626
-26.53822958
-33.8120475
-40.83503336
-47.15580123
-52.62857797
-57.32700817
-61.18314669
-64.17963891
-66.97550861
-70.89840295
-75.05994758
-77.95574853
-79.65487711
-80.4238075
-80.98801619
-81.6447866
-82.50830753
-82.31245058
-81.7623069
-82.07532701
-82.04342785
-81.51625746
-79.24641684
-78.141575
-77.43725648
-76.82989589
-76.55573169
-77.18987915
-74.3875897
-79.2015092
-84.22618024
-87.37292983
-79.54971
-73.28754289
-62.77817454
-54.18830119
-205.3533921
)


100
(
-48.94261608
-53.07084439
-56.62683425
-60.4784653
-64.74471348
-67.85159167
-71.17649991
-73.20064817
-74.85948423
-76.09795217
-75.8270197
-75.73239464
-75.09095541
-73.27803815
-71.31034754
-69.98194934
-68.02439272
-65.32178159
-63.18809367
-61.75543315
-59.96196109
-57.94562536
-55.76344765
-54.77704202
-53.39369874
-51.73451558
-49.62302839
-46.72534465
-44.14025507
-40.80665338
-36.75194435
-31.94206238
-25.95280071
-20.47170665
-15.75810901
-11.04384927
-5.944069051
-0.6535000278
4.67634847
8.541596311
12.13103787
16.06192629
20.32423205
25.14310883
30.86479578
35.830813
39.86547788
42.94847549
44.78605154
44.82171783
42.43336803
38.06752724
31.88877819
23.71054334
14.79533412
6.187475211
-2.018131333
-9.312681867
-16.33098038
-23.51356971
-30.74936754
-37.43229547
-43.6561466
-50.30855155
-57.21367162
-63.61233674
-68.96636363
-72.89984989
-75.56643471
-77.60126927
-79.79353874
-82.73147893
-86.20141666
-89.24833855
-90.99773752
-91.27103001
-91.51150545
-92.41108926
-91.54467557
-89.52392916
-87.90655538
-87.37968679
-87.70090874
-85.17352017
-82.2406947
-80.14714031
-78.64961199
-77.0316593
-75.35671139
-74.13460889
-73.62326524
-77.61037785
-75.85546492
-79.83656339
-80.62859919
-74.15536236
-68.63858103
-60.38391252
-53.56063334
-242.1350259
)


100
(
-45.91585742
-48.13037618
-51.38546801
-55.24946174
-59.0136864
-62.48173579
-65.21160113
-67.75893
-68.94170999
-70.44922361
-70.82620022
-69.7810685
-69.61961866
-68.63747241
-66.66561108
-64.82781702
-63.63090269
-61.93141087
-59.72444577
-57.70838976
-56.70793866
-55.34055887
-53.70280899
-51.76369371
-50.17721821
-48.48477479
-46.14246208
-42.92042715
-38.72205628
-33.74218395
-29.2046848
-24.16459165
-18.76553482
-12.51040226
-5.852488338
-1.214688852
3.12698175
7.828866932
12.6308116
17.43529269
22.54323216
26.61394411
30.77692087
34.89921711
38.78298234
42.37895881
44.64836665
43.69050316
41.02305479
36.10886119
28.93941373
20.03735606
10.369073
1.016066963
-8.243718582
-17.20805594
-25.84143782
-33.86331367
-40.74310549
-47.20535608
-53.81177579
-60.29927327
-66.64290118
-72.85934466
-78.29612374
-82.9003595
-86.52720472
-88.91900676
-90.31415451
-91.66106593
-94.05074496
-96.73381175
-98.29826796
-98.71516172
-98.76299656
-98.84169442
-99.3495979
-99.57159202
-97.93518706
-94.52211876
-92.39807725
-90.41262072
-88.42477525
-85.18446515
-82.18859603
-79.8680023
-77.33380193
-74.84135715
-72.48496458
-70.50306452
-68.91604068
-69.71842155
-70.36551458
-72.80692133
-73.52789441
-69.10326568
-63.82842185
-55.88054017
-51.22856514
-278.9944355
)


100
(
-42.80729382
-44.04344343
-46.91079938
-50.3333165
-53.67965363
-57.27830503
-59.80407138
-62.36274774
-64.00771268
-64.65945983
-65.61951761
-65.33589119
-63.93067428
-63.64251068
-62.5790116
-60.68121682
-58.98164423
-58.03262992
-56.66073911
-54.94697363
-52.97341846
-52.24433934
-51.0170433
-49.38954297
-47.16255141
-44.14821249
-41.37070709
-37.71434348
-33.16761732
-27.78783275
-20.75071056
-15.41027703
-10.10849644
-4.790793626
1.330039435
7.481061984
13.20302765
17.04827074
21.44342419
25.80340294
30.29454102
34.63798956
39.3587597
41.5476437
42.6108222
41.92207706
39.55841043
34.61122357
27.35057325
18.93864228
8.847511981
-2.15335611
-12.88461571
-23.30056294
-32.90521082
-41.4797402
-49.5114133
-56.99146666
-63.64809163
-69.55567051
-75.38295252
-81.34527237
-87.43690009
-92.97262136
-97.16056257
-99.61184576
-100.6945182
-101.4376453
-102.4777073
-103.676007
-104.9589183
-105.8161638
-105.6786543
-104.7963835
-104.7523374
-105.7378624
-105.2457964
-102.712733
-99.45910248
-96.80824635
-94.86938427
-92.24743378
-87.97704434
-84.01576292
-81.14782449
-78.26857255
-75.24535896
-72.20237415
-69.17868753
-66.51854137
-64.14236643
-63.68942955
-64.21666951
-66.95436203
-67.62843614
-64.11653655
-59.23585216
-51.36085617
-48.81573433
-318.1464204
)


100
(
-39.62804908
-40.29331784
-42.72849061
-45.73320229
-49.16694717
-52.2957281
-55.074605
-57.01092229
-59.04550215
-59.92750641
-60.24348754
-60.5702132
-59.90139191
-58.45349703
-58.05726244
-57.08069751
-55.40139569
-53.81170636
-53.16005598
-52.07321512
-50.64997854
-48.96638616
-47.72754304
-46.21956277
-43.96011517
-40.67981557
-36.2852368
-31.30333049
-26.49052689
-21.04897276
-14.94901958
-7.713138126
-0.8993396424
4.203208027
9.277587929
14.88964846
20.38070184
25.71556985
30.12635462
33.85106917
37.00833678
39.50286072
40.95271317
41.4267356
39.13217407
34.53853397
28.01635326
19.28602003
8.73575288
-2.984408845
-14.84446734
-25.97012778
-36.61837606
-46.71767146
-56.29283992
-64.60810911
-71.80133299
-78.16721994
-83.93908417
-89.54960034
-95.36051133
-100.8681285
-105.314539
-108.5331985
-110.771596
-111.6972183
-112.0427004
-112.5300588
-113.8517964
-114.8289449
-114.1569326
-112.1003696
-109.9074211
-108.5365469
-108.2451477
-108.6472952
-107.8757528
-104.6413473
-101.583571
-98.79285821
-94.54435538
-90.61153005
-86.19361677
-82.57265054
-78.93372045
-75.3735745
-72.25555301
-69.17733978
-65.83274185
-62.40158946
-59.87637843
-58.70686362
-59.62654839
-61.57877091
-61.2649485
-58.69441574
-54.61233473
-47.19386242
-47.50216355
-360.9594169
)


100
(
-36.38898194
-36.78772153
-38.84349399
-41.55877804
-44.87561312
-47.56805823
-50.48574855
-52.4551443
-54.07603516
-55.34552562
-55.5494983
-55.64833248
-55.59878239
-54.71230312
-53.35679716
-52.99298787
-52.14630235
-50.79555354
-49.23377752
-48.74794522
-47.84816685
-46.53892788
-44.64714501
-42.21577473
-39.77173501
-36.35198151
-31.8418879
-26.1738872
-19.01693338
-13.57439922
-7.775493684
-1.57585133
5.448523772
12.46705072
18.08643443
22.59764591
27.34765755
31.72784635
35.61560515
38.96065766
40.87697283
40.6343237
38.60587495
34.72738872
28.79592112
20.5479074
10.8717842
-0.01667582146
-12.29315163
-24.96998762
-37.38390411
-49.35767283
-59.79365309
-69.15821863
-77.67863771
-84.84762281
-90.91758686
-96.54014436
-102.0986102
-107.5526612
-113.050095
-117.8533369
-121.0073005
-122.1614494
-121.9265349
-121.6949144
-121.8994038
-122.252179
-121.8321749
-121.1317484
-119.25723
-116.5155876
-114.2128815
-113.1563566
-111.9443317
-109.7739194
-107.1912751
-104.0950933
-101.7206986
-99.22733352
-94.28151718
-89.14451813
-84.7206774
-80.99564765
-77.32491529
-73.51588529
-69.84102729
-65.69095111
-61.83029941
-58.08895029
-55.57272293
-53.73029973
-54.45663849
-55.79409568
-55.79401078
-53.74824616
-50.01020816
-43.71272986
-46.64659057
-414.2282883
)


100
(
-34.20816046
-33.53858553
-35.2595503
-37.91747114
-40.84683858
-43.5826336
-46.04868932
-48.19793191
-49.45113206
-50.74833659
-51.38276136
-51.06684697
-51.11998586
-50.90435925
-49.97992667
-48.71033438
-48.45939175
-47.79360549
-46.7148608
-45.34260627
-44.56835089
-43.51278555
-41.77313118
-39.0702338
-35.22114468
-31.08995637
-26.52856622
-21.10723542
-14.62627416
-6.864222661
-0.04556135382
5.64596546
11.61614508
18.05456183
24.17660427
29.83484671
33.66223002
36.6694781
38.60864967
39.43213853
38.92357016
36.45143616
31.09339163
23.85427089
14.69345483
3.893316604
-8.286848512
-21.36764447
-34.1172789
-46.73960589
-59.08443743
-70.49783607
-80.62768676
-88.91550747
-96.24720503
-102.1706382
-107.522818
-113.0328948
-118.7166893
-123.7646471
-127.5125728
-129.8386108
-131.2105996
-131.1990851
-130.778806
-130.4949738
-131.1255584
-131.2040926
-129.4685054
-126.2432859
-122.7680645
-119.8952769
-116.9769984
-115.0198535
-112.8539567
-109.9308949
-107.1697091
-104.8545912
-100.910642
-96.00771989
-91.41060423
-86.77609546
-82.62387988
-78.34656856
-73.77718205
-70.10103509
-66.53447476
-62.74153693
-58.44424982
-54.6024481
-51.72269947
-50.33532904
-50.62828555
-52.01569284
-51.37227014
-49.53176551
-45.83314655
-40.47142909
-44.07760968
-455.2776128
)


100
(
-31.99327584
-30.68938573
-32.18059755
-34.51950214
-37.07310867
-39.77603209
-41.93530231
-44.06081372
-45.50203131
-46.16845405
-47.14497153
-47.35633731
-46.77052057
-46.81300182
-46.57266042
-45.72280639
-44.54139716
-44.36451469
-43.82541978
-42.88357333
-41.49439692
-39.92094896
-38.22845417
-35.55985681
-31.76983991
-26.67132115
-20.52505501
-15.24220739
-9.333562384
-2.569291492
5.126692947
12.89107979
18.48428516
23.70672712
28.8523114
33.34083015
36.79459088
39.3027184
39.02221295
37.03945139
33.05524604
27.35443249
19.44190516
9.382189681
-1.665155427
-14.07106424
-27.59423599
-41.17555764
-54.52885307
-67.55800438
-79.17909615
-89.67340826
-98.69676712
-105.6248093
-111.0287044
-116.558353
-121.6886584
-127.2169538
-132.8254008
-137.4472938
-140.0837498
-140.5687953
-139.6976904
-138.8853882
-138.379426
-138.0264734
-136.8853922
-135.4981971
-132.7966989
-129.2805005
-125.9667437
-123.5657532
-120.9932733
-116.9051557