/*--------------------------------*- C++ -*----------------------------------*\
| =========                 |                                                 |
| \\      /  F ield         | OpenFOAM: The Open Source CFD Toolbox           |
|  \\    /   O peration     | Version:  2.3.1                                 |
|   \\  /    A nd           | Web:      www.OpenFOAM.org                      |
|    \\/     M anipulation  |                                                 |
\*---------------------------------------------------------------------------*/
FoamFile
{
    version     2.0;
    format      ascii;
    class       dictionary;
    location    "constant";
    object      rCH3OCH3;
}
// * * * * * * * * * * * * * * * * * * * * * * * * * * * * * * * * * * * * * //

rCH3OCH3_table
100
(

100
(
32.87153771
68.56987619
101.8211071
124.1264043
143.2502334
153.7334115
162.2672085
166.9931141
171.1194679
173.3929134
175.8924187
174.3576283
171.911462
168.7744587
164.5673075
159.1562177
153.1615653
147.9687057
141.9734059
135.6336661
130.478679
125.3677581
119.9872152
114.6933766
109.654828
104.2525471
98.62132228
93.84407119
90.01364224
85.84871968
81.46498941
77.13052297
72.64157041
67.92589867
63.0669343
58.92435295
56.13332391
53.03359805
49.70699416
46.62354897
44.13508648
41.387179
38.44080609
35.51856227
32.72791471
29.79615835
26.79280851
23.87304991
22.25973274
20.52104665
18.72644904
17.05121308
15.86478769
14.61404876
13.31395834
12.05207363
10.84588111
9.56325984
8.157677424
6.960854927
6.209370444
5.304917009
4.265480127
3.539974801
3.101079266
2.50429826
1.774224887
1.502528319
1.225782731
0.7779893638
0.435890019
0.3817360013
0.1417634853
-0.1608125653
-0.08974266121
-0.2134625577
-0.4110477575
-0.2878289999
-0.4066287741
-0.4278213434
-0.3861045354
-0.5665118571
-0.4493287468
-0.606366834
-0.5608427294
-0.7151905461
-0.7082446385
-0.8406422853
-0.8685869031
-0.8699047817
-0.8593718852
-0.8346708501
-0.8105107304
-0.7314329343
-0.6619898719
-0.5650393004
-0.5179014924
-0.3679780594
-0.1537629043
-1.417035169e-09
)


100
(
28.38624635
57.27949841
84.86269186
99.41453246
112.5221217
120.3300732
117.3855374
121.942531
117.8070261
118.2053648
117.4830883
110.8367943
106.6820379
99.18814165
90.37520869
84.10489818
76.18445936
65.28088636
60.08369721
53.68430167
45.26093501
39.9714566
35.82036511
30.49927975
23.65530978
20.9029994
16.82378454
11.91606265
6.434151117
5.247459032
3.007825043
-0.09314102725
-3.704627393
-5.164308553
-7.494834696
-10.15962311
-13.19852327
-14.72996136
-15.15935269
-16.12422351
-17.53056999
-18.54550174
-18.38395882
-18.64547724
-19.29703155
-20.11774113
-20.14586529
-20.40660152
-20.97742045
-21.83150797
-22.07577889
-21.73841209
-21.5753649
-21.60207329
-21.35977213
-20.73603046
-20.46698006
-21.00316928
-22.709765
-25.86113176
-28.85272295
-29.5706233
-28.19334502
-27.86540817
-29.52954135
-30.14114459
-29.37187765
-29.78461571
-31.65273808
-31.19698815
-30.53319114
-31.9939522
-33.25558689
-33.2927183
-37.47614523
-41.0027645
-37.72720633
-39.36783838
-42.10458565
-38.2178473
-42.06428781
-41.81333651
-41.74205214
-47.86020983
-43.50540561
-48.45607942
-51.95871184
-50.90446864
-59.55213548
-58.39571582
-65.66072368
-70.04522625
-82.0259959
-88.17262378
-102.4174935
-107.546159
-117.1068186
-111.2251111
-44.27290664
-14.46954953
)


100
(
24.59990951
45.8998364
68.03766429
76.60356263
87.93003209
88.98996069
87.03045385
82.66514066
79.45604183
72.41538323
71.15135944
63.48037575
57.28028181
50.70492791
40.58615775
32.461513
25.71544437
17.08460112
7.966602158
3.225245046
-2.512639904
-8.824927304
-13.60253717
-16.78091712
-20.69809664
-25.07925881
-28.06230079
-30.72058358
-33.72416463
-36.81371979
-38.89381676
-39.90132364
-41.25978438
-42.98483254
-44.74602412
-45.8088685
-47.12367771
-48.62323456
-50.42366609
-51.39457782
-51.6520014
-52.12759677
-53.02303383
-54.23049267
-54.16328799
-54.05982861
-54.25908229
-54.90330773
-55.18528791
-55.24262195
-55.74650953
-57.00873656
-58.93788064
-59.47424377
-59.87007836
-60.73670309
-63.12279533
-63.75618235
-65.05497027
-68.4838771
-75.68050231
-81.39467835
-84.56955522
-84.32389493
-83.85846004
-85.02096767
-87.13987654
-88.44732809
-88.3407457
-89.83508917
-91.14007732
-92.34625751
-92.98677358
-95.07026
-100.9092093
-112.0509046
-123.5793052
-126.8421389
-130.2081078
-135.7162086
-140.2032776
-150.4460041
-156.8380576
-173.2493582
-181.6605259
-191.2630402
-207.5134082
-220.400948
-238.930774
-264.6002651
-292.1506389
-320.0381001
-356.6757488
-405.2179846
-441.0952128
-486.0614298
-534.1212801
-397.9144806
-210.3703354
-97.0313599
)


100
(
21.55969491
35.98990179
52.35917236
60.79605919
65.52175047
60.84979096
59.60671675
49.93135408
46.61837994
39.00612671
33.67035685
28.33045545
19.11775104
13.50865013
5.730111323
-3.891597154
-11.10154146
-17.83063367
-25.32108978
-33.11251933
-37.48243501
-42.24177349
-47.28070627
-52.12398354
-54.99350559
-58.17972004
-61.71842396
-65.31434907
-67.55193216
-69.92562481
-72.48478791
-75.52038627
-76.98778164
-78.26166636
-79.96593198
-82.3284523
-84.54094427
-86.27947738
-88.27576007
-90.65709087
-93.6982089
-96.14096438
-97.61559214
-99.49554333
-102.0456649
-106.0543798
-107.9575637
-109.8357979
-112.1514021
-117.1463603
-119.3526058
-121.6610463
-124.2724997
-128.8676581
-130.7138599
-131.4909569
-133.437348
-138.9712979
-141.2480318
-141.8062641
-145.4483649
-152.2237686
-156.9371424
-160.2974901
-161.9261831
-163.1209833
-164.5155984
-167.6913068
-173.0483057
-180.9616111
-189.331703
-199.6618855
-212.2920959
-226.8611204
-239.6355004
-253.5702843
-272.2196443
-286.8742201
-301.3505512
-323.7498242
-340.1030068
-359.0548147
-384.7966213
-403.5395722
-428.8859892
-461.5824868
-499.2965038
-541.8905601
-585.6021934
-638.1475496
-699.1023937
-761.5983447
-829.8593485
-909.9884764
-1004.704758
-1110.329041
-1203.177007
-829.6061789
-517.7951632
-282.5127417
)


100
(
19.31020619
29.34763655
41.61647463
45.89690291
44.6097801
40.85033932
34.86635527
26.82327263
18.29838911
12.06656386
3.079852419
-1.657960429
-8.63404215
-17.2117851
-23.55539541
-31.46136453
-40.44301624
-47.54157362
-54.14577897
-61.02528672
-68.26500661
-73.22505791
-77.96133993
-83.02289657
-88.80135729
-92.84381485
-96.73276862
-100.9037903
-105.6377446
-109.2705389
-112.5315121
-116.0496709
-120.0592369
-124.5158557
-126.9973721
-129.8490045
-133.4802396
-139.390651
-143.4134474
-147.9392596
-152.7545828
-158.1050169
-163.8345925
-166.9146042
-170.2543886
-175.5367044
-184.1584303
-187.3018719
-190.242995
-195.4406975
-203.5152277
-207.3205831
-210.3664844
-215.4223164
-221.6452133
-224.6478622
-226.9433971
-234.1582515
-242.3675927
-248.1259303
-251.7467855
-257.257607
-265.0839359
-273.760994
-282.1451104
-291.7199002
-302.8408511
-316.0725976
-328.5132967
-342.2256149
-357.6520042
-375.5245606
-397.2102771
-422.390857
-449.011244
-473.0431407
-499.3194295
-528.7934982
-554.791905
-585.6355858
-622.2269659
-659.8941934
-701.8480984
-751.0208794
-804.2731538
-856.9945502
-916.8448983
-986.270809
-1063.236107
-1145.976933
-1225.785878
-1326.756894
-1427.808448
-1558.525357
-1710.146143
-1888.007686
-1948.979577
-1345.869222
-922.7842234
-554.4419803
)


100
(
17.89527331
23.08654948
31.43489265
31.81623315
26.42561203
22.75766597
12.88573147
5.91189842
-4.769625966
-11.9135506
-19.6647657
-27.96879325
-33.91978637
-41.6639336
-50.02652967
-57.17173089
-65.39333599
-74.56386513
-82.34945459
-89.42245966
-96.71029684
-104.5334496
-111.0758679
-116.9366828
-123.4213968
-131.0872509
-138.5919608
-144.8117688
-150.6417648
-156.6894516
-163.5381462
-168.791438
-174.3282972
-180.0773758
-188.0489614
-192.3234235
-196.8574827
-202.1470275
-213.3622174
-219.7138516
-226.036919
-232.6686785
-242.2458203
-249.553886
-253.591699
-258.4514637
-269.3910707
-281.0739718
-285.0552869
-290.0888595
-299.4938299
-309.7930681
-316.2233048
-322.6592195
-331.0166089
-340.0910578
-348.5892107
-359.950191
-372.6090535
-387.2821522
-404.0817687
-420.0871399
-433.3759831
-447.6305624
-464.6929872
-483.8453
-501.7169582
-518.7523639
-537.9834662
-559.570745
-583.9911999
-609.0490985
-637.3059132
-670.6341576
-710.8499502
-750.5902901
-788.1635099
-831.9349239
-881.3480248
-932.2227757
-984.1739775
-1044.762586
-1116.856297
-1185.388749
-1260.241815
-1338.80849
-1418.399838
-1506.990374
-1629.090329
-1739.619109
-1835.426112
-1978.927399
-2120.357766
-2310.014993
-2528.861043
-2787.441146
-2607.759001
-1889.162474
-1383.584143
-894.4077408
)


100
(
15.91107042
17.47053797
21.99633073
18.652039
13.60188294
6.24567999
-3.458218419
-13.03374739
-22.73638723
-33.32552791
-40.62952093
-49.4128748
-57.4967772
-64.70129197
-73.35418472
-82.31370055
-90.56852641
-99.86524998
-110.1837957
-119.564991
-127.948053
-136.6771001
-146.1464511
-155.4604396
-163.5360232
-172.8605583
-183.9416997
-194.5750991
-203.3741304
-211.4869158
-220.3491745
-230.8468965
-238.2106319
-245.684149
-254.5808166
-265.3838045
-271.0594201
-277.1675188
-287.0913284
-300.9243422
-308.9100695
-316.4765253
-326.2681752
-338.147208
-346.9880111
-352.7712662
-364.452555
-378.7765268
-393.7055692
-401.9666827
-414.3313089
-428.2818582
-443.6592563
-458.5453314
-472.1506356
-487.044317
-503.5142581
-522.2140254
-541.6481324
-560.9227163
-582.3595798
-606.4625925
-632.9497539
-661.129275
-685.2835816
-710.8673058
-739.3019655
-770.5342249
-805.87789
-839.0714566
-873.030285
-911.0843998
-954.238949
-997.0647584
-1041.526484
-1092.257438
-1146.964705
-1207.079975
-1269.148495
-1337.138922
-1412.185905
-1491.683049
-1581.522382
-1677.939919
-1777.703878
-1882.036423
-1997.346298
-2121.662702
-2281.503597
-2440.846854
-2575.686555
-2752.205217
-2972.222894
-3248.109922
-3588.651534
-3933.405901
-3401.608083
-2516.955474
-1894.968771
-1318.063219
)


100
(
13.54368774
12.35079082
13.2958926
8.594061111
1.920551064
-8.804189543
-17.75138997
-30.18189001
-39.43081491
-50.4595232
-60.28489019
-68.97206776
-78.9381124
-87.60564897
-96.30540902
-106.3883425
-116.8072844
-126.8799061
-138.2359722
-150.5154719
-162.5448718
-173.1809563
-184.3630191
-196.3587605
-209.3155239
-219.9169075
-232.2921243
-247.0049766
-260.6700148
-272.317199
-282.7120153
-296.8758411
-308.8212503
-317.5438867
-326.3417213
-339.685756
-351.8725532
-358.8920253
-367.3969803
-382.205089
-398.4319225
-408.5952147
-418.5161531
-432.334264
-447.0101257
-459.713615
-473.4483046
-491.8449436
-512.2999822
-533.701412
-553.8502589
-572.5846532
-592.6212271
-614.189677
-639.2945403
-666.0941495
-688.1075573
-710.9165348
-736.2981552
-764.13722
-794.7095631
-824.0464405
-857.6305798
-894.7902721
-934.4980346
-977.1412321
-1019.705022
-1059.876812
-1103.044909
-1154.728433
-1210.577628
-1263.604676
-1318.201419
-1375.445596
-1436.230207
-1500.054643
-1565.203165
-1639.779078
-1722.765827
-1810.248489
-1906.878956
-2012.698974
-2127.284768
-2252.408489
-2391.841878
-2547.257607
-2713.937372
-2892.276183
-3095.878912
-3312.864751
-3542.813269
-3832.647802
-4173.901565
-4588.878134
-5099.700982
-5528.573482
-4487.643495
-3353.352275
-2539.267368
-1870.113668
)


100
(
11.68954801
8.296429277
6.606136711
0.5047916553
-8.969253276
-20.23491751
-31.08871566
-43.1778956
-55.07605161
-66.00685502
-78.32967994
-88.33899092
-98.60891131
-110.2613264
-120.4395974
-131.2329299
-143.4422777
-156.001909
-169.2142464
-183.3734099
-198.4746919
-214.0252565
-227.3206697
-241.2977081
-255.8353507
-271.5856694
-285.573767
-300.8144493
-318.72468
-334.9648627
-349.2287655
-362.9840813
-380.8155939
-394.0899186
-404.1679445
-416.5461374
-432.2255726
-446.1607208
-455.3708114
-470.5774738
-489.04065
-508.79863
-523.1970654
-540.349251
-559.1804698
-580.0157664
-602.3694112
-624.9158646
-650.0943635
-677.4499148
-706.0234195
-736.9440227
-766.2668372
-793.5213342
-822.721328
-855.8915322
-891.5639221
-929.5531521
-963.9412761
-998.8326964
-1036.275994
-1076.561909
-1121.895871
-1169.847312
-1218.721959
-1270.654409
-1326.858838
-1386.529557
-1447.10647
-1510.072916
-1580.167096
-1654.842298
-1733.090149
-1807.194281
-1882.047001
-1967.163398
-2060.766867
-2160.028695
-2270.846632
-2392.122728
-2522.772631
-2663.499738
-2819.726083
-3004.795421
-3203.903016
-3421.592551
-3654.682379
-3933.210513
-4194.690653
-4485.80602
-4832.554411
-5249.080177
-5756.529642
-6365.350623
-7033.195811
-7475.329761
-5895.557067
-4496.786354
-3423.510272
-2618.526588
)


100
(
10.37988579
5.508825564
1.518383317
-6.761059807
-18.95279419
-29.99198397
-43.49334208
-55.29329079
-69.30329913
-81.1914035
-93.82061688
-107.5954192
-119.0273225
-131.4397392
-145.5857644
-158.2373711
-171.9873609
-187.3212618
-203.9921745
-219.9089236
-236.9652404
-254.8126929
-274.0713288
-290.0616357
-306.7095557
-323.7570098
-341.6827319
-359.454528
-377.0195008
-397.3201786
-415.5436212
-432.1937455
-451.4795812
-471.5874189
-486.5826476
-498.6993009
-516.2688857
-535.0303272
-552.7488453
-569.0995036
-591.2054496
-615.8765185
-642.5446084
-667.2744265
-690.9327581
-716.3848608
-743.8412553
-775.2771034
-809.7221813
-842.2436552
-877.1206014
-913.7560364
-951.8451602
-991.8414787
-1032.630015
-1071.658605
-1115.938161
-1163.808654
-1214.031543
-1266.970629
-1318.754581
-1367.861829
-1419.977156
-1479.026875
-1543.946812
-1610.403563
-1678.289628
-1752.891687
-1833.525742
-1921.30236
-2013.75856
-2107.573185
-2206.062226
-2310.668239
-2422.84932
-2541.942767
-2675.48072
-2820.486703
-2973.754398
-3137.402189
-3318.812224
-3527.746379
-3752.893996
-3996.167844
-4257.816212
-4551.867266
-4887.194813
-5231.773533
-5598.966559
-6021.949353
-6505.305084
-7102.323354
-7761.152429
-8601.255622
-9481.76791
-9696.366304
-7538.742174
-5905.152887
-4567.957344
-3600.993023
)


100
(
9.644355701
3.110939278
-2.92971491
-13.50148242
-26.15323442
-38.98071786
-53.32299289
-66.88941899
-80.92283725
-95.88225829
-109.4325994
-124.377492
-139.8909149
-154.1007969
-169.4737287
-187.1373299
-203.1939134
-220.3827542
-239.0560191
-259.5235929
-278.432057
-298.4497696
-318.8809132
-340.516588
-360.2594955
-379.5327816
-399.0259466
-419.0645073
-440.2709873
-459.883911
-482.3011367
-503.7703719
-524.1446255
-547.7543341
-570.9937511
-589.4370966
-608.8508307
-631.3490825
-655.9884599
-681.7806032
-708.5392895
-737.652705
-769.0032228
-802.2917317
-839.066967
-873.1691643
-906.6798091
-942.3891519
-981.5336478
-1024.179901
-1070.200192
-1112.931686
-1158.527421
-1207.485863
-1258.788553
-1313.94406
-1374.276549
-1432.275326
-1493.844891
-1558.118447
-1625.65946
-1696.039867
-1764.529746
-1834.665322
-1914.265972
-2000.989563
-2093.688892
-2191.959907
-2292.560446
-2400.224865
-2521.446998
-2653.615618
-2787.41616
-2934.993747
-3099.764957
-3277.384869
-3461.273377
-3654.83727
-3865.418144
-4100.846401
-4361.333032
-4641.959198
-4933.092017
-5239.128252
-5608.271864
-5986.070522
-6416.537103
-6860.750909
-7365.41183
-7930.788146
-8595.836154
-9367.25061
-10291.00736
-11395.94881
-12468.61447
-12074.48781
-9341.667913
-7524.162749
-5932.350126
-4811.43544
)


100
(
8.78322101
1.119202918
-6.84805081
-19.16274373
-32.12692222
-47.17746692
-61.53321307
-77.6481279
-92.14083764
-108.3966388
-124.7204672
-141.0785193
-159.1190704
-177.4801228
-195.2040521
-214.2033074
-235.6812995
-255.2751209
-275.859063
-297.552414
-321.6174225
-343.2503561
-365.8447252
-388.8842456
-412.7702778
-436.4177917
-458.3160536
-480.5860344
-503.1679436
-526.9572334
-552.1159653
-576.2764808
-598.4898767
-628.4164445
-656.5574235
-685.5579673
-712.0826751
-739.9552905
-768.8605193
-799.968298
-835.2940753
-871.4438752
-908.6650599
-948.8888318
-990.8490914
-1035.729359
-1082.720531
-1126.982556
-1171.332431
-1220.980938
-1273.692575
-1330.133271
-1390.711693
-1451.232455
-1513.985001
-1580.64109
-1649.809349
-1726.934449
-1807.367441
-1883.657683
-1964.983074
-2053.709083
-2147.725573
-2248.585099
-2354.665388
-2463.892406
-2578.769092
-2703.940968
-2838.643876
-2973.409329
-3129.804745
-3306.107357
-3501.627988
-3708.015895
-3923.8755
-4156.777362
-4409.494794
-4680.648839
-4977.597251
-5292.130869
-5621.466912
-5976.235914
-6371.186483
-6791.30404
-7251.859733
-7732.506125
-8298.893731
-8875.109907
-9526.20872
-10307.00277
-11169.30838
-12171.97654
-13365.0836
-14731.67972
-15951.8574
-14594.92621
-11341.89918
-9371.960509
-7513.764992
-6368.58542
)


100
(
7.473314527
-0.5438988785
-10.15208812
-22.70551026
-37.28330065
-53.43905075
-68.91509089
-85.67652448
-102.634684
-119.7134284
-138.8479798
-157.5157558
-177.400957
-199.2259664
-221.0645504
-242.4562725
-265.0196922
-290.0560658
-313.1814095
-336.782359
-361.1115478
-387.3347101
-412.3798406
-437.5266375
-463.1966752
-489.5077247
-517.0554458
-542.3376338
-567.8674769
-594.2748964
-621.8899815
-652.0248873
-682.4747891
-712.9468737
-747.7374499
-782.9273616
-818.5307644
-856.0901607
-890.713626
-927.6554073
-967.0565007
-1010.30916
-1057.774555
-1103.916289
-1151.616758
-1202.851989
-1256.992913
-1313.934148
-1374.952766
-1435.506373
-1498.074542
-1564.537621
-1633.878436
-1708.826818
-1792.289532
-1870.863014
-1952.522976
-2041.609859
-2137.50016
-2241.539501
-2353.229394
-2465.306866
-2584.949291
-2711.6283
-2849.78761
-2997.642151
-3139.304807
-3293.187422
-3463.155289
-3650.974636
-3862.516472
-4088.105516
-4330.593221
-4591.364436
-4867.882787
-5166.513751
-5511.421245
-5886.466176
-6262.789252
-6649.124926
-7070.642063
-7545.201011
-8053.984594
-8580.407372
-9143.414911
-9790.773228
-10471.20194
-11183.12742
-12068.57154
-13070.22565
-14184.52247
-15387.59625
-16851.82916
-18486.322
-19691.76024
-17273.22528
-13752.16184
-11503.53849
-9383.49081
-8071.990044
)


100
(
6.483056493
-1.66497225
-12.07323414
-25.54986699
-41.71348486
-57.85940416
-75.30305122
-92.47371385
-111.7417241
-130.4078849
-150.5516028
-173.2786506
-195.1774614
-218.824179
-244.4824271
-269.7988111
-294.7273639
-320.5244699
-348.563835
-374.9399459
-401.0405765
-427.7796484
-456.0943695
-484.6584832
-512.5244306
-541.2674422
-570.591552
-601.385487
-632.7369144
-662.893756
-694.5432475
-727.6428
-763.6595511
-803.773036
-842.5770371
-882.8970392
-925.1593589
-968.5480082
-1015.535668
-1061.930794
-1106.63191
-1153.842441
-1204.927432
-1259.73914
-1319.103999
-1377.820896
-1440.086189
-1507.836137
-1579.10539
-1654.097514
-1734.817323
-1813.728925
-1893.856124
-1978.835627
-2071.177809
-2171.821439
-2280.651021
-2386.755939
-2505.744307
-2634.713803
-2769.788584
-2917.523874
-3071.982212
-3225.63156
-3388.650263
-3567.508874
-3761.05095
-3965.923896
-4188.563787
-4429.140244
-4689.021532
-4967.019113
-5261.318969
-5578.361799
-5928.492934
-6322.920073
-6745.684806
-7194.858913
-7663.781571
-8152.944744
-8706.571452
-9296.883706
-9900.444426
-10550.56051
-11286.85944
-12060.92466
-12847.93494
-13774.52273
-14888.65419
-16066.25175
-17430.96329
-18862.29983
-20716.94864
-22602.08966
-23553.61923
-20258.48492
-16565.79497
-14071.44015
-11655.5617
-10701.13632
)


100
(
5.832798932
-2.32399241
-13.4189467
-27.85711745
-44.63136618
-61.44637103
-79.89162388
-98.39770384
-118.3342753
-140.0946702
-161.7251995
-185.6343057
-211.7614894
-237.5544162
-264.8518052
-294.0953911
-322.6428831
-350.7223679
-379.4408302
-409.8121364
-439.245958
-467.8413203
-497.123687
-527.7976725
-560.5073222
-591.4739733
-623.9416631
-657.8424813
-693.3811389
-731.4186535
-768.6786942
-806.9148584
-847.7192708
-890.6976253
-937.399912
-986.7964284
-1034.495136
-1084.338825
-1135.640328
-1190.040929
-1246.9908
-1302.569155
-1358.46495
-1420.191786
-1486.066891
-1557.066633
-1634.128835
-1713.314737
-1795.369107
-1882.360368
-1971.47311
-2067.805085
-2169.384592
-2265.951273
-2370.076918
-2489.607447
-2619.161881
-2759.984351
-2913.276658
-3064.261492
-3223.552403
-3391.761615
-3579.795783
-3778.984019
-3973.948218
-4191.734219
-4433.667382
-4698.002958
-4979.534613
-5272.001417
-5581.501452
-5916.968102
-6281.569117
-6680.143508
-7112.079121
-7576.411171
-8069.482791
-8598.523178
-9175.158374
-9809.078718
-10468.51663
-11159.47798
-11887.04967
-12706.10219
-13574.4563
-14463.06442
-15435.056
-16543.06972
-17784.11695
-19192.13477
-20771.82619
-22213.14362
-24672.97573
-26820.26536
-27494.32923
-23603.89425
-19756.4321
-17020.40848
-14323.4725
-13256.58985
)


100
(
5.541349753
-2.786626923
-14.37542453
-29.63516158
-46.28559566
-64.32169106
-82.90018367
-103.3396179
-124.0821179
-147.2603957
-171.90792
-197.3566232
-225.1110938
-254.7559271
-284.192093
-314.7301154
-346.9713474
-378.5305203
-409.3986099
-440.7262843
-473.223598
-505.9489516
-537.4567488
-569.9657694
-603.6622344
-639.7696364
-676.6443848
-714.4302778
-754.4097966
-796.1496047
-840.5901681
-888.1909755
-933.846043
-981.8614992
-1032.3697
-1085.953261
-1143.830264
-1200.757776
-1257.820789
-1317.624388
-1380.57599
-1446.651252
-1517.609029
-1588.745052
-1664.446751
-1745.962604
-1831.650325
-1922.775961
-2024.915451
-2122.485582
-2223.622813
-2330.423503
-2444.675618
-2567.271301
-2701.414153
-2840.202949
-2993.933885
-3159.47704
-3331.589871
-3523.49836
-3712.061103
-3902.837369
-4115.556522
-4346.615545
-4598.214258
-4876.490496
-5169.194889
-5478.90452
-5810.331289
-6161.623815
-6529.814943
-6927.513708
-7382.197112
-7869.673672
-8376.557065
-8911.76733
-9492.882191
-10124.23992
-10816.37344
-11555.29096
-12317.76808
-13118.89194
-14025.23853
-14974.00459
-15966.24459
-17032.85347
-18208.51536
-19500.45856
-20951.6483
-22469.24559
-24328.12466
-26109.28606
-28630.33997
-31032.21961
-31366.60966
-27168.00806
-23194.93984
-20264.89557
-17297.67535
-16278.67452
)


100
(
5.048901342
-3.083952749
-15.04581864
-30.31376023
-47.32391301
-66.11312369
-85.17481401
-106.2768699
-128.8923652
-153.0827193
-180.046836
-207.9835502
-237.2146353
-268.6683133
-301.5370688
-334.1940104
-367.5081267
-402.2673091
-436.7015528
-470.2451188
-504.2321017
-539.1822984
-575.8611684
-610.9193654
-647.4736207
-685.8633545
-726.8918393
-771.506878
-815.5524975
-862.5676213
-912.2937599
-963.8074636
-1019.005901
-1074.156682
-1129.277027
-1186.945626
-1247.493636
-1311.868939
-1380.434572
-1447.693199
-1517.852263
-1593.714544
-1673.452407
-1758.405409
-1850.850316
-1944.597729
-2041.905722
-2144.514315
-2251.802042
-2368.292792
-2492.389364
-2612.901382
-2744.628723
-2890.695135
-3046.964086
-3215.068427
-3401.602855
-3589.046739
-3785.97724
-3994.402057
-4216.940658
-4454.226537
-4694.722339
-4965.826648
-5269.028174
-5595.627165
-5941.28954
-6302.454313
-6684.924268
-7096.094703
-7545.952414
-8044.536389
-8566.415334
-9120.216949
-9705.371973
-10329.18336
-11013.44822
-11764.1825
-12552.44123
-13390.34288
-14274.6647
-15233.22262
-16260.99304
-17318.44275
-18466.56855
-19801.88465
-21174.63328
-22603.57647
-24239.53146
-25999.14157
-28048.65746
-30993.0924
-33013.06123
-35526.43341
-35243.87963
-30757.76354
-26756.73794
-23689.32294
-20502.3349
-19834.1411
)


100
(
4.382672417
-3.265926907
-15.28528461
-30.36379533
-47.8812479
-66.52289546
-86.68730066
-108.119678
-132.4010605
-158.0129686
-185.9298991
-216.8004702
-247.9388931
-280.6073112
-315.3226372
-351.030307
-386.5123517
-422.4572317
-459.3715679
-496.787124
-533.2979787
-570.5752067
-608.7071911
-648.9889983
-690.1128942
-732.4763965
-777.2938355
-824.3760729
-875.2420789
-929.1313392
-983.7141293
-1040.864642
-1099.226333
-1160.863358
-1225.665436
-1287.782538
-1352.65202
-1422.485179
-1496.013682
-1574.863562
-1660.426567
-1746.048709
-1836.87581
-1933.185033
-2033.371864
-2142.771357
-2261.679345
-2375.177506
-2493.95358
-2623.380259
-2761.511601
-2911.886668
-3074.619617
-3242.721672
-3422.298522
-3613.482453
-3820.492728
-4045.739097
-4266.578048
-4494.581218
-4749.943588
-5021.907846
-5319.610367
-5645.405431
-5993.499275
-6359.890179
-6752.213532
-7170.746683
-7612.623576
-8094.929912
-8633.596079
-9206.130176
-9802.206382
-10429.82171
-11108.47522
-11857.99049
-12650.17553
-13485.77065
-14369.74541
-15312.41191
-16352.1022
-17460.54037
-18583.76635
-19764.96365
-21127.28281
-22607.93548
-24160.89636
-25834.54788
-27667.187
-29634.92448
-31903.84506
-34646.62902
-37352.98536
-39951.25217
-39129.80196
-34298.2093
-30293.46852
-27171.7482
-23849.76215
-23320.17945
)


100
(
3.902615495
-3.199979187
-14.97845207
-30.04105242
-47.76709948
-66.30252577
-87.02787347
-109.1662297
-133.8452463
-161.6667883
-190.7477526
-222.1777809
-256.4857516
-290.8138206
-326.43978
-363.8258766
-402.1482366
-440.2368318
-478.759423
-518.0413942
-558.8829898
-598.9072653
-640.2141382
-683.1377739
-728.6020397
-777.2882801
-826.2556911
-878.2171602
-932.8567787
-990.3198813
-1053.382718
-1114.961513
-1178.638837
-1244.120681
-1312.096166
-1383.141801
-1457.779975
-1532.487375
-1614.146916
-1702.64682
-1796.193984
-1895.928454
-2004.70633
-2111.280089
-2223.158763
-2340.848031
-2467.482277
-2603.377676
-2747.312367
-2891.196311
-3051.583655
-3224.823185
-3406.700832
-3605.847005
-3818.748093
-4033.308557
-4256.466624
-4499.228844
-4757.045065
-5031.959731
-5317.794055
-5634.502024
-5979.872756
-6351.815558
-6745.581423
-7159.383402
-7600.934149
-8077.385412
-8603.958529
-9177.181814
-9776.744113
-10410.44739
-11081.84091
-11797.63101
-12586.92136
-13444.13927
-14337.12908
-15268.56698
-16268.84972
-17346.84564
-18515.65231
-19730.07001
-20964.60756
-22352.47361
-23883.93379
-25512.4123
-27286.07291
-29194.2099
-31297.52081
-33361.75116
-35915.36665
-38678.24254
-41607.70136
-44349.96389
-42885.09152
-37752.80323
-33787.20761
-30632.55339
-27282.31389
-26975.2419
)


100
(
3.620436058
-3.054421233
-14.49432217
-29.45415327
-46.65771259
-65.5054725
-86.12630325
-109.2638654
-134.3791036
-162.7856987
-193.876814
-226.4508156
-261.0781685
-298.2280887
-335.4934791
-373.6475854
-413.2884056
-454.1439848
-494.8948665
-536.4457562
-578.5690465
-622.7879497
-668.1110935
-715.0209799
-764.2835247
-815.8555656
-871.1148697
-929.0177944
-988.4867258
-1050.506946
-1114.234252
-1182.405797
-1253.144457
-1323.339786
-1396.117525
-1473.020074
-1553.292985
-1639.838411
-1731.908364
-1829.146291
-1933.977105
-2044.380268
-2158.814721
-2284.027721
-2411.649931
-2539.770097
-2676.392031
-2826.718488
-2988.558041
-3164.912116
-3353.338722
-3546.806215
-3750.030217
-3964.144176
-4201.717229
-4455.449654
-4704.820807
-4969.087683
-5258.993067
-5569.923924
-5909.378608
-6273.934681
-6662.984799
-7077.631824
-7516.072707
-7984.096554
-8482.549986
-9033.9746
-9635.732417
-10271.07521
-10935.20675
-11637.34244
-12392.81007
-13228.06125
-14123.60265
-15061.76535
-16047.03674
-17091.106
-18209.53895
-19415.44541
-20686.65308
-22001.36461
-23411.99019
-24985.36
-26661.38067
-28506.7763
-30497.22474
-32557.60358
-34792.26194
-37089.91966
-39868.42476
-42691.50932
-45893.51456
-48462.17384
-46372.51752
-41148.94442
-37287.54647
-34085.24073
-30770.07574
-30526.3783
)


100
(
3.54682027
-2.855901438
-13.88852749
-28.46636595
-45.16380706
-64.10395239
-84.54277191
-107.8010451
-133.8026717
-162.5436128
-194.5063048
-228.670319
-264.2803489
-301.7060421
-341.1958463
-380.9791544
-421.5253574
-463.2356511
-506.8292609
-550.5383794
-595.512027
-641.8956625
-690.7298487
-742.5065771
-795.7618921
-852.0145942
-910.7054632
-972.5645425
-1039.068499
-1104.923102
-1173.140903
-1243.610076
-1317.27417
-1395.150561
-1475.202137
-1557.812186
-1646.75361
-1740.980521
-1841.518508
-1950.928778
-2066.642819
-2186.953762
-2313.332876
-2444.032255
-2583.628804
-2731.907282
-2884.979782
-3049.806383
-3233.407261
-3429.848101
-3636.70057
-3864.217543
-4092.506679
-4326.577641
-4576.115667
-4846.318829
-5136.419824
-5444.246838
-5770.093043
-6121.484329
-6500.325678
-6907.349441
-7338.794747
-7792.898376
-8277.496837
-8800.313591
-9382.956512
-10010.88871
-10672.95213
-11363.61987
-12093.66857
-12872.54305
-13724.81934
-14653.44257
-15627.98476
-16656.55162
-17757.99685
-18930.30085
-20148.72379
-21439.91009
-22788.21721
-24238.85935
-25840.8786
-27557.72248
-29374.17962
-31419.12032
-33525.9761
-35772.21602
-38068.50689
-40551.30473
-43390.91314
-46366.84973
-49562.92007
-52045.07145
-49581.71232
-44458.82517
-40749.39375
-37569.38115
-34282.79783
-34638.32346
)


100
(
3.133344719
-2.626005011
-13.18056911
-27.00394676
-43.38636998
-61.74078896
-82.30649976
-105.3732987
-131.8623985
-161.0873334
-193.1356805
-228.2807374
-265.0915196
-303.2384761
-342.9137158
-384.5082019
-426.626874
-469.6298449
-513.6839797
-559.9609581
-607.6924211
-657.3416516
-709.1941586
-763.5925656
-821.8082476
-882.6373594
-945.9343089
-1011.704981
-1079.395885
-1151.107303
-1224.558819
-1299.319365
-1377.089089
-1458.369671
-1544.473945
-1637.525443
-1734.241198
-1837.572318
-1947.684977
-2062.762055
-2186.572635
-2321.523256
-2456.336769
-2597.170027
-2747.559008
-2907.651194
-3080.866563
-3271.587782
-3472.459157
-3687.492539
-3916.150143
-4152.347316
-4410.017656
-4674.845121
-4940.090038
-5230.980104
-5549.614585
-5894.337588
-6265.09512
-6658.394242
-7075.865341
-7520.976798
-7991.202133
-8492.504229
-9027.38233
-9621.526095
-10264.7726
-10946.40882
-11658.42869
-12408.60954
-13211.93999
-14091.74848
-15038.14055
-16027.83457
-17077.37736
-18202.7828
-19415.9043
-20690.23646
-21989.23528
-23343.26866
-24783.19103
-26416.89968
-28156.58221
-29973.75472
-31986.68119
-34160.37134
-36355.29331
-38659.63995
-41072.03068
-43651.66827
-46633.92174
-49738.91724
-52849.23506
-55139.34317
-52418.30021
-47471.55034
-44018.23664
-40971.23109
-37722.21116
-37872.90434
)


100
(
2.815731467
-2.354318799
-12.22688325
-25.3897799
-41.33641849
-59.00736345
-79.3725495
-102.2379729
-128.4407151
-158.2526244
-190.4605576
-225.2739407
-263.0098886
-302.1369022
-342.4286396
-384.0303276
-427.6083561
-472.1084544
-517.8312379
-565.0324965
-614.7995783
-667.4312017
-722.6216131
-780.6838372
-841.4724337
-905.6797281
-973.8998195
-1043.564695
-1115.426123
-1188.961287
-1265.535773
-1346.38021
-1428.892664
-1515.827432
-1608.816774
-1706.901037
-1812.144082
-1927.335666
-2044.836115
-2168.993897
-2299.369747
-2435.897476
-2582.182928
-2738.746857
-2899.312477
-3075.495535
-3268.445013
-3472.159552
-3690.330389
-3933.480018
-4178.575711
-4432.983872
-4700.743716
-4983.159389
-5283.886257
-5601.442777
-5947.096962
-6324.474018
-6729.61022