/*--------------------------------*- C++ -*----------------------------------*\
| =========                 |                                                 |
| \\      /  F ield         | OpenFOAM: The Open Source CFD Toolbox           |
|  \\    /   O peration     | Version:  2.3.1                                 |
|   \\  /    A nd           | Web:      www.OpenFOAM.org                      |
|    \\/     M anipulation  |                                                 |
\*---------------------------------------------------------------------------*/
FoamFile
{
    version     2.0;
    format      ascii;
    class       dictionary;
    location    "constant";
    object      rCH4;
}
// * * * * * * * * * * * * * * * * * * * * * * * * * * * * * * * * * * * * * //

rCH4_table
100
(

100
(
108.3073989
152.8965311
177.0904123
188.9266447
194.2794384
195.7233786
193.9578311
190.3831871
185.4999916
180.2694365
173.9468241
168.3061148
161.7596288
154.8709518
148.6291185
141.7969995
134.6616024
128.5226006
122.0627345
115.3968336
109.6454502
104.0751973
98.39100194
92.93675918
88.18596562
83.34743943
78.45613392
73.97797313
70.01222515
65.99121032
61.94987151
58.38896714
55.07834221
51.74881594
48.41903878
45.32529511
42.65359986
39.95550777
37.256918
34.74637203
32.58209541
30.41120539
28.24694799
26.224594
24.4433416
22.67253553
20.92477988
19.23168481
17.87350344
16.52233885
15.19309771
13.94233043
12.90306241
11.87721652
10.87109481
9.949864704
9.121860651
8.32100545
7.567313633
6.886404562
6.267305061
5.685028096
5.139646248
4.639064102
4.178661752
3.750500103
3.353139056
2.996208335
2.665688501
2.364165549
2.089677002
1.837901021
1.611692484
1.408481913
1.220692419
1.055171182
0.9095983775
0.7728943679
0.6574817068
0.5538893758
0.4619254692
0.3866134738
0.3157615759
0.2599651034
0.2089803686
0.1689962839
0.1332116574
0.1053002498
0.08104359948
0.06091611234
0.04469501088
0.03198532399
0.02243209924
0.01494230924
0.009658775151
0.005963648894
0.003765099845
0.002105263798
0.0007410552083
5.373889445e-13
)


100
(
103.9337614
144.4983672
167.2512017
177.0072234
182.0395583
183.3653356
179.1468435
176.5935022
170.5031595
165.543797
159.6884972
152.8321689
146.8039946
139.8185498
132.880496
126.7387111
120.1422778
113.1174217
107.580278
101.8115475
95.76087341
90.60001735
85.82103101
80.88358524
75.89608755
71.9306306
67.84283774
63.67087726
59.548667
56.33008534
53.02751283
49.7109266
46.52342406
43.86709706
41.17740836
38.49125815
35.85675966
33.55202243
31.46596353
29.35768514
27.30407424
25.4351779
23.78512245
22.12651946
20.5133542
19.01274148
17.68776469
16.38603098
15.12653662
13.96209948
12.95683226
12.05228617
11.16277382
10.31013396
9.538137397
8.821831344
8.139612957
7.561757015
7.22924943
7.371941748
7.846318432
7.120462319
5.931529935
5.67064969
5.88582224
5.28439211
4.462496636
4.505961011
4.459747021
3.852385438
3.420434709
3.500682163
3.231791354
2.799937644
3.217182814
3.36964284
2.468942609
2.580506078
2.643444064
1.892720463
2.148198381
1.850050941
1.619586442
1.898991973
1.353954154
1.489492632
1.481183798
1.217877732
1.436997055
1.187900458
1.291297103
1.234142763
1.436435378
1.425003277
1.650266007
1.582053303
1.671111872
1.550923837
0.5761772813
0.1602281561
)


100
(
99.37299257
135.7178505
156.8724295
165.4131838
171.3861823
171.0142998
168.1753954
163.5480279
158.6873683
152.1980377
147.1009545
140.2179154
134.0614116
127.9084078
120.9255623
114.7350505
109.0192116
102.8996276
96.77483798
91.94563163
86.91617351
81.82699047
77.2688032
73.19621815
69.04429919
64.94216085
61.3599975
57.94034402
54.5015495
51.14446771
48.16404735
45.48026531
42.81830858
40.24951454
37.88259215
35.71211819
33.53161989
31.40331295
29.41778414
27.67432593
26.05909014
24.49058445
23.02192224
21.68759302
20.42310222
19.12666916
17.88633996
16.76332583
15.70179513
14.65467766
13.71852951
12.99348413
12.51082561
11.98567454
11.47808279
11.01589647
10.69421511
10.25787571
9.916775625
9.841694648
10.43617219
11.20292432
10.89914749
9.88505703
9.186232993
9.03544022
8.58357021
7.980658077
7.580413692
7.201402893
6.691463636
6.202154292
5.89040763
5.536294465
5.468798008
6.204274689
7.156252024
6.665843325
6.264309531
6.183649767
5.896755065
6.427267616
5.845362938
6.837135292
6.640894338
6.321762165
6.797046315
6.679737161
6.865714468
7.58498291
8.276553809
8.836795935
9.721901834
11.8510212
12.02292455
12.96562377
14.29914263
9.526269429
4.048593277
1.546466273
)


100
(
94.63568196
127.5831667
146.7262828
156.5214626
160.9909531
159.3713881
157.7797464
152.0233397
148.0480014
142.0617466
136.4145183
130.7234697
123.9110461
118.5051135
112.5865495
106.2719922
100.9083613
95.79504586
90.52546942
85.30436545
81.19278153
76.95221116
72.72526941
68.74789046
65.33412197
61.87184778
58.50507776
55.40416611
52.61368634
49.76288555
46.97109701
44.40783603
42.21715101
40.11193877
38.09469868
36.23678207
34.53077386
32.81646919
31.10650788
29.52885807
28.23071109
27.15140774
26.13224103
25.25561935
24.52390265
24.03211556
23.31962615
22.61841347
21.94532788
21.58223419
20.93201148
20.3391117
19.75999404
19.37472351
18.75669925
18.09307844
17.48576523
17.13826123
16.56898965
15.90172699
15.45738814
15.41942961
15.51879087
15.08068541
14.25161454
13.42444562
12.82831137
12.27112506
11.93656715
12.06369087
12.35396479
12.82193647
13.55288928
14.44923391
14.26689395
14.86177216
17.21765645
16.441598
15.58197374
18.04960958
17.86697302
17.51572008
18.73882025
18.47577412
18.66931604
19.84003709
21.46328251
23.4945053
25.09530367
28.10338992
31.35787641
34.10022056
38.26624669
40.98267092
46.32987109
52.42626712
56.07299223
31.6421494
15.26484095
7.055929487
)


100
(
89.73258084
121.1860243
138.8966103
147.6930727
150.7349327
150.6296987
148.0633508
143.8350586
138.7089861
134.0382084
127.8462013
123.0328628
117.408024
111.3957778
106.4411776
101.1432977
95.73049975
91.15711075
86.80421601
82.42499948
78.16190747
74.64990137
71.18488978
67.76425571
64.51263257
61.6911824
58.9107738
56.29700653
53.96637077
51.84429102
49.65469775
47.47875213
45.55527339
44.06441175
42.59696275
41.25797121
40.12818374
39.43357069
38.50841443
37.62616413
36.80229276
36.1207233
35.5784352
34.72761801
33.9327902
33.35182676
33.19627413
32.38993271
31.58077693
30.94203235
30.57672337
29.83451129
29.04771077
28.37098052
27.76854499
26.95885849
26.12524048
25.64071345
25.22357061
24.64239724
23.83252159
23.18029857
22.96166574
23.18953993
23.50363012
23.91002565
24.32337007
24.64637431
24.92614487
25.34861004
25.75229321
26.23440794
27.5029068
30.64118953
34.11356934
33.58157827
33.21593053
35.70004051
36.34059519
36.65679603
37.62106266
39.13063762
42.94007883
47.06905074
50.34008758
53.41276652
56.47528254
62.12622652
69.60864568
81.35384843
85.25937396
92.37554325
103.9117915
115.3978579
131.5697398
150.547852
149.7779368
79.19847482
41.53943566
21.54138034
)


100
(
84.67312018
114.6262103
131.0731857
138.8427606
141.3490533
142.423286
139.2635831
136.4010884
131.3435361
127.2184393
122.3666887
116.9712807
112.4347708
107.2894299
102.1993096
97.83845711
93.36382049
88.96035214
85.22823476
81.732689
78.28516538
75.05354187
72.32705022
69.76762298
67.29688071
65.06288949
63.09362715
61.20343559
59.50657408
58.14108793
57.09092097
55.79748306
54.50161232
53.35463739
52.76447679
51.66354758
50.63070698
49.72559864
49.77044536
49.03743834
48.28069084
47.54104991
47.20029283
46.58684472
45.57117241
44.60813371
44.28749613
44.04908502
43.01154059
42.04335149
41.41871793
40.91960475
40.18551422
39.44798539
38.80267002
38.23357887
37.70707469
37.78374732
38.39546088
39.38225115
40.46891322
41.2774389
41.72636066
42.2227336
42.72941101
43.26290929
43.78590913
44.2070266
44.50465531
44.9191273
45.98911185
48.03618767
50.80129298
54.01278669
57.64885344
62.01442367
63.1188772
64.9947376
68.28434018
74.18321175
80.66965823
87.06541184
93.38732007
99.9596057
108.7389729
119.7886213
129.1366213
140.7667764
162.8812653
177.0645585
189.6719731
214.5663627
235.9590422
267.324104
303.2740147
344.0896261
298.8126149
168.7748331
94.59871572
52.24713376
)


100
(
80.36572127
107.9882684
123.2139103
130.1814478
134.1163092
134.6249581
132.6695621
129.7019834
126.0689695
121.5032463
117.8546316
113.266205
108.8245827
104.74476
100.3362778
96.21913045
92.68597349
89.25796775
86.08252729
83.40245929
80.96782138
78.65213954
76.67645054
75.13218952
73.67138204
72.4085387
71.43047443
70.42096157
69.2416918
68.23124026
67.63882218
67.40270083
66.52809612
65.61081822
65.00421499
64.76549147
63.67799834
62.61571181
62.11164892
62.13586317
61.30716061
60.37443456
59.67783594
59.22723102
58.45271028
57.28558422
56.71514858
56.40618907
56.31452337
55.53968398
55.13293942
54.91744557
55.21732316
55.96947965
56.80659574
57.86121174
58.98931172
60.16050959
61.28732373
62.39303115
63.63622098
64.82275586
66.01515005
67.53771627
68.63234271
69.68148063
71.29871497
74.22776328
78.37286523
82.145345
85.85592551
89.61122439
93.54053854
97.54246581
101.4988333
106.666008
114.4987492
123.736724
133.3394537
143.0615983
153.1486935
164.2426557
179.5684633
197.300277
214.618591
232.6200597
254.1282781
277.759017
308.3030667
337.4442286
362.5014164
394.8139864
435.1387223
484.732258
545.3094411
608.4668875
498.6801605
316.4192188
193.8099186
109.2296958
)


100
(
76.52827026
101.3119929
115.402068
122.7805226
127.0432359
127.2442539
126.7332801
123.6652897
121.3161225
117.6984689
114.1522426
110.7863999
106.8434875
103.4122856
100.0953555
96.70418033
93.7354149
91.35394029
89.37018328
87.65907445
86.38262345
85.20143835
84.19753257
83.55103983
83.35122339
82.79766856
82.41034821
82.22483473
81.68281414
80.88968786
80.21123764
80.46147883
80.28769826
79.41086297
78.48703383
78.3177245
77.96553032
76.75867401
75.68680332
75.45665666
75.3964319
74.5363839
73.5678541
73.03623457
72.71609127
72.2858332
71.99132014
72.30042325
73.1734385
74.72644175
76.48570001
78.03237964
79.70385614
81.45772517
83.59236658
85.8814802
87.30995904
88.7335091
90.18765531
91.78468442
93.9190309
95.86791466
98.2849827
101.7067981
106.8034229
113.0364378
119.0810402
124.5721846
130.2687334
136.8398684
144.0916786
150.9811864
158.3200983
167.7426846
179.3907552
191.7501347
203.8822362
217.3789329
232.3471103
248.0228019
267.4887343
288.8474759
311.0860474
334.4300216
360.1526053
389.2146922
418.9621067
449.0837078
483.4323834
520.3040946
558.4044918
605.506042
660.1587154
727.5212928
811.572027
887.7409877
706.3655016
500.1315375
343.0058999
202.4119116
)


100
(
72.58232715
95.17757824
108.4779196
116.0788062
120.0405475
121.2275207
120.9950665
119.2806642
116.9453432
114.6392467
111.4616129
108.9743379
106.2988585
103.4256424
101.1723626
98.98936587
96.94986623
95.32579036
94.75126456
94.23988922
94.11093767
94.36294915
94.31214032
94.37629034
94.61525077
95.15887515
95.2509566
95.25324487
95.34246798
94.88077317
94.23989567
93.92621104
94.48769401
94.22545524
93.26360643
92.59714774
92.43551614
92.00841999
90.79528198
90.33496763
90.33652885
90.66720249
90.37635747
90.4720792
90.95187175
92.16228057
94.15413105
96.36440504
98.99763261
101.9635866
105.0563956
108.4456781
111.3890868
113.7870802
116.220116
119.001297
122.032517
125.7250663
128.89297
132.1531191
136.4649806
142.4788064
150.2387418
158.4676447
166.7070353
175.4273285
184.6776387
194.5908432
204.661496
214.9882425
227.6518191
242.884064
260.1180499
275.8183903
290.9731113
308.4252017
327.216593
346.072661
367.5828757
390.456996
414.0971779
438.2705523
463.8953157
494.3653447
525.833089
558.8422502
593.3590808
634.9317855
674.72054
718.2313271
769.8329304
830.8792397
907.1781493
998.803838
1103.30943
1177.155484
922.756791
692.638093
512.1921022
335.8261791
)


100
(
68.53556254
89.860794
102.2778115
109.4326338
113.1674939
115.6276133
115.4106784
115.0396271
113.1729662
111.8526667
110.0303827
107.8567039
106.4626583
104.9556991
103.6557352
102.8395203
102.2090732
101.9893748
102.4320048
102.9920373
103.7517461
104.7762011
106.1675295
106.8101792
107.4260642
108.0600362
108.8195232
109.3557172
109.415859
109.4750781
108.9423345
108.4837626
108.8108267
109.436582
109.1497893
108.2517517
108.1355164
108.3193813
108.4128806
108.2648335
109.0581801
110.5411547
112.9656908
115.5524392
118.0772314
120.9918326
124.2827278
128.3496136
132.8786586
136.656526
140.6688115
144.73638
148.8835419
153.4245465
158.2866331
162.6620698
168.2009877
175.1010731
183.7653845
194.2028643
204.6519974
214.2068257
224.3559404
236.1620475
249.2734924
262.3486904
275.2381512
289.9094409
306.5648683
325.8062565
346.0353276
365.1438477
384.9007203
405.7296289
426.7829433
447.3656382
470.3275314
494.338027
518.6322415
543.4384308
570.0014347
600.775523
633.3760284
667.859687
704.0225577
745.0629859
791.918525
840.4926138
891.7954131
951.2904147
1018.242847
1102.219339
1194.433415
1314.653009
1446.847088
1482.835355
1150.440367
897.787735
689.6658781
502.1585724
)


100
(
64.39517091
84.53964473
96.14542686
102.7906512
107.3265367
110.006553
110.7041767
110.8228581
110.3680095
109.3490318
108.8582703
108.0583085
107.4231071
107.341029
107.4909734
108.1197295
108.9119558
109.9482039
111.439722
113.3932828
114.9070106
116.4665632
118.0804468
119.8788687
121.11319
121.9882649
122.7645538
123.5531602
124.3002527
124.242093
124.2984484
124.3589325
124.2033933
125.183983
126.2110305
126.4789618
126.8722954
127.9686746
129.8287516
132.2971379
135.2238861
138.7478113
142.8959044
147.6425483
153.4443542
158.4083542
162.9368475
167.6446599
172.9291973
178.8083252
185.4605469
191.1368241
197.4818374
204.83312
213.4132441
223.9991613
237.2257814
249.6253481
262.9995606
277.1758031
292.6477656
309.0613967
324.0152212
338.3796747
354.9855515
373.1716
392.7584239
413.5763532
433.1589169
453.3714313
476.4725107
500.1177267
521.4555145
544.5869986
570.127673
596.8461623
623.441469
650.598439
679.5376996
711.8732112
747.6004055
785.5941412
824.2842779
864.5703281
913.7651148
964.9368769
1020.936879
1080.608041
1148.247222
1223.027529
1312.457904
1415.176467
1539.128322
1690.585339
1844.19252
1789.041454
1385.795433
1115.80791
880.4904761
688.9573497
)


100
(
60.7331009
79.26032366
90.04335129
96.42995299
101.6952979
104.3986048
106.3238567
106.6839794
107.5117771
107.7003527
108.0239104
108.6781195
109.4447296
110.621455
112.2203995
114.2402745
116.7552817
118.9718257
121.3291761
123.9255139
126.8161069
128.8573328
130.7741865
132.6709139
134.6407287
136.333458
137.4034639
138.3604295
139.2868128
140.2552148
141.1553582
141.2164347
140.8131006
143.416449
145.5569069
148.4145431
151.1351283
154.4227492
158.251453
162.9034177
168.8591372
174.8888465
180.7967351
187.1694185
193.8374361
201.2949444
209.3726848
216.4417957
223.1486376
231.3063263
240.4965206
251.2618259
264.2385738
277.7259648
292.0921504
307.7843278
324.4915146
344.3439292
364.6049723
381.6456549
399.3378104
418.5922834
438.5241711
459.3182214
480.0952469
499.973642
520.2187892
542.6198961
565.6875176
585.8713471
609.2922693
635.2411546
663.7413268
693.1939063
723.3155256
754.9943239
788.4332627
823.6962862
863.2369982
904.9219148
947.7968416
993.0347366
1043.316466
1097.945977
1156.359131
1216.994958
1288.212318
1363.74383
1446.243841
1546.645134
1657.282806
1786.522976
1940.152051
2120.301786
2287.440037
2095.967541
1634.331469
1353.221283
1089.908303
901.4779851
)


100
(
57.65435868
74.07627285
84.09854429
90.99929765
96.08100944
99.29689255
101.8639381
103.3746893
104.6758264
106.2926895
107.735358
109.670218
111.9489131
114.6165664
117.6499438
120.9087458
124.4891001
128.3611372
131.6200541
134.7781627
137.9467028
141.139003
143.6653993
145.8208813
147.913279
150.0446124
152.1837034
153.6884325
155.0702776
156.6252808
158.4828864
160.8209137
163.2205259
165.7745631
170.0225101
175.1518259
181.0563718
188.0840575
194.1344288
200.7557815
207.9646422
216.2910034
225.7397613
234.2225967
242.6032044
251.8052504
262.088714
273.5780523
286.8567618
300.1507802
314.4987088
330.3428223
347.7167662
367.5991775
390.9603313
410.4731009
429.6359463
450.3755544
472.3633535
494.9728492
517.6166429
537.9540054
558.6327033
579.9067158
603.3542447
627.7150149
648.3196257
670.440398
694.9381491
721.7880025
751.9243284
783.2785286
816.123152
850.603173
886.3263995
924.5143409
969.396289
1018.011458
1066.370654
1115.452085
1167.901363
1226.621543
1289.802842
1354.929328
1423.498219
1503.403026
1587.808831
1676.091047
1785.330632
1909.284629
2047.546441
2195.595932
2377.443692
2586.43802
2743.781219
2410.487422
1925.936877
1618.985952
1329.255477
1126.117399
)


100
(
54.52131883
69.35624248
78.93518928
85.61249536
90.50636775
94.62651132
97.35838062
100.0462796
102.093836
104.8383914
107.8113342
111.0023771
114.6689804
118.7327226
123.231033
127.7775804
132.2886623
136.8827097
141.5462846
145.490852
149.0646628
152.5358354
155.9451783
158.9448876
161.4281799
163.8892384
166.4162212
169.1766894
172.0371998
174.7098865
177.9128051
181.8426369
186.9251306
193.6196899
200.2004521
207.4599914
215.6528397
224.6377085
235.2034612
245.4428905
254.5307743
264.0744623
274.997091
287.1936627
300.8785643
313.8111236
327.7863309
343.9594329
362.0383791
381.9851835
404.9750599
426.4538497
447.0679272
468.3174864
491.8769991
516.755903
541.4938864
561.762312
583.8718109
606.4078334
628.6403706
652.9722713
677.3217132
699.6111377
722.8736455
748.7522482
776.1672196
804.3564698
834.8461323
867.8113153
903.0537617
939.8491191
977.6149543
1017.769413
1062.233284
1113.132067
1167.481379
1223.216285
1280.316697
1339.251172
1407.043133
1478.734437
1551.892526
1629.216066
1716.44991
1809.425229
1906.061373
2018.735465
2152.188603
2290.927661
2453.247529
2619.738434
2845.391741
3078.397665
3195.624192
2755.357107
2261.077239
1929.975346
1611.297122
1412.01495
)


100
(
51.33861901
65.05580214
73.99123801
80.30090239
85.3760355
89.86197307
93.20546406
96.55812535
99.91569547
103.3947946
107.6981303
112.4130106
117.4714267
122.7699003
128.3956089
134.280183
139.8636116
145.1666725
150.3691984
155.4487553
159.8867073
163.7856753
167.559273
171.3148487
175.0443114
178.1974059
181.5036177
185.2653577
189.6820351
195.097218
200.7705417
207.0831563
214.5951777
223.3617083
233.8779196
245.5961539
256.212527
267.3823407
279.2293062
292.7071903
307.3650163
320.9730002
334.0051505
349.3798663
366.5392616
385.8858404
407.8542969
429.9240157
452.2796071
475.8405425
499.9859821
526.7311476
553.6079433
574.9812591
596.2695345
620.0853281
644.0021125
668.4073453
693.2891742
715.8432235
738.8279635
762.9192984
790.8770468
819.8423126
845.8392908
875.4095483
908.3119169
944.0720319
981.9628418
1020.598353
1060.82595
1103.511941
1149.164524
1198.773134
1253.104925
1311.292726
1371.882311
1435.297256
1503.897729
1580.191413
1660.087753
1740.321929
1823.770957
1918.72541
2021.317594
2128.1938
2243.199665
2373.072249
2515.799176
2678.183828
2858.894127
3019.636402
3306.584213
3567.011718
3641.225338
3132.33874
2631.635281
2278.74981
1933.697281
1699.399473
)


100
(
48.11079007
60.87063788
69.1786659
75.09440043
80.60717744
85.03182767
89.25124045
92.95656398
97.43049621
102.1694357
107.4705555
113.4830333
119.947662
126.6072406
133.2195553
139.9502816
146.7152212
152.9870488
158.7916428
164.3890788
169.7973703
174.7623999
179.1438214
183.5118667
187.9871172
192.8187473
197.8614992
203.2423872
209.6113952
217.1153391
226.1788293
237.0681187
247.416514
258.7355102
271.1757715
285.2917965
301.4387191
316.5753946
330.9915827
346.4876944
363.8995927
382.9958568
404.1674529
424.4309806
446.2666932
469.8466251
494.8009763
521.6875568
552.3549976
577.8351004
602.0796681
626.4314616
651.571881
676.3289776
700.4869756
722.7774392
746.2924883
770.5942072
795.7848604
824.6009617
851.5553515
877.3307449
906.5571944
938.4443322
973.0854136
1010.947904
1050.047914
1090.654574
1133.284768
1177.581586
1223.021434
1272.025055
1328.49131
1389.159843
1451.961759
1517.447309
1586.763627
1660.11796
1741.390697
1827.755612
1915.706178
2006.66658
2109.033661
2219.239974
2332.534217
2455.920837
2591.266245
2738.714055
2901.115312
3068.580663
3275.172608
3475.602949
3748.455086
4027.38262
4054.394329
3521.126422
3016.953688
2651.46905
2282.966062
2009.718728
)


100
(
45.36552118
56.80904822
64.49101124
70.38661681
75.8360206
80.35828075
85.09489052
89.66074387
94.72286975
100.6755376
107.1884312
114.2963645
121.9114906
129.7962883
137.5978345
145.1191472
152.5572885
159.8850251
166.6739672
172.8892721
178.8997591
184.8115608
190.6339563
195.9590624
201.5335944
207.7527045
214.9791494
223.6921555
232.6753863
242.945901
254.7820545
268.1803948
283.8965146
299.61499
314.6945361
330.6779189
348.5072961
368.5104105
390.3094964
410.2109983
430.8203097
454.1170057
479.3083015
506.5491527
536.154923
564.2453837
591.4121749
618.8155542
646.7848815
675.9489358
703.5439975
725.8690274
748.6330374
772.6641442
796.9837486
822.0588414
849.6992675
875.9596621
902.9830318
932.2233612
964.1024669
997.3976149
1029.310643
1065.784897
1106.363051
1149.638006
1194.532424
1240.318941
1287.990275
1338.477928
1393.594974
1455.139481
1518.98138
1585.88487
1655.495911
1728.463376
1807.506764
1893.800646
1986.163932
2082.450612
2179.305199
2284.722427
2397.97825
2519.119854
2649.391583
2799.322416
2949.965469
3105.66908
3280.582359
3468.814061
3685.60114
3996.310892
4209.133544
4489.358674
4436.180879
3893.367676
3401.048709
3029.203597
2645.736474
2330.422655
)


100
(
42.94973681
52.92408605
60.08160336
65.91248462
71.09754833
76.06716908
80.812523
86.19736517
91.96439412
98.82661454
106.5503529
114.8318476
123.3899465
132.2199713
141.0973924
149.6507413
157.7976659
165.7691524
173.5342761
180.8391921
187.6095003
194.3734319
201.2368822
208.4810294
216.0815364
224.2780917
233.8036436
244.8832013
257.9942273
272.903398
287.9146178
304.2053065
321.7656946
341.8843894
363.9729151
383.4630595
403.5165118
426.3449674
451.4242628
478.8260248
508.636938
536.340972
564.8922875
594.3955341
624.4468252
657.083394
690.4581026
716.8132736
741.9730317
767.9964236
793.753902
819.415744
844.9657703
869.3597029
894.5772537
921.4228821
951.3566962
984.2407259
1014.610749
1045.007744
1079.928012
1117.363537
1157.901766
1201.704213
1247.698996
1294.597147
1343.417691
1394.483286
1447.608631
1505.746899
1570.70758
1639.614343
1710.847259
1784.961904
1863.711535
1949.85449
2039.670593
2133.95123
2232.538353
2335.285066
2446.01153
2568.030506
2692.435495
2821.355958
2969.274311
3126.134234
3289.315832
3464.457739
3650.674482
3852.240477
4077.345744
4353.700131
4622.638808
4889.232388
4784.346795
4231.22757
3759.305395
3396.248602
3008.813156
2627.768931
)


100
(
40.5147639
49.45303234
56.09432053
61.55618218
66.5083622
71.70066815
76.68623003
82.49688845
89.18166923
96.72714712
105.3585863
114.7032422
124.3443196
133.9302262
143.5770712
153.110742
162.2285327
170.9172903
179.4169577
187.7623512
195.7948398
203.6522499
211.8104442
220.7324535
230.8556337
242.6281481
255.0276796
269.085973
285.1120684
303.3139401
324.9205451
344.9661894
365.5782743
387.6016867
412.4293913
439.3999218
467.3915595
492.9120454
521.644237
552.9553967
585.8934455
619.8439804
655.8075249
686.4944527
716.3062094
745.7064608
776.2387695
806.0645627
833.5041858
857.3155532
882.694947
908.9854593
935.2522219
964.1543022
994.7813662
1024.333012
1054.967868
1089.421088
1125.917829
1163.680557
1201.824168
1244.078409
1290.01326
1338.539535
1388.581803
1439.65137
1493.092304
1550.12277
1613.168875
1682.099147
1753.312145
1826.987631
1903.751488
1984.572781
2073.083649
2168.331451
2268.025935
2371.945915
2479.598918
2591.481486
2713.189103
2841.485264
2975.587481
3122.29359
3278.622822
3439.262564
3615.363345
3804.103591
4006.243622
4204.748611
4440.429007
4697.862521
4969.271227
5226.473821
5063.204155
4522.091071
4083.242295
3737.150518
3360.454273
2904.175424
)


100
(
38.06354225
46.17984128
52.26475034
57.33510993
62.37330334
67.33297304
72.73564506
78.6743117
86.01581476
94.42011522
103.7204704
113.8280004
124.3695317
134.8875122
145.1826534
155.3950457
165.4397833
175.115496
184.5066902
193.716095
202.726983
212.4098991
222.538259
233.5137916
246.0849224
260.5833092
277.4700157
296.1815462
315.6022943
336.8657767
360.1640247
386.8036466
414.4008869
440.0498924
467.1633879
497.6373018
530.239735
564.9609753
599.5099669
633.6644629
668.158385
702.7141635
737.0466264
772.9453033
804.8343286
832.1647217
858.8653966
886.6582432
914.360651
942.476909
970.7555771
998.0784902
1026.166335
1056.035622
1090.666812
1127.567494
1161.769155
1197.576311
1237.41977
1279.760203
1325.019482
1373.227829
1423.873099
1476.263736
1529.503408
1584.939862
1643.363256
1708.237388
1778.87194
1852.734828
1928.958818
2008.316929
2092.209458
2183.84382
2282.091062
2383.098319
2487.835125
2597.724706
2711.842481
2833.818226
2966.98831
3101.149211
3245.023281
3399.839326
3558.99617
3729.342568
3913.268583
4100.776053
4298.877356
4503.349517
4736.610293
4974.977097
5248.203317
5452.977787
5257.087422
4761.506514
4367.633561
4044.780167
3691.502741
3145.140499
)


100
(
35.59888498
43.04731977
48.59603203
53.35608077
58.3053429
63.04945463
68.66633719
75.00575727
82.5999261
91.64440032
101.6530446
112.3235936
123.4826267
134.8016824
145.8761249
156.6986855
167.4151623
177.9926949
188.3595025
198.5205957
209.0559392
220.3144292
232.8079168
246.9389219
262.3095094
279.8068392
299.7272114
322.5549648
348.8017804
373.6543432
400.0091553
428.7717405
460.9128361
495.4192918
529.0113457
562.0558078
598.1876081
635.8783921
674.4346098
713.691376
751.0210156
785.0999911
817.7316781
849.3481227
881.025187
911.0399269
938.0136117
964.6800768
993.0348352
1022.002031
1052.041962
1085.116669
1117.610309
1149.98399
1184.916637
1223.594756
1264.649755
1306.925308
1350.471764
1396.910266
1446.291586
1498.100318
1551.566351
1606.331163
1663.382755
1724.0398
1791.277378
1864.320206
1940.806547
2017.766214
2097.043552
2180.481913
2271.271165
2368.885106
2471.295092
2578.765459
2690.883682
2807.28902
2926.587287
3052.678426
3187.181791
3328.315452
3479.240234
3632.603865
3789.499024
3963.70219
4142.022513
4328.199654
4512.551294
4710.019712
4920.078631
5140.236295
5372.811793
5535.101428
5351.498551
4933.167412
4597.688874
4311.884155
3988.002853
3352.095989
)


100
(
33.67823042
40.07350554
45.10902011
49.71794228
54.34962666
59.17190426
64.57296472
71.21560398
79.08582369
88.46047068
99.02115404
110.2314741
121.8015634
133.6335588
145.4621762
156.9836515
168.3428559
179.6908166
191.0928389
202.6580407
214.7114992
227.7335357
242.4349412
259.315588
278.9166371
300.3978784
323.6605055
349.4869659
378.2657122
410.7693588
443.4777346
475.6390772
510.3436917
548.3669375
588.6935155
630.7953974
670.2528508
709.5251475
748.286521
786.0979785
824.294478
861.7214364
893.0345956
922.1215367
951.1438011
980.0959952
1009.48075
1039.583749
1069.35391
1099.778498
1131.728838
1165.523743
1203.430042
1242.027789
1279.027086
1319.365889
1363.485033
1410.002069
1458.727726
1509.677639
1562.890638
1617.80901
1673.307417
1730.733277
1791.509842
1858.790561
1931.250109
2007.114993
2085.332123
2165.74861
2249.263972
2338.790219
2436.116324
2536.096223
2639.579691
2748.447622
2863.396858
2981.547914
3105.843048
3236.352862
3368.876305
3513.580467
3660.220738
3805.255196
3961.51288
4127.253226
4292.027826
4458.818542
4627.498842
4802.481568
4987.594645
5175.518283
5355.480798
5462.443881
5323.456204
5005.26117
4744.006868
4515.486958
4234.648418
3506.809024
)


100
(
31.75707478
37.34517461
41.95971878
46.22095978
50.53084649
55.3306369
60.62447222
67.29639584
75.46829403
84.98302364
95.79457172
107.4429856
119.4150594
131.5542195
143.8495046
156.1219818
168.1600876
180.2501068
192.5824843
205.4970651
219.3947433
234.76225
251.833181
271.4216665
293.8704824
319.7388295
348.8403633
378.2509784
410.0233175
444.9740744
483.748215
525.351629
564.4475333
605.0119396
648.5396969
692.9347
737.4830176
781.7417132
819.953538
856.1381247
890.9308002
924.8419378
957.9119794
988.90777
1017.27795
1046.074306
1076.242995
1106.68092
1139.021926
1174.4805
1209.528313
1245.197731
1283.79968
1325.349609
1368.761197
1412.896123
1459.519189
1509.192323
1560.929475
1614.297284
1668.995873
1725.126809
1783.033613
1843.924512
1910.504745
1982.827248
2058.637591
2135.385821
2214.079527
2296.102169
2383.31213
2475.673187
2571.924296
2672.246577
2776.070798
2884.090533
2998.810191
3116.746925
3239.554009
3365.717741
3496.114443
3630.937996
3764.551647
3900.692815
4045.684379
4189.090751
4334.415303
4476.3251
4612.125219
4755.872317
4893.085643
5024.744031
5145.660345
5198.592745
5147.834518
4959.355211
4780.845823
4626.27456
4406.894686
3595.404218
)


100
(
29.83730068
34.84322452
38.99435645
42.88019299
47.03921931
51.57753379
56.90500357
63.38094226
71.60891411
81.31256226
92.12620236
103.9217868
116.2678018
128.697084
141.2616309
153.9973623
166.8196748
179.6806146
193.008692
207.1576317
222.7553279
240.4397259
260.8756643
283.512432
308.911854
337.6288471
370.1580812
407.0733951
443.9833251
482.1327993
523.3194564
568.5530878
616.0159786
664.7273196
709.7443045
755.2070837
799.3007188
841.3567009
882.4059798
919.8157931
952.3445625
983.3557945
1014.513261
1045.700986
1077.183129
1108.761923
1139.824213
1170.91679
1203.918772
1240.564408
1280.46397
1320.684767
1360.896749
1404.255496
1450.210465
1498.113201
1548.283094
1600.659231
1654.628878
1709.073356
1764.465238
1821.649864
1881.723082
1946.759099
2015.958953
2088.25619
2163.537846
2240.767142
2320.008644
2403.144514
2492.056311
2583.543068
2677.443077
2774.645688
2874.172776
2978.381314
3086.98367
3200.14221
3314.248866
3432.030391
3552.134226
3669.137577
3782.746243
3904.186781
4029.990013
4149.88392
4264.192568
4372.539477
4471.993528
4569.524189
4655.627763
4721.008243
4761.842769
4781.730174
4810.983498
4774.047918
4689.940178
4621.240522
4473.469723
3592.683572
)


100
(
27.92086807
32.47422308
36.19310812
39.71667994
43.68897469
47.94443136
53.20328729
59.63697975
67.66520284
77.32825929
88.17060375
99.84980987
112.2676214
125.053935
137.8479669
150.8663345
164.196906
177.9329998
192.3043666
207.8513933
225.0944071
244.8597173
267.6941598
294.1607077
324.0230217
355.9000011
391.1676042
430.4185121
474.3413646
520.8587244
565.9309946
613.5558569