/*--------------------------------*- C++ -*----------------------------------*\
| =========                 |                                                 |
| \\      /  F ield         | OpenFOAM: The Open Source CFD Toolbox           |
|  \\    /   O peration     | Version:  2.3.1                                 |
|   \\  /    A nd           | Web:      www.OpenFOAM.org                      |
|    \\/     M anipulation  |                                                 |
\*---------------------------------------------------------------------------*/
FoamFile
{
    version     2.0;
    format      ascii;
    class       dictionary;
    location    "constant";
    object      rETA2;
}
// * * * * * * * * * * * * * * * * * * * * * * * * * * * * * * * * * * * * * //

rETA2_table
100
(

100
(
-114951.3926
101226.3203
64383.4484
41575.47825
37659.89635
34563.21558
22047.35478
24363.47969
18441.86525
17247.72462
17778.21701
12528.62123
12940.84494
11860.02456
8861.95861
9050.986441
9182.277891
5991.141026
6183.636469
6589.73918
4868.902755
4225.504754
4446.372287
4288.904258
2947.432521
3098.619936
3291.480076
2970.263039
1965.241639
2065.301296
2212.1994
1935.013833
1433.371407
1524.373828
1621.406244
1538.987505
1041.387909
859.9687938
929.0043255
895.260675
638.1320202
487.103201
536.6910604
527.9736595
407.075868
310.3889259
346.1067327
378.9613525
253.9879787
144.9536093
118.9305279
132.2106085
83.23498814
40.42579196
30.86464486
37.30065403
24.6114987
13.80973614
17.17685178
20.45971095
9.945704925
-17.31700274
-19.38568739
-11.06512119
-15.30570523
-32.45111602
-30.48473493
-24.17949356
-30.54240636
-34.7255927
-30.79744979
-27.6810604
-31.70196394
-28.54804197
-24.02283474
-22.53486749
-22.55178627
-18.60173242
-16.34413146
-15.37999489
-12.22168043
-11.04761049
-8.992674571
-7.352023616
-6.396890102
-5.315601571
-4.345515289
-3.94523678
-3.315119577
-2.885064632
-2.466693949
-2.200051451
-1.994633915
-1.754501568
-1.546151784
-1.315997916
-1.123816299
-0.7314591937
-0.04572827774
4.257712798e-09
)


100
(
-80498.30488
75583.29926
52300.93839
35336.59201
37229.86801
28004.82533
23765.48755
20066.91191
17878.88864
13941.44922
14381.5329
10668.30129
10103.99403
9641.743838
7395.173232
6826.387903
6788.660845
5395.357773
4434.666537
4604.128145
3973.344513
3272.399352
2976.176493
2909.811509
2471.358759
2108.703858
2045.440738
1917.310248
1599.168985
1337.488626
1222.146348
1135.163972
999.1321972
883.635984
816.1413569
800.950643
643.7949909
526.0645292
414.1499416
353.8482091
284.4309205
232.4168585
186.3159614
127.6573131
107.8893401
94.63254857
84.21115857
70.86557741
28.26367523
8.322885627
-7.835991089
-27.20635897
-64.52525309
-66.36299272
-64.17017881
-67.09738985
-87.99892953
-79.17089678
-71.700763
-72.0894165
-90.93908645
-83.50961909
-91.02478439
-98.29595332
-94.98542549
-91.13706397
-99.93206554
-109.1929732
-102.7031245
-105.394835
-112.4826481
-117.3503496
-116.6720665
-124.0941407
-138.0735611
-140.1613691
-133.6246934
-141.2812056
-146.3778988
-138.4202547
-147.9570227
-145.6309779
-150.372641
-160.6506026
-151.1369041
-167.992419
-174.6944576
-174.7296675
-198.5730092
-196.1110673
-216.6228055
-229.865785
-263.6792904
-280.6631692
-318.9896883
-333.0717242
-364.0323974
-412.1360483
-106.0627099
452.082645
)


100
(
42737.64844
57986.14335
40171.63101
38430.33479
34606.27772
21487.0939
23725.0477
15016.6589
15695.93387
11530.37906
10388.85899
9227.402439
6683.07785
6797.034677
5992.099913
4437.303389
4163.283762
4092.424522
3092.681877
2325.693895
2480.144192
2117.868664
1593.719717
1250.687859
1385.691762
1048.098216
779.6259398
616.3978062
732.1565359
499.3843019
309.5529648
145.7889908
200.2271247
107.814646
33.04251001
-29.98178522
-16.51817664
-23.79948109
-102.4848933
-169.4113755
-219.617439
-230.372941
-249.4553644
-268.687966
-281.1362952
-304.4719419
-297.915072
-291.6910682
-285.9363934
-317.9603398
-298.0161664
-301.6321229
-311.4697238
-349.2477038
-342.5937806
-330.8910544
-338.3085395
-382.262169
-379.5906999
-368.1023895
-400.1261145
-421.8866102
-408.9856604
-427.2636677
-438.7462659
-413.8748181
-405.2288296
-434.8433883
-435.6132021
-423.0451462
-426.0071795
-441.5548386
-429.4036255
-439.5031495
-474.1551656
-510.2087639
-542.5703978
-557.745462
-565.807637
-589.7938326
-600.8402047
-628.8696476
-658.6648526
-718.0660552
-724.624989
-768.5882706
-821.608777
-852.20884
-917.2105857
-992.2439248
-1089.724506
-1168.766453
-1288.030735
-1439.328311
-1568.746444
-1725.58609
-2124.930114
-2230.498468
-3900.554821
-2475.6002
)


100
(
95967.26383
70708.69336
46818.47829
43828.87631
27097.7019
22172.04637
18878.40564
15302.04078
12304.59439
11488.40503
7792.228427
7807.71804
6214.160098
4680.521882
4782.166331
3957.251784
2805.210271
2613.654382
2612.569755
1845.653309
1241.645068
1277.420579
1122.852507
707.2078178
359.5011528
426.7081992
303.0062089
88.49914259
-93.43461417
-57.48342203
-76.34376505
-231.2458999
-362.8657545
-435.7607243
-380.0325624
-429.6665113
-475.6341935
-566.3344281
-482.6958144
-476.6559048
-530.6785753
-597.7122491
-653.1718915
-593.5072957
-604.8116228
-662.1546546
-779.0720107
-720.5261068
-680.1347645
-726.9017303
-829.5289361
-793.7859116
-732.0091178
-782.9469949
-870.8451722
-863.5012152
-782.9300615
-852.0037114
-941.2486563
-945.1782824
-902.561506
-961.5510751
-984.1180894
-971.7778447
-981.7467135
-995.0125695
-972.2153565
-964.6965245
-997.4150013
-1028.574723
-1051.688227
-1084.333532
-1135.287679
-1183.504099
-1255.76487
-1305.511582
-1373.326241
-1471.441639
-1477.663678
-1581.658186
-1678.904889
-1709.761433
-1831.944444
-1904.537872
-1995.422539
-2117.630223
-2275.085759
-2453.066807
-2597.8871
-2801.698849
-3006.947552
-3276.893834
-3512.360388
-3835.766955
-4237.041187
-4737.089566
-6348.6762
-8176.559676
-12813.27763
-5030.883228
)


100
(
103688.0806
83781.69477
54196.88443
35699.82703
23232.14774
24558.30096
15596.98635
16290.73492
10831.51092
10266.57862
8226.730266
6260.308553
6332.153663
4559.705146
3580.20022
3661.433211
2904.765048
1987.79003
1803.60433
1909.470371
1262.493032
744.4781494
659.6244545
678.9601974
313.0521106
6.06919609
-77.63005145
-35.19948332
-216.8561641
-372.4192247
-477.1417519
-365.3269251
-460.54542
-589.5969421
-799.5424908
-704.7333065
-671.3721171
-730.2115151
-1005.417919
-932.3287641
-848.4284702
-833.0811883
-1047.031679
-1143.630666
-1070.959166
-956.2403394
-1173.141706
-1385.857366
-1305.976209
-1167.821785
-1319.63246
-1484.553329
-1460.418552
-1365.332571
-1449.761521
-1575.238296
-1567.035554
-1490.543189
-1553.541657
-1660.51355
-1682.831803
-1656.615
-1705.065736
-1749.117833
-1783.809803
-1835.788949
-1882.502409
-1926.791958
-1976.319092
-2020.594028
-2087.8576
-2170.013334
-2268.118192
-2328.863144
-2455.232034
-2640.042234
-2631.378258
-2797.950994
-2966.567808
-3017.101496
-3225.860218
-3408.077925
-3541.06757
-3768.607619
-3996.773151
-4223.412997
-4471.043278
-4752.783097
-5101.47258
-5362.863708
-5718.2581
-6189.924648
-6567.549409
-7162.344068
-7796.537441
-8998.009246
-12727.16262
-20607.14918
-19747.06638
-5198.563242
)


100
(
96410.89979
66772.44538
45398.09285
29755.12243
26207.70322
21749.20664
16532.58553
14353.99179
12281.90198
9034.779757
9206.671138
6549.786706
5529.794076
5324.777515
3804.800185
3104.814652
3196.814518
2539.694346
1751.815827
1516.60713
1642.2677
1159.531638
679.4722215
440.2198836
547.3720395
234.8407139
-89.68861186
-166.6772072
-36.47647724
-138.704557
-387.4441217
-640.3714736
-528.118824
-443.9236531
-706.3000052
-1050.142977
-960.9918633
-748.7185609
-985.0989666
-1387.399856
-1335.788438
-1199.645313
-1188.792778
-1515.665402
-1642.716433
-1465.180627
-1360.352906
-1684.645864
-1963.953323
-1817.897227
-1718.831275
-1908.979635
-2105.691918
-2106.273793
-2023.462703
-2103.943134
-2231.377637
-2260.841165
-2260.181226
-2289.1313
-2391.669127
-2493.879724
-2577.750598
-2660.823743
-2727.863442
-2824.500013
-2922.607051
-2983.529472
-3092.66652
-3191.755837
-3295.664612
-3399.006639
-3551.514981
-3692.189726
-3762.669958
-3987.722829
-4195.960933
-4271.276667
-4521.960507
-4726.918077
-4930.826906
-5155.096616
-5515.060677
-5818.092744
-6096.291446
-6383.305348
-6754.319579
-7040.090821
-7559.402584
-7966.113696
-8309.017943
-8804.996277
-9424.860473
-10114.08319
-10959.12005
-13564.39316
-20208.52566
-38468.64721
-28254.7771
-8654.845371
)


100
(
83219.21451
54645.6038
38344.97066
30311.79912
29994.28288
19219.77986
19160.33179
12905.88316
13218.90959
9855.384213
8518.461003
7938.180119
5682.21949
5200.083881
4818.274054
3550.760486
2983.213212
3099.750283
2564.970555
1847.933487
1492.450712
1599.992832
1253.136102
747.652327
304.9515173
421.9447063
306.6904949
-33.86404058
-80.53389228
35.87062747
130.4285992
-474.5391813
-740.4691721
-623.6961821
-334.3694766
-888.2659187
-1279.834699
-1156.09737
-720.694987
-1198.050161
-1695.128019
-1651.847588
-1354.041024
-1497.373932
-1911.196646
-2035.694253
-1800.56897
-1716.66868
-2115.128767
-2360.454113
-2292.399256
-2200.406939
-2346.043215
-2517.296944
-2616.820636
-2683.081081
-2714.549364
-2763.297656
-2887.163176
-3002.720783
-3077.823265
-3094.60534
-3214.193696
-3390.73619
-3547.051427
-3657.295437
-3807.587138
-3927.067562
-4088.077399
-4279.447574
-4456.055252
-4582.748734
-4759.620709
-4979.629058
-5189.710408
-5273.256352
-5524.037405
-5735.283266
-5987.314478
-6128.172096
-6502.112972
-6807.212686
-7041.824832
-7354.324962
-7674.247051
-8068.870473
-8369.377531
-8687.078502
-9082.999174
-9737.668304
-10137.27319
-10580.11604
-11210.2456
-12047.89113
-13346.44516
-17977.85459
-30026.99866
-59089.94564
-44257.19404
-7778.626566
)


100
(
80725.48065
48913.73874
37794.57934
34961.723
26424.94973
20251.54842
18210.85635
14458.72626
12314.96937
11647.50083
8286.501196
7975.012308
6943.635683
5122.483658
4963.304779
4535.985321
3444.708157
2912.446492
3029.427717
2589.346347
1854.625236
1309.239656
1436.407632
1313.045301
839.4837292
342.0729603
344.0503808
215.7666879
-160.732375
-156.1344503
82.8476866
225.02663
-673.3565543
-938.8583086
-641.3020974
-429.1793095
-1152.116772
-1587.41685
-1186.174937
-920.982166
-1472.804306
-2051.98992
-1874.209842
-1705.503598
-1890.971135
-2347.440063
-2403.058687
-2241.916184
-2123.90777
-2457.895117
-2592.070897
-2746.452257
-2775.28605
-2768.802461
-2881.703041
-3118.999692
-3344.552131
-3457.103713
-3479.982928
-3595.365238
-3762.476784
-3925.88113
-4052.054432
-4138.727292
-4278.247493
-4447.638968
-4725.754285
-4965.225361
-5057.925746
-5199.422241
-5450.920774
-5750.251637
-5971.819931
-6157.512929
-6353.625209
-6655.243239
-6858.65238
-6995.272661
-7390.909945
-7669.019553
-7827.545737
-8158.326505
-8360.987586
-8806.147073
-9111.056015
-9487.285059
-9953.329901
-10455.56106
-10952.56997
-11625.08253
-12407.3594
-13243.97019
-14489.78493
-15780.26438
-17643.93366
-25796.23891
-46581.83525
-74447.98621
-53985.24387
-64442.48385
)


100
(
78477.56722
55974.76263
42998.94534
34540.06446
23270.32761
23017.54809
16417.86345
16559.33199
11608.66505
11317.63459
9675.359768
7319.810586
7427.481146
6187.261143
4675.240152
4695.732197
4272.637012
3225.579621
2563.680585
2688.898313
2466.934725
1812.396834
1110.879193
1285.779713
1454.743527
951.8386318
413.4967687
140.6566918
-71.16797213
-476.5082354
-430.4750132
275.315454
-66.76757248
-1068.312168
-1327.296566
-669.6135006
-797.0737011
-1621.517975
-2006.506749
-1533.297859
-1381.010766
-1956.900796
-2483.144744
-2404.360578
-2245.00962
-2371.545771
-2646.604236
-2794.182424
-2896.37965
-2811.07082
-2844.650278
-3049.479717
-3361.583841
-3618.638237
-3683.088851
-3592.408284
-3807.346527
-4095.779673
-4358.186181
-4555.078636
-4673.656972
-4826.378167
-4998.569736
-5299.822131
-5580.276157
-5667.861726
-5681.182641
-5945.667756
-6287.568667
-6576.653389
-6751.468804
-6921.819069
-7237.121224
-7634.555589
-7852.242326
-8016.017911
-8449.49835
-8757.38807
-8972.184113
-9382.123346
-9612.086612
-10113.02266
-10511.39285
-10991.03397
-11624.91576
-12271.87094
-13026.93718
-13904.62101
-14692.16762
-15680.24602
-16863.39984
-18378.45661
-19749.69705
-22286.74894
-26115.51217
-38056.03045
-74276.2632
-96447.37647
-52906.73416
-146545.1834
)


100
(
75725.08912
59432.64646
42841.22796
30123.30601
24421.95146
22161.76018
16841.19616
15285.81693
13116.63006
10375.74594
10452.38478
8252.007843
6841.676267
6916.864577
5600.13313
4162.507857
4192.928914
3845.659846
2947.572501
2214.788441
2434.110206
2486.241843
1825.017829
1100.33123
1011.44121
1292.612624
954.5801857
371.6093638
-182.3870321
-558.0636709
-999.7981529
-707.2761358
30.70681702
-576.6879827
-1680.103639
-1639.432763
-1223.932401
-1407.21901
-2299.373896
-2459.68148
-2221.123986
-2013.570726
-2497.779686
-2751.375269
-3024.127509
-3008.397261
-2944.962951
-3106.342874
-3418.640445
-3757.324964
-4034.502981
-3855.047937
-3892.973692
-4205.85481
-4557.361147
-4791.216945
-5031.169671
-5041.982979
-5248.181203
-5508.148581
-5949.933584
-6307.381376
-6353.438367
-6383.732163
-6690.231009
-7058.495945
-7337.420096
-7521.328487
-7658.468002
-7948.813061
-8485.98312
-8905.293819
-8962.538965
-9280.426049
-9924.336063
-10336.97992
-10729.46243
-11320.96416
-11696.82064
-12273.87926
-12912.34494
-13577.95902
-14520.89358
-15108.3015
-16095.6548
-17150.60742
-18426.00637
-19751.27396
-21028.43813
-22479.62805
-24245.01101
-26615.01045
-29030.12721
-32135.06998
-38168.45655
-57943.02307
-114226.5613
-127506.5039
-50285.15845
-247737.6051
)


100
(
72519.9463
52443.91689
38017.77192
27510.18185
27424.25535
19897.43603
18971.57791
13932.38062
14222.69429
10966.03215
9769.590772
9677.868324
7384.62766
6406.710255
6425.286056
5063.097577
3754.174141
3920.901835
3843.036601
3004.705602
2054.845729
2271.146251
2629.642783
1912.357459
1162.32178
735.8794589
1048.977564
1026.372723
400.8753078
-199.3518059
-1063.219912
-1547.728167
-661.0629842
-407.5643146
-1113.090223
-2240.909286
-2052.361911
-1839.855298
-1949.757049
-2553.663139
-2830.025743
-2816.445259
-2623.326745
-2714.795706
-3048.327393
-3539.805607
-3946.856761
-3907.981523
-3737.527375
-4050.685184
-4480.479495
-4859.458637
-5004.563401
-5069.995504
-5170.52069
-5481.182796
-5822.207461
-6375.486155
-6738.825075
-6663.913428
-6671.122355
-7122.343993
-7602.459314
-7851.261724
-8042.158462
-8265.744476
-8599.501904
-9204.654914
-9816.593694
-9839.616738
-10012.33485
-10710.26438
-11528.13783
-11951.67993
-12563.13154
-13373.15796
-13883.79373
-14539.35358
-15533.98592
-16435.78212
-17572.6692
-18476.01325
-19537.23174
-20809.68242
-22168.6632
-23691.62233
-25271.1261
-27044.99199
-29024.6858
-31350.24246
-34154.36155
-37217.58883
-40825.89136
-45962.67479
-55729.76772
-84601.63586
-163233.9097
-159859.5112
-63353.3292
-405258.6449
)


100
(
69292.10236
46263.21112
33765.41833
30469.84583
26418.56742
19935.12935
18918.05939
15299.12053
13525.54409
12855.38794
9792.221442
9524.730319
8935.698741
6882.43016
6163.570253
6412.692513
5214.369808
3962.88635
4072.329851
4250.348312
3380.18313
2443.242167
2378.339627
2789.943154
2347.665421
1570.942486
821.2148519
1059.43427
1380.13424
790.5943536
149.6670353
-1133.547125
-1471.158778
-808.3768209
-596.9637104
-1310.932555
-1904.494514
-2183.247327
-1920.377271
-1881.491983
-2182.159546
-2663.814923
-3177.209528
-3202.76475
-2902.528723
-3062.199722
-3596.310927
-4139.780142
-4446.650903
-4371.168518
-4219.869062
-4665.726067
-5071.193695
-5492.988293
-6074.857485
-6128.845768
-5931.674348
-6226.395122
-6848.365733
-7454.870649
-7615.066001
-7557.288486
-7921.817048
-8412.183212
-9053.834068
-9856.752245
-9923.532118
-10062.46201
-10888.17414
-11711.34828
-12374.32691
-12844.89401
-13721.40142
-14578.42821
-15124.1557
-15763.98202
-16945.57502
-17944.28617
-19294.07657
-20655.19395
-21650.91662
-23219.96345
-24751.53555
-26755.98129
-28204.95614
-30104.47626
-32402.47857
-34409.58415
-36831.31842
-40724.04417
-44035.86807
-47579.07958
-51985.37006
-57299.4746
-79463.92679
-124755.8687
-215371.8015
-200727.5467
-64332.56147
-548867.177
)


100
(
65331.79162
44177.26632
36160.05917
33829.61954
24232.37384
22668.18216
18005.51797
17849.27417
13462.00043
13300.27133
11863.78901
9338.466406
9500.00972
8755.40349
7022.944556
6603.355203
7040.335659
5909.586732
4637.238058
4595.089571
5157.528221
4214.340272
3264.661256
2861.959483
3323.570634
3285.127083
2466.882506
1716.797376
1446.949748
1802.388859
1719.555808
1042.409737
-434.7235836
-776.9167549
-406.3725516
-6.235284757
-363.8079516
-730.8431899
-1433.63021
-1708.757817
-1380.644523
-1403.538434
-1943.458883
-2556.859452
-3079.270509
-2848.900843
-2578.387294
-2876.741623
-3401.942565
-3823.820883
-4334.678978
-4445.928134
-4375.529593
-4444.834731
-4997.458138
-5746.267309
-6320.21224
-5961.150703
-5870.617472
-6431.610336
-7147.790446
-7788.897493
-8320.668552
-8477.786635
-8646.089366
-9635.04146
-10656.9054
-10823.78667
-11241.54536
-12253.77421
-13242.83646
-14198.25376
-14720.03818
-15309.01885
-16214.41972
-17577.31552
-19081.68795
-20596.60338
-21320.03522
-22572.04754
-24571.76718
-26496.38438
-28609.7278
-29915.21756
-32476.12596
-35110.47454
-37525.00527
-40382.22405
-44993.55576
-47373.65981
-53523.16708
-57041.15932
-63779.74908
-71425.46542
-101779.1311
-202526.2195
-283442.5781
-229027.3444
-70199.64049
-718160.3251
)


100
(
62258.36426
48098.88906
39966.61025
31154.89667
24619.01221
23824.9547
18652.62733
17740.35073
15809.65168
13210.04601
13448.95017
11338.91618
9653.552017
9977.27963
9283.304612
7618.090078
7307.593964
7921.812935
6890.269697
5642.805689
5381.922027
6011.072386
5372.497122
4423.473104
3548.348631
4071.77693
4500.049764
3728.125266
2989.087047
2357.343743
2476.883305
2816.613736
2249.678891
1281.640853
885.5181036
515.5382653
789.625631
1094.991168
582.8929015
-203.6764264
-966.1664503
-893.2948702
-321.1775224
-692.0087672
-1308.572655
-1826.935677
-2120.774378
-2162.652085
-1992.944399
-2239.291563
-2629.098428
-3386.011549
-4164.764086
-3877.114236
-3292.076299
-3856.975781
-4695.560895
-5278.928095
-5804.685183
-5741.326096
-5730.295101
-6222.760063
-7396.764141
-8568.820464
-8347.329066
-8251.188109
-9459.847612
-10702.1872
-11470.36292
-12223.44635
-12619.64575
-13303.16942
-14001.11938
-15154.7021
-16453.6896
-18099.35077
-19341.63284
-20516.52454
-21568.21307
-23470.72466
-25947.30917
-27676.43773
-29125.25346
-31789.7506
-34894.33328
-37306.47676
-40134.24858
-43553.04295
-46861.26857
-51832.3292
-55188.57307
-62230.53592
-70832.2335
-86043.80726
-124737.9117
-303704.1989
-369392.6267
-268262.9645
-58973.84107
-979439.451
)


100
(
59952.52941
48617.68564
37963.74296
28789.95523
27425.31072
22483.02578
21163.14857
17111.07897
17601.77812
14647.72416
13313.99675
13609.88401
11339.31366
10147.53449
10646.24464
9979.310459
8362.182593
7978.981024
8768.695073
7936.46028
6712.329278
6090.294538
6782.887641
6571.871745
5630.081833
4802.526464
4729.543939
5202.239114
5112.076889
4340.765231
3718.374915
2919.502874
3192.307859
3563.660045
2993.556661
2330.37176
1396.642607
1235.050592
1896.454024
1955.191767
1118.722124
317.1388559
-200.1269825
88.44664702
447.5744136
10.79333497
-512.7740926
-950.0866644
-1974.954632
-1830.233466
-1261.129903
-1332.941632
-2271.583114
-3241.103842
-3630.727131
-3101.696506
-2832.177836
-3598.205831
-4052.323565
-5555.926268
-5976.02479
-5331.868942
-5452.427345
-6840.821964
-7990.739157
-8728.620342
-9206.262295
-10127.46953
-10741.62009
-11312.81524
-11723.41555
-12139.46676
-13829.44002
-15440.0603
-17025.18451
-17709.25463
-18577.29177
-19992.30807
-22506.21961
-24709.20011
-26224.938
-27630.75161
-30223.34232
-33825.9708
-35774.29616
-38606.28979
-42884.44463
-47048.39506
-50083.9694
-53261.95233
-58250.61628
-62292.57553
-66154.34274
-81194.12994
-147055.1495
-410755.2682
-464764.5165
-337823.063
-70118.26035
-1298799.874
)


100
(
58196.56853
45091.20424
35007.33807
29657.05002
28174.47888
21966.31288
21779.49058
18382.23036
17059.01841
16786.57115
13705.74418
13374.83412
13474.31815
11465.28856
10575.24429
11289.64305
10684.33094
9091.47406
8547.470239
9417.907174
8902.993443
7699.047925
6591.172564
7303.523327
7820.841504
6723.233009
5941.32062
5140.780651
5642.713069
6045.60111
5367.697231
4671.894475
3714.839594
3419.701183
3962.388625
4327.339552
3505.238106
2561.09339
1581.232263
2062.880269
2690.532035
2256.836867
1431.340559
993.9930579
350.2313262
318.0640782
589.9422285
526.873982
-22.84180063
-1082.980555
-2123.214382
-1242.371029
-572.6729719
-1524.229311
-2473.267276
-2879.708768
-3619.087695
-3377.44683
-2638.665532
-3531.753539
-5349.557826
-6843.105987
-5793.120782
-5534.329722
-7259.540933
-8499.550538
-9364.683276
-9657.403085
-10072.75184
-10702.38306
-11578.11722
-13427.7586
-15053.11363
-16264.13899
-17032.17015
-17886.28605
-19498.91973
-22065.18859
-24880.5596
-26452.65409
-27249.69605
-30347.54055
-33555.75057
-35903.89102
-38388.19795
-46024.57619
-49560.5719
-50882.5181
-58497.85699
-62672.41741
-69860.74634
-82078.56607
-81798.63687
-101716.9172
-157110.3712
-517388.881
-570807.5834
-421175.9273
-75076.86066
-1687390.838
)


100
(
56435.51705
41324.96112
33624.75287
32135.03911
26162.2566
23977.97302
20713.96519
20481.83721
16696.99383
16646.13245
15664.39178
13120.06681
13533.35394
13542.83372
11657.64896
10916.82188
11800.86601
11279.76944
9802.580621
8953.71144
9863.590897
9794.580585
8601.25378
7641.595074
7602.41631
8187.628111
7730.638333
6996.309732
6216.493103
5551.752658
5980.378412
6478.808511
5756.591393
4712.132194
3468.604773
3985.735226
4945.205882
4494.978411
3491.653014
2604.859114
2009.718941
2461.973279
2873.316154
2348.238026
1869.179238
1019.518753
-186.6785234
217.9282133
1427.493249
703.8283389
-457.0329623
-1567.332936
-1757.573452
-1245.774776
-906.5455421
-1573.400835
-2584.32415
-4495.883277
-4654.620051
-2844.564004
-3764.594491
-5741.097913
-7104.078184
-7876.630411
-8817.593187
-8749.701738
-9098.5281
-9693.717881
-10017.01797
-10901.42266
-12949.45649
-15284.09291
-16364.47648
-17481.01764
-18486.214
-20830.66914
-23265.16094
-25377.10035
-26464.63019
-28512.05855
-31076.18463
-36765.76372
-39112.58629
-40246.55916
-45844.7662
-49919.78469
-55158.53725
-59656.27439
-60705.58142
-71622.5872
-73729.93558
-89010.85928
-104049.2189
-125485.78
-218780.4939
-622803.0318
-683592.8035
-470870.9849
-46818.25738
-2165606.652
)


100
(
53955.23521
41579.87
35747.81243
31580.84892
24989.08067
25217.53737
20576.60889
20093.8217
18510.11934
15968.94407
16460.17074
15229.77955
13167.38264
13895.99252
13876.39889
12088.96424
11257.48957
12310.55817
12040.18063
10636.29531
9360.64678
10263.77985
10973.2319
9608.038467
8707.983094
7865.916387
8475.588164
8969.553876
7879.646849
7216.97703
5758.900484
6074.223942
6970.161059
6912.037167
5727.973737
4539.903506
3862.456152
4832.648211
5366.158643
4500.992436
3684.117822
3193.07635
2112.019797
2499.824892
3180.008681
3119.8724
2031.500387
674.0437054
-125.6404376
1204.221532
1723.7603
415.1096433
-324.0737452
-1194.84626
-1964.637768
-1498.258325
-301.8799959
-2228.490292
-4579.761276
-5540.694832
-4351.044346
-4440.14995
-6571.142882
-7741.952882
-8220.435389
-8647.353342
-9106.998397
-9783.721524
-11503.6617
-14151.00834
-15842.9919
-15730.94623
-16480.3969
-17589.49708
-19883.03072
-22893.35927
-26283.2049
-28871.76162
-30768.04131
-32441.19112
-36118.07897
-38213.39105
-43156.26231
-48203.94405
-53740.98787
-51703.80088
-56471.34194
-67579.75259
-78279.05871
-78236.10959
-86452.11788
-82672.59223
-96815.99586
-135098.377
-244044.9677
-732083.894
-806077.1746
-507299.954
-26376.34785
-2833044.266
)


100
(
52220.53824
43539.45598
36774.19929
29481.91976
26799.40511
23997.43047
22442.59432
19312.54062
19768.40042
17331.20899
16168.36593
16957.78919
15271.65511
13625.02253
14521.27066
14525.40524
12816.62034
11831.21239
12927.89083
13073.99384
11713.92699
10657.63232
10791.75069
11514.87565
10892.35117
10068.18142
9165.265396
8630.761934
9259.501918
9356.896953
8581.705444
7257.988451
6222.9783
7233.060968
8332.770535
6965.132436
5783.46156
4956.877902
4858.198967
5369.999431
5895.2414
5114.83635
4731.0607
3240.025176
2507.532645
3569.052002
5094.837839
3606.932924
2160.505241
1271.498811
1126.651653
1912.632757
2474.953658
2107.562975
159.7746093
-2381.388155
-1406.310223
436.0922021
-1254.581934
-3741.872142
-4810.742946
-5592.971777
-6060.675792
-6361.367999
-6208.712645
-6822.399654
-7048.845079
-8783.768571
-11332.11344
-13353.21808
-14524.64693
-15823.15266
-16818.23029
-19530.44829
-23169.0644
-23729.04137
-23989.33047
-27134.59696
-30848.91969
-35728.1979
-41230.98027
-40317.79604
-44634.73886
-52922.89267
-54995.71146
-60442.75444
-69632.64048
-72004.35951
-84808.98994
-90804.32604
-105027.2424
-106264.7553
-120703.1283
-159265.7391
-325667.7251
-748406.014
-954269.7452
-516259.6426
17851.87794
-3681552.19
)


100
(
50522.15432
41933.58327
34683.9362
28815.63409
28522.94254
22900.80395
23187.13736
20346.21798
19216.85721
19394.25904
16921.03103
16512.79369
17470.50476
15561.3756
14178.69844
15279.58796
15358.6499
13839.1661
12520.99356
13663.46336
14574.55186
13062.34393
12113.47624
11452.09511
12220.17848
12705.81806
11520.28852
10679.9198
9143.147638
9776.045267
11193.07545
10207.27595
8881.59385
7398.259801
7559.113295
8594.703194
8718.656723
7337.013404
6752.117797
5966.25455
5643.981845
6282.363094
7489.41064
6786.427225
5311.365567
3554.42713
4323.230526
5753.47439
6137.118444
4572.493593
4481.889722
2647.286194
2552.125666
4053.826539
4770.950784
2261.74389
-610.4045109
-577.5175253
247.9462541
20.01724869
-1932.305564
-2503.671937
-2914.092384
-3094.459648
-3350.091496
-3718.981557
-6110.102654
-9010.710191
-10792.11525
-9875.350427
-9985.507683
-10920.5721
-13704.04079
-17091.73601
-19793.97046
-22998.54901
-24603.85709
-27067.33186
-29217.15323
-31232.01075
-35766.62774
-41198.22654
-47059.9984
-49488.31243
-50139.37763
-61321.15846
-67489.53359
-76954.02573
-74817.57382
-90191.45876
-94628.88944
-101719.8097
-121079.7475
-165098.2552
-371204.6505
-701044.7252
-1112066.081
-544917.4353
39592.18924
-4802985.966
)


100
(
50060.76271
39805.23117
32834.34402
30480.03931
27116.62123
24515.18373
22535.77258
22231.45638
19185.26037
19240.94254
19001.72481
16809.01159
17006.31445
17958.92411
16210.30313
14800.22411
16098.57264
16461.54906
15076.23872
13981.25123
14459.47391
15397.82962
14627.21979
13810.1486
12848.92941
12802.4031
13566.81306
13407.69663
12511.82033
10961.20164
10395.04249
11793.94122
12198.81267
10598.79579
9307.953434
8430.549041
8918.088914
9624.342345
9537.074808
9060.154268
8330.512572
6528.531687
7024.008929
9197.043717
9639.324148
8003.390266
6436.088902
5765.245164
6761.75793
8167.570178
8856.906187
8519.335382
5449.77833
2944.0083
5855.02933
7641.025298
5204.859152
2984.468439
1913.850262
1229.23148
1207.47461
796.4739878
1297.454111
1805.638163
2075.342155
-225.0926623
-3175.757051
-4184.99274
-4879.88894
-5786.095624
-6075.693075
-7953.556751
-12736.2666
-13011.97612
-11775.50612
-14003.50447
-18537.98167
-21382.82109
-27253.64327
-31815.4774
-29770.15219
-40167.70927
-44432.7665
-44116.6666
-52237.85223
-60919.41209
-59458.57102
-66092.02895
-76324.74585
-80352.70947
-89848.95161
-111992.675
-107011.9433
-161822.793
-458130.412
-654495.86
-1255367.567
-584482.3953
151614.5411
-5697655.269
)


100
(
49112.75411
38636.38913
33788.90582
31561.98566
25997.63201
26234.89925
22182.91181
22035.13616
20900.6732
18725.93384
19512.15105
19036.7782
17091.65413
17757.08908
18685.09227
17069.07042
15659.75818
16896.14618
17963.95591
16455.56272
15540.96524
15244.81616
16218.47347
16554.06307
15502.02435
14633.30982
13482.50914
14378.38022
15768.66722
14344.4948
12858.12687
11202.85095
12178.34974
13262.71491
12478.30001
11231.13788
10811.80939
9532.565431
10413.81647
11581.4784
12073.70757
11289.74434
9769.753222
8149.586551
10667.25399
12248.35221
11173.38442
10352.01685
10683.35696
8366.089102
9459.925689
12537.8106
11668.11281
8609.200257
5707.724252
7281.189939
8375.916125
8053.638568
7030.726331
6737.653966
6647.79741
6869.492116
6987.670508
6838.618552
4081.394647
483.5485127
-606.5792139
1007.541145
2801.651679
2473.715258
126.5781231
-3182.863024
-4317.865491
-6430.203096
-8094.382731
-8678.115519
-13273.73134
-12616.3699
-14266.90189
-20688.07828
-27212.15091
-32375.79817
-31347.93457
-31915.0292
-43700.40421
-43849.41245
-55896.05311
-52911.18608
-60217.5477
-66702.17303
-75682.09258
-76257.37513
-85620.61201
-136688.4127
-529279.7987
-574865.8609
-1380128.702
-670704.2927
161024.5772
-7539384.195
)


100
(
47436.29049
39449.3905
35115.6684
30018.31888
26979.19454
25270.80742
23658.15557
21449.77252
21769.60517
20295.22598
19174.96135
20133.02548
19305.05899
17632.7891
18508.23519
19566.4598
18083.90046
17004.49759
17668.41993
18837.36193
17940.40865
17186.34173
16262.4089
16917.00741
17866.58836
17367.46328
16480.37544
14686.85957
14993.53846
16639.311
16191.05915
14587.79463
13367.83072
12385.61867
13504.05845
14412.8515
13656.40372
13627.521
12628.13072
11407.19725
13117.26914
16110.83833
14715.72557
13273.20297
12089.37644
12037.54276
13805.81917
16092.7698
15817.39039
14812.44005
11466.80509
10312.38896
15055.75814
15652.46873
12065.76357
10624.89582
9765.687902
9594.652275
9713.208556
10774.68068
12052.37143
13630.69371
14326.44267
12205.06777
8987.31063
9079.058443
8860.555277
8427.25455
8091.623145
6617.325214
403.8767654
582.1779171
5241.452906
5355.047763
3160.145951
390.1178514
-2396.416185
-9093.909448
-9412.956788
-8926.31951
-17956.3239
-15175.96588
-11506.28719
-26158.0735
-30405.86792
-25654.69782
-27235.75715
-44012.17002
-33109.33275
-51410.57911
-42920.96404
-62845.49908
-62854.69101
-85448.6234
-495787.5185
-421938.0109
-1449821.052
-783832.8114
310050.7395
-7678041.2
)


100
(
46152.8655
39238.57458
33933.23356
28988.86351
28454.82152
24350.89766
24489.7634
22095.20332
21347.11902
21955.14713
20054.66103
19501.83379
20763.49423
19711.63562
18324.43464
19196.65906
20579.88648
19197.33991
18323.55008
18349.54439
19539.51912
19561.79451
18823.02388
18130.5656
17494.87352
18596.84812
19391.83651
18174.71509