/*--------------------------------*- C++ -*----------------------------------*\
| =========                 |                                                 |
| \\      /  F ield         | OpenFOAM: The Open Source CFD Toolbox           |
|  \\    /   O peration     | Version:  2.3.1                                 |
|   \\  /    A nd           | Web:      www.OpenFOAM.org                      |
|    \\/     M anipulation  |                                                 |
\*---------------------------------------------------------------------------*/
FoamFile
{
    version     2.0;
    format      ascii;
    class       dictionary;
    location    "constant";
    object      rH2O2;
}
// * * * * * * * * * * * * * * * * * * * * * * * * * * * * * * * * * * * * * //

rH2O2_table
100
(

100
(
184.2638635
244.3877439
297.3017819
336.9940544
368.4318954
394.2735801
412.7791854
427.1460668
437.6565972
447.8968221
452.6882524
459.2593066
460.0974496
457.8420798
457.7740339
452.8704684
444.583915
440.9666822
433.8709305
423.8681917
417.7089548
411.2409143
402.5978543
393.6102514
387.0422391
378.5491482
368.2859069
359.5073448
353.1448394
345.1668095
335.7540409
327.5434846
319.4723408
310.1500069
299.6826274
290.2458125
283.8010546
276.0980014
267.2948635
258.8742238
252.2553767
244.6118905
236.0326393
227.5131993
219.8750374
211.4900529
202.4796448
193.1969399
187.0210798
180.2030614
172.8962743
165.6559439
159.8797144
153.6648364
147.0523656
140.5633983
134.3353928
127.8061994
121.0836661
114.8280877
109.2948062
103.5649996
97.69260513
92.28422527
87.28803495
82.16890433
76.97254728
72.40746329
67.8900068
63.33599416
58.9908342
54.96111672
50.93390721
47.00673369
43.40512481
39.8458733
36.41971503
33.21289009
30.10629732
27.16657119
24.37996467
21.74332006
19.26133898
16.94438651
14.77117884
12.77487459
10.91540801
9.234757895
7.688394564
6.288618832
5.041520727
3.948285382
3.011787539
2.205220121
1.546286049
1.022177725
0.6331773505
0.3332710548
0.1118639568
1.078815536e-12
)


100
(
180.1216949
233.410347
280.990731
315.7168623
344.2271752
368.3967496
380.2954467
395.797246
401.5717858
410.9635124
415.7856849
417.3615132
419.5309796
415.8294522
411.5323594
408.489144
401.2002604
391.0814656
386.1680524
378.4577615
368.1259012
360.7890763
354.3808211
345.9994378
335.5665718
329.3471977
321.5251446
312.2319708
301.5694919
295.5220664
288.412148
280.1080479
270.7314731
263.8270128
255.9039434
247.1228262
237.6069455
229.6439522
223.0669795
215.7348424
207.7056571
199.9415016
193.6442843
186.7466753
179.3140048
171.6414564
165.1363752
158.2748537
151.1510558
143.89236
137.662577
132.2732616
126.6833013
120.9061429
115.5665436
110.7506816
105.7461396
100.714468
96.39887195
93.67261448
92.30584698
86.6419264
79.6723235
76.59286456
75.13815143
69.99146172
64.17487878
62.7176041
60.40875267
55.4950889
51.63729729
50.54825737
47.33803911
42.87799
42.63598267
40.83702267
35.97424118
35.2068931
33.65380617
29.45878673
29.18263355
26.72823289
24.6984652
24.57590085
21.094704
20.94669185
19.02138907
18.07365642
17.35376523
16.34471534
15.87450174
15.41407339
15.16964443
14.83388708
14.78529418
14.57886271
14.50687769
13.5564168
7.07992162
2.925150637
)


100
(
176.0261566
222.2530375
264.2398751
293.768675
322.0076883
340.9082122
354.0504414
362.9035923
370.1675327
372.6442276
378.6987225
377.6339528
377.8945648
376.0084732
369.0567923
363.7376809
358.5466215
349.9507973
339.4403014
333.8480446
326.1330886
316.6224327
308.4345614
302.1662571
294.3621816
285.2128931
277.7890869
270.7054705
262.5786641
253.596987
245.8057977
239.5431983
232.5007017
224.7550761
217.1202734
210.4922436
203.2425861
195.5125503
187.4630378
180.6812129
174.7226532
168.3829811
161.7440958
155.090267
149.7109801
143.9739883
137.9902781
131.9602036
126.4409942
121.0586429
115.6516276
110.5112306
105.8411009
102.0225959
98.2419907
94.48764708
90.57055766
87.27996142
84.02638988
81.34144527
80.10033402
80.17631081
77.22871924
72.51485523
68.90681004
67.05654517
63.95231378
60.35249345
57.83081033
55.2209238
52.15835516
49.08382294
47.00383985
44.61153919
42.56877832
41.83065223
41.61255115
39.17719657
36.79889164
36.03956619
34.14189562
32.96402887
32.03531211
31.26268945
30.35325336
29.74262537
29.15421356
28.69356873
28.41801715
28.14534003
27.98275094
27.92857313
28.10647415
28.11375832
28.68392768
29.29508637
29.94173711
24.89442226
16.43886212
9.801375159
)


100
(
172.0003139
211.6810431
247.4372197
276.3557675
299.6163255
312.8926322
327.0658478
330.4545267
338.3871837
339.7972992
342.070892
342.9272575
338.2695897
337.4074626
332.7139432
324.3526458
318.3679615
312.0227054
303.3763715
293.0660231
287.3838949
280.1773879
271.7253008
263.1328505
257.2349677
250.2306417
242.3511556
234.4741997
228.2805452
221.3255473
213.8065966
205.9235998
200.0842247
194.2249636
187.9078974
181.2657225
175.0874901
169.231478
162.9915336
156.6065841
150.3129241
144.9344364
140.2764008
135.5699033
130.9129086
126.0906892
122.1306202
118.0756149
114.0477376
109.6342174
106.0227212
102.3823625
98.83637794
95.18950066
92.05138274
89.07102648
86.04485915
82.81465612
79.95817001
77.26142665
74.68498074
72.76916602
71.69102411
69.44054901
66.37627167
63.32169754
61.05237627
58.60091623
56.19339133
54.22867989
52.51501986
50.8774684
49.34770554
47.95241175
46.69769228
45.40459271
44.11807156
43.21654717
42.43609893
41.27386774
40.39881371
39.76404792
39.18129589
38.54985312
38.18360212
37.83588893
37.47927603
37.13665328
36.9538621
36.76029008
36.81824759
36.98000826
37.08553518
37.89996127
38.68551482
39.69437178
41.03725782
33.09476683
25.0206773
17.55848059
)


100
(
168.0659948
203.3833935
234.44666
258.807734
276.875484
290.5437987
300.0791458
305.0099761
307.2986477
310.4136657
307.9401034
309.6238254
307.1196851
301.5702654
298.6593738
292.5668676
283.9464223
277.5585789
270.9958869
262.9518911
253.8212882
247.7608951
241.2619186
233.8800367
225.7698397
219.9428503
213.8079289
207.1430979
200.1198388
194.2951256
188.5204914
182.3478268
176.0402701
170.0283996
165.4607275
160.6503019
155.7488465
150.3006494
145.9738055
141.4074147
136.8021567
132.2173858
127.7795724
124.1395579
120.480399
116.6420703
112.4321314
109.2631078
106.0759072
102.7101357
99.15766973
96.21801442
93.37414878
90.42882041
87.50040149
84.89612608
82.40221732
79.73917274
77.15448539
74.76413829
72.47445685
70.22268096
68.18119272
66.34151707
64.53500124
62.70238259
60.98630296
59.44768872
57.90291733
56.40541576
55.02119272
53.73004573
52.44147102
50.993088
49.59107286
48.72680837
48.00353965
47.03833927
46.22903163
45.67656033
45.23544909
44.70373183
43.88549783
43.22782607
42.87697691
42.56214152
42.57934793
42.39554725
42.014891
41.38024687
41.83568487
42.49749632
42.58283723
43.52344287
44.48938154
45.78536836
47.04090687
38.75375814
31.40266947
24.2603945
)


100
(
164.2419289
195.0521602
221.4872336
241.393767
255.0119131
268.7284612
273.7581856
280.0873324
279.771726
282.2766384
281.7135751
278.7130374
277.9040373
273.4829771
267.7415182
263.452598
256.9260019
248.6881122
242.2195292
236.0267994
228.8891384
221.0529513
214.9079618
209.2556681
202.9493755
196.1328353
190.0782106
184.8753103
179.6035997
174.2602893
168.8657013
164.4061735
159.6906407
154.9628031
149.7421975
146.0581904
142.2216657
138.3785384
133.3311148
129.8210434
126.2136656
122.6301831
118.6133185
115.1163006
112.1451565
109.1422253
105.5625092
102.0901177
99.48976205
96.79412658
93.85810125
91.00682148
88.52996536
86.10131302
83.64635882
81.26586602
79.02886347
76.83742143
74.73373345
72.72181457
70.82524233
69.04787268
67.33059108
65.69179901
64.1824462
62.77498181
61.37476846
60.01533823
58.78594221
57.61428172
56.46967346
55.2314072
53.98794988
52.7954446
51.83139317
50.72652175
50.01410023
49.44891005
48.88077366
48.02014292
47.08379249
46.42725673
46.20598781
45.75226641
45.39105224
44.92385435
44.7899196
44.55640618
43.82154292
43.93441756
44.50554627
44.61171416
45.25900277
46.05960558
47.08431978
48.60116787
48.40793607
42.11018676
35.92264187
29.45628728
)


100
(
161.5825293
187.030928
208.822658
224.1042854
237.8275861
247.5306228
252.6459881
256.1845151
257.5337162
255.9285887
256.9793754
254.1235868
251.1297051
248.4520736
243.1049928
237.3488002
232.5328503
226.1803771
218.7205258
212.4813683
207.0171808
200.9090724
194.371475
188.4729941
183.7163704
178.441457
172.7782584
167.8099551
163.5526531
159.2800023
154.7360581
149.9351765
146.3355536
142.5882351
138.5297204
134.168983
131.1401492
127.9993437
124.3083985
120.1552089
117.1893626
114.2439913
111.0647329
107.726601
104.8485381
102.3819092
99.45327857
96.50558051
93.64463738
91.36273995
88.87626535
86.44728822
84.09817135
81.90953328
79.86753565
77.86128779
75.91373742
74.05615645
72.29335102
70.5809358
68.9107677
67.35497088
65.90184162
64.49516415
63.11412082
61.84944285
60.62203
59.32207844
58.05524932
56.81393234
55.62739782
54.58611214
53.73447653
52.85903798
52.05402626
51.32735406
50.34671342
49.45042452
48.52462739
47.86071934
47.47817722
46.98921395
46.39470644
45.75240048
45.35699295
45.1189213
44.84828308
44.46731914
43.7796658
43.86172159
44.58489274
44.95892275
45.58933126
46.30234001
47.31682277
49.15340505
48.39381392
43.98919893
39.25530009
33.32939674
)


100
(
159.6651798
179.1682647
196.3216386
209.3925103
221.107944
226.9733146
233.1929532
233.4407998
236.221606
234.8987098
233.7574807
232.5622677
228.3878592
225.3769404
221.7089091
216.1175134
210.5170115
205.7513755
199.9759761
193.5347481
187.7356583
183.0561803
177.9094469
172.5134441
167.0691237
163.1907456
158.833151
154.0765219
150.0064879
146.3915115
142.9130668
138.3529441
134.5935979
131.6290963
128.6020497
124.7240095
121.2152603
118.6978731
115.9726476
112.5072139
109.0804918
106.5410191
104.0262868
101.1899862
98.42144963
95.96183525
93.55579446
90.97807912
88.4536759
86.03230434
83.80613663
81.73429807
79.69516053
77.73329457
75.83875888
74.02853681
72.36431224
70.75379793
69.22981828
67.77974354
66.33781831
64.93058922
63.58135747
62.2284953
60.78594967
59.36853391
58.0659827
56.80062594
55.61602743
54.63972739
53.7432502
52.82246447
52.00967806
51.07505276
50.0735794
49.2118604
48.29551051
47.66644634
47.21913837
46.6992193
45.9745977
45.25240045
44.67379697
44.23018936
43.80892675
43.45864886
43.10367135
42.86766778
42.57417146
42.8106781
43.38667719
43.77765828
44.1604998
44.83800288
45.86826001
47.84331525
47.4647116
45.04087723
41.4444894
35.92539257
)


100
(
157.8020978
172.1695555
185.5107912
196.3941551
204.7803732
210.0332627
214.3520851
215.5438467
215.7812332
215.9515748
212.9535287
212.0395074
209.4822546
204.7064759
201.6756571
197.6437065
192.2755342
186.9785047
182.594448
177.497871
172.0399136
166.7310034
162.8673596
158.6252923
154.2231668
149.604716
146.0146086
142.350037
138.2571824
134.8344865
131.7540853
128.5699885
124.4241858
121.3915409
118.9516389
116.0874175
112.7958682
109.9012571
107.8038208
105.0106474
102.0943981
99.20240222
96.9709041
94.53524382
92.10657306
89.68862431
87.33728482
85.12746719
82.89809968
80.69902023
78.61327533
76.60557228
74.76259531
73.03904769
71.36078169
69.75686126
68.22602202
66.70949935
65.29062921
63.95262669
62.61080713
61.16654934
59.69428016
58.28434321
56.90240133
55.58408959
54.44092467
53.41966672
52.40341207
51.43242512
50.47852276
49.34928067
48.3275004
47.36026067
46.44035268
45.83894992
45.32979281
44.73150203
44.00667979
43.29004233
42.65736436
42.1521787
41.68085461
41.16288715
40.68625575
40.25042633
40.10443051
39.89859422
40.0800287
40.42229452
40.87878682
41.13315535
41.77336337
42.41226277
43.18995479
45.82534676
46.36614425
45.54357331
42.99384269
37.0442777
)


100
(
156.0062194
166.6204787
176.2569781
183.882939
188.861551
194.6074805
196.0818349
198.4485602
196.9963541
197.5665277
196.0281566
192.4516037
191.1947161
187.942756
183.0707694
180.063716
176.0497993
171.0989054
166.1257499
162.2881748
157.9967239
153.4972426
148.6547141
145.4176479
141.8740523
138.2052794
134.3644028
130.8547562
127.7679363
124.2532981
121.3929041
118.8041899
115.479495
112.0471901
109.5617808
107.5279041
104.7282358
101.9631449
99.49214935
97.35431748
94.77565649
92.19486534
89.61206537
87.31919538
85.18483882
83.03644147
80.92040253
78.78669693
76.68695689
74.78696047
72.88879627
71.0774012
69.38949779
67.7623734
66.17612211
64.69639518
63.21428015
61.71389826
60.15935085
58.59176744
57.13288127
55.76002487
54.43041831
53.20294951
52.05336667
50.92422426
49.84901386
48.84664193
47.74019517
46.56634979
45.45242041
44.33732922
43.38770834
42.68344244
42.01954511
41.31374438
40.5552383
39.81375984
39.15841419
38.60205352
38.07155039
37.54805043
37.0347503
36.57020029
36.30386633
36.14182526
36.07615713
36.27134961
36.60630067
37.12775799
37.50477492
38.06506933
38.44531835
38.96264598
39.64771377
43.7311051
45.15375357
45.96804257
44.27181415
37.03800235
)


100
(
154.2891882
161.2879272
167.393389
171.6428605
175.8372515
179.6363848
180.6536258
181.7903218
181.5376372
179.7922285
179.421234
176.8202353
173.5568838
171.5125261
168.0156687
163.2074329
160.2338759
156.509716
152.235009
147.6521493
144.3941513
140.7721028
137.0091281
132.9497756
129.7740149
126.7790344
123.6772883
120.455717
117.1397177
114.4834132
111.5092951
109.0831313
106.5758258
103.5637779
100.6612867
98.56058177
96.37558473
93.93951529
91.466606
89.09252983
86.83284742
84.54056461
82.23463114
79.96992925
77.65755426
75.64269785
73.74729838
71.87701792
70.0406103
68.24387037
66.4440924
64.83565013
63.24489697
61.67565725
60.12724434
58.50743741
56.80160479
55.21269622
53.62524755
52.09872562
50.71100446
49.4354177
48.24554608
47.12681418
46.06809166
44.99005856
43.79043183
42.6048378
41.41602131
40.28041334
39.33542106
38.46140071
37.5596081
36.76011132
35.89848339
35.06418954
34.31798037
33.67425755
33.08179607
32.51335809
31.9402772
31.43091327
31.11127939
30.94312686
30.79917258
30.93810701
30.91139763
31.38892041
31.93545767
32.38789569
33.07307605
33.47405346
34.06847835
34.25832979
35.39723651
40.69241323
43.94778625
46.34063413
45.45911613
36.48217214
)


100
(
153.1741416
156.3023024
158.8757022
160.1987768
163.8578445
165.1421691
166.837436
165.7372365
166.4490413
164.8207204
163.3473375
161.8480224
158.6649116
155.5689917
153.100886
149.6124351
145.0826346
142.3030768
139.0125141
135.3680128
131.1355956
128.3573277
125.2849003
122.0676704
118.6544594
115.5045202
112.970567
110.3082751
107.5714848
104.7604367
101.9973871
99.57553347
97.7101327
94.84939499
92.24336933
89.63437548
87.48051193
85.27688632
83.10365683
80.88549623
78.53506633
76.34469261
74.25127572
72.12261885
70.07098847
68.0498344
66.07679496
64.33708047
62.709895
61.03715778
59.40921648
57.76050443
56.04072343
54.3619593
52.67868086
50.97663826
49.3516341
47.73406827
46.19574751
44.8156124
43.50067728
42.26373812
41.08465051
39.86712088
38.62167715
37.39732123
36.19977938
35.11189633
34.12098087
33.08739038
32.15741185
31.21892377
30.23217049
29.29707306
28.45966064
27.68497014
26.90928079
26.13735066
25.43947159
24.84243321
24.42540058
24.11251405
23.89140014
23.92132637
23.85740692
24.06449154
24.24721975
25.03294594
25.47217734
26.07547968
26.59115019
27.31122779
27.65871338
27.43604026
29.67054574
36.39062436
42.57066602
46.65614201
46.61720281
34.9500561
)


100
(
152.6823802
151.5753464
150.7480944
151.2389974
152.4623106
152.5441124
153.5545943
152.7435447
151.903657
151.2122927
148.6846703
147.3453374
145.1304049
141.6339768
138.6711281
136.1318844
132.8787521
128.7361416
126.0923703
123.2399918
120.1024109
116.5361037
113.8136558
111.1939342
108.4191111
105.5160398
102.4808585
100.2042482
97.90187585
95.49963085
93.03637735
90.39697217
88.06685403
85.9713623
83.41674973
80.96633811
78.61596259
76.21482108
74.25051288
72.19901258
70.1264212
67.98534792
65.79458693
63.87125154
62.01058225
60.14453526
58.32743787
56.5447276
54.71653645
53.00779395
51.31973583
49.5884056
47.86063844
46.09269695
44.24301298
42.63367297
41.08026422
39.55520791
38.13331226
36.72661166
35.3135742
33.96223337
32.60489173
31.25723974
29.95567158
28.75440973
27.62622742
26.59241923
25.63951849
24.65858653
23.59536705
22.55038683
21.51022092
20.52078595
19.61817124
18.73511932
17.8406191
16.97113762
16.33594675
15.9066454
15.48788724
15.0917829
14.84014263
14.87446472
15.03062014
15.34482376
15.75607451
16.40334049
16.77820256
17.1647974
17.64508307
18.15088863
17.78900201
17.19746399
20.40727459
30.17181137
40.80503287
46.24625252
47.5104741
33.82407547
)


100
(
152.2106594
147.675568
144.4504255
142.7847381
141.5910711
141.8226412
140.8733014
140.6960836
138.5653819
138.0578229
136.431558
133.3623993
131.9480723
129.3849246
125.8486178
123.0688828
120.6050638
117.6436235
113.9181867
111.3664493
108.9340647
106.224501
103.1962456
100.4836068
98.23760923
95.80723065
93.28165258
90.63852278
88.15759985
86.0967425
83.88814965
81.60221496
79.15594211
76.50282137
74.30814835
72.07394755
69.79244559
67.54739675
65.17179128
63.04211654
61.19122512
59.31958803
57.38754791
55.45792916
53.48419729
51.71249872
49.93889684
48.08753817
46.21508959
44.31201444
42.31725941
40.51050242
38.79124843
37.08767363
35.40386223
33.73155528
32.06892235
30.58200944
29.05495662
27.51106843
26.02048012
24.49994233
23.01754641
21.62451583
20.31328826
19.13838861
18.01512968
16.87196073
15.74155562
14.60195516
13.4601929
12.35893421
11.31159758
10.28408773
9.226336916
8.184683424
7.230888862
6.310248044
5.523355513
4.852940917
4.22312356
3.6981354
3.634321979
3.594371824
3.508167551
3.611347597
4.225541377
4.719416539
4.758865187
4.544323444
4.333426995
4.927600309
3.001059027
1.570782034
5.865419469
21.26888724
36.37774023
44.36754482
47.59939533
28.75744761
)


100
(
151.7664507
144.5891748
138.7750498
134.8306386
132.2989775
131.6525431
129.9095422
129.1264612
127.6282025
125.3913779
124.4378387
122.1503458
119.1724223
117.3412876
114.688938
111.2207406
108.5984501
106.2873443
103.5776223
100.3300454
97.82741622
95.74579747
93.3815179
90.78000474
88.00437647
86.05638619
83.87995111
81.56869373
79.14858735
76.5639546
74.40295863
72.26758549
70.00633442
67.65958665
65.15057506
62.63594889
60.54533884
58.40496544
56.30025418
54.13206249
51.9824041
50.12095757
48.41821825
46.56454896
44.69651515
42.7572755
40.69594154
38.7222267
36.77814199
34.78604071
32.86303394
30.89013642
28.96329396
27.35315181
25.75528832
24.03429726
22.33794454
20.58624258
18.80665887
17.19438134
15.61271604
14.0614649
12.51107391
11.05233303
9.698122872
8.367613099
6.992903578
5.634224068
4.299662396
3.062995316
1.904615522
0.7444897363
-0.5174169129
-1.821993177
-3.13451874
-4.444051485
-5.591493327
-6.630626493
-7.677610816
-8.655872946
-9.431470297
-10.17531459
-10.71492115
-11.14991752
-11.43419693
-11.28418057
-11.16334445
-11.51101851
-12.39675355
-12.76156313
-14.01202
-10.30109349
-18.18976608
-20.76652532
-14.71599957
7.572138568
27.74034436
39.5938054
46.07632636
24.62940628
)


100
(
151.3569422
141.7786392
133.5541453
127.3184513
124.4202887
121.9586341
120.4422024
118.032477
117.0023504
114.7902674
112.7299409
111.0772396
108.443046
105.5315248
103.5024105
100.8966086
97.6043817
95.05563006
92.93648488
90.48371895
87.68083082
85.14925658
83.33259057
81.21579909
78.91817682
76.42245649
74.22408467
72.16103871
69.91592664
67.55915679
65.06492651
62.42620389
60.34467863
58.14286629
55.87746488
53.50944307
50.98997546
48.84780601
46.89716955
44.90976482
42.88515491
40.87052134
38.77973455
36.90104933
34.9577063
32.92881267
30.87353328
28.7442129
26.38792294
24.41044758
22.50170685
20.59959484
18.73109546
16.87654129
14.98557991
13.19218627
11.34174623
9.468880087
7.638407201
5.756008581
4.070053665
2.505277599
0.9016709954
-0.6463172865
-2.238672747
-3.887505906
-5.488425442
-7.055004856
-8.607827743
-10.10376521
-11.5269192
-13.02870817
-14.64815673
-16.32230578
-17.84399455
-19.27814568
-20.76477881
-22.33020142
-23.82255193
-25.38746942
-26.54526782
-27.61003016
-28.76037701
-29.65153739
-30.50979144
-31.3242857
-32.26845606
-33.29142246
-34.80026723
-36.52987099
-39.27350422
-39.41767337
-47.44084478
-52.61209601
-42.84993464
-12.41486782
13.7348688
30.60088448
41.44448095
17.2215505
)


100
(
151.2795856
139.2327912
128.6685278
121.2429233
117.0328974
113.2461607
111.3846852
108.8244268
106.7109322
104.9318436
102.1779099
100.1781439
98.11172227
95.25624117
92.44244565
90.35058275
87.86382724
84.79669025
82.25627847
80.33628791
78.12522863
75.67115803
73.02508202
71.37400005
69.40856661
67.24578256
64.88355464
62.2766377
60.22021202
57.97607166
55.58236784
53.12758597
50.44477586
48.09490228
46.01131371
43.87741756
41.65400053
39.35803966
37.0130053
35.0602248
33.11733714
31.02592632
28.90592982
26.70212393
24.3593604
22.17204985
20.02644748
17.83572732
15.6599231
13.40365957
11.18458381
9.319018934
7.386976645
5.330539108
3.284807633
1.238106455
-0.9089534884
-2.888374117
-4.829572972
-6.725428265
-8.561666419
-10.35736608
-12.09492215
-13.90988251
-15.8680485
-17.85795199
-19.7805486
-21.59693291
-23.35751291
-25.1614803
-27.11183907
-29.11593271
-31.17998605
-33.22429183
-35.23761877
-37.29127073
-39.46791385
-41.72120016
-43.71920963
-45.59098823
-47.54936569
-49.4462277
-51.57921193
-53.06746032
-54.88979386
-57.13731902
-59.43098093
-61.87120837
-65.00964361
-67.95313341
-72.55750197
-85.0300696
-86.30789317
-92.40727718
-79.02676813
-39.43658573
-6.360280977
16.15714783
32.30963683
4.641135346
)


100
(
151.3927447
136.8842912
124.4078625
115.9581445
110.0660711
106.1133673
102.7445686
100.356598
97.19112186
95.30165967
92.96625375
89.76253081
87.88599542
85.5983112
82.63012452
79.9021141
77.82504735
75.42789429
72.64865931
70.05249273
68.30288113
66.25296534
64.02185991
61.58823336
59.54285737
57.57518205
55.37842544
53.00733222
50.45329545
47.85694959
45.58989317
43.20806294
40.83298619
38.27804667
35.65555017
33.67739638
31.68698987
29.49764321
27.27907423
24.97113872
22.50241562
20.31968463
18.08435189
15.77217024
13.45172158
10.90286173
8.196886021
6.035150624
3.890975934
1.607746608
-0.6553053479
-2.972299181
-5.330573986
-7.515076078
-9.702228438
-11.94377004
-14.2578813
-16.56500286
-18.59312064
-20.53452144
-22.60728632
-24.68881713
-26.82264581
-29.07423058
-31.32034854
-33.56218248
-35.81765698
-38.09043558
-40.37486386
-42.79100699
-45.45066035
-48.17382147
-50.7077231
-53.20197876
-55.93620141
-58.88547269
-61.87592621
-64.95533838
-67.91269905
-70.70731963
-73.71182055
-76.73079252
-79.50615288
-82.31733667
-85.71476157
-89.9674916
-94.19155747
-98.42999673
-103.7913278
-108.8298769
-116.3484789
-127.5623777
-136.070622
-145.9529891
-124.6981654
-73.9213029
-33.46420708
-4.627589474
17.51097229
-10.7180121
)


100
(
151.4917605
135.2810177
121.1872245
111.1306806
103.7526658
99.41946085
95.16063695
92.27370239
89.2906243
86.02290385
83.93974378
81.26307284
77.92891105
75.97241304
73.59289973
70.62762492
67.90626437
65.87732277
63.58073367
61.03471349
58.33019459
56.65583199
54.67309492
52.49214665
50.09345819
47.50885266
45.45388314
43.19386205
40.75721849
38.19704726
35.18101811
32.89751625
30.61794269
28.32371979
25.89695007
23.44754117
21.04066054
19.06501213
16.79291042
14.35580919
11.83490103
9.24160638
6.388739572
3.977820023
1.527444059
-0.9561833929
-3.607639392
-6.307093329
-8.947445797
-11.2327111
-13.76270717
-16.37449029
-18.83412676
-21.43429028
-24.06872188
-26.48068101
-28.85467695
-31.28298497
-33.66160242
-36.03564349
-38.39658579
-40.85184499
-43.50605553
-46.25090302
-48.96046243
-51.57494635
-54.22721847
-57.06527257
-60.16407337
-63.39641361
-66.66609843
-69.98138921
-73.37120374
-76.89293337
-80.75782671
-84.96014709
-88.96680676
-92.89758775
-97.0461438
-101.1902959
-105.6032944
-110.0396781
-114.1102145
-118.9048036
-124.4752318
-130.4819704
-137.1777051
-144.4145988
-152.4535504
-159.8220606
-171.0224834
-183.2935026
-197.8864419
-208.5482574
-179.0295636
-116.3257475
-68.34033658
-32.67738605
-4.254338506
-31.68083105
)


100
(
151.5827216
133.947193
118.2971391
106.684147
98.85920109
93.18058461
88.81150433
84.63597723
81.73402511
78.40653574
75.25804471
72.80596099
69.92682857
66.62936365
64.50890106
62.10569847
59.20205217
56.41252651
54.42162464
52.2105737
49.84329577
47.25785812
45.17096257
43.09961663
40.79930761
38.30819932
35.62637234
33.01568481
30.64663766
28.15212695
25.605176
22.75452888
20.05644536
17.87851073
15.64392177
13.21432533
10.76139127
8.164808241
5.605734488
3.050769683
0.393834135
-2.361029403
-5.151950665
-8.268666021
-11.15495374
-13.68456355
-16.2885959
-19.15339962
-22.05877289
-25.08645906
-28.11077792
-30.83902184
-33.54158385
-36.2528468
-39.25167419
-42.24804797
-44.84681552
-47.46050586
-50.27247488
-53.1333653
-56.06832315
-59.12848636
-62.2397058
-65.39079947
-68.58436944
-71.86905562
-75.30309434
-79.02485712
-83.13013018
-87.3236394
-91.34777717
-95.42248123
-99.86563158
-104.8143977
-109.9746988
-115.28113
-120.7780193
-126.2841088
-131.9857654
-137.8444321
-143.6899029
-149.6668252
-156.0019137
-163.4001182
-171.2205165
-180.2452773
-189.8110276
-199.9696862
-210.8836404
-221.0702659
-235.7913143
-250.7705252
-269.4459644
-282.4080212
-241.7110529
-167.6731907
-112.314604
-68.98632574
-33.92389387
-57.45025957
)


100
(
151.6716888
132.7939361
115.7119153
102.8713554
94.39434388
87.47034271
82.90455813
78.40188765
74.59361257
71.35472415
67.75892535
64.68630118
62.00986294
58.96260785
55.72310877
53.51057787
51.05953343
48.27580459
45.34401312
43.39377354
41.17716668
38.78887835
36.19533788
33.55789172
31.30147038
28.86270545
26.25270397
23.43450729
20.25235057
17.88072392
15.42731011
12.88464613
10.15525673
7.363531304
4.872818058
2.551116858
-0.04810945467
-2.76519375
-5.604546005
-8.642109426
-11.68109807
-14.58649103
-17.56675964
-20.57359869
-23.76999671
-26.99708157
-29.91799197
-32.89599367
-36.20413972
-39.51614865
-42.77721962
-46.28893399
-49.43842116
-52.3962956
-55.46399347
-58.68654157
-61.97970796
-65.31665456
-68.61207331
-71.99397925
-75.57774715
-79.31334046
-83.06946818
-86.77261505
-90.57892243
-94.71640174
-99.299872
-104.2157042
-109.2048353
-114.2010896
-119.3440261
-124.7494915
-130.6171243
-137.1410549
-143.756735
-150.4568939
-157.7106437
-165.2705571
-172.5050443
-180.0485342
-187.6743694
-195.9139255
-205.3887908
-215.142491
-225.4844109
-237.9579358
-250.6437426
-263.7292624
-277.1172778
-291.1234334
-309.3464354
-328.2029844
-350.918421
-364.2162857
-312.4167415
-228.5812448
-166.0596976
-114.8816231
-72.32256148
-94.92598893
)


100
(
151.853963
131.7607799
113.3935327
99.99776043
90.34351934
83.11782209
77.44623198
72.85541637
68.26391521
64.68972937
61.21676165
57.39316098
54.41064277
51.60276432
48.47602293
45.21347288
42.93555753
40.44047145
37.72147214
34.84595285
32.55111873
30.22107641
27.6816093
24.93452097
21.96835936
19.27148474
16.63936249
13.88133861
11.00222362
7.818224015
5.02527006
2.587903654
0.01760229661
-2.727888245
-5.569194961
-8.596982803
-11.37103115
-14.25211395
-17.24271093
-20.31312912
-23.6761686
-27.38006484
-30.49536664
-33.58165807
-36.87706223
-40.30658929
-43.88077998
-47.65827236
-51.21926065
-54.77804666
-58.42559821
-62.03895335
-65.93114833
-69.62306375
-72.86745332
-76.44482167
-80.34553515
-84.36812918
-88.48294478
-92.65055819
-96.89729818
-101.2643722
-105.6773091
-110.2319795
-115.0425361
-120.3156408
-126.1366453
-132.1911822
-138.1754996
-144.2488472
-150.7961148
-158.009344
-165.7078722
-173.4786416
-181.598587
-190.2971635
-199.5877332
-209.0650598
-218.2598572
-227.6541439
-237.3087623
-248.5656488
-260.6745782
-273.0968188
-287.3657005
-302.6804875
-317.7750262
-333.6073618
-349.2385369
-366.9029529
-388.1808786
-410.7669135
-435.8700538
-449.5409792
-389.4596333
-297.1380867
-228.9015159
-170.4221422
-119.8867143
-134.3175794
)


100
(
152.0003255
131.0039735
111.8420149
97.46880101
86.69591757
79.16943223
72.68282171
67.73730638
63.09372033
58.47708835
55.00576071
51.39948372
47.46281074
44.48489468
41.59419989
38.42718557
35.1017736
32.71497499
30.15160513
27.40834384
24.50232496
21.71123273
19.14858193
16.38186299
13.46365213
10.29544486
6.97047747
4.208472182
1.382853339
-1.542829933
-4.65617181
-7.857950391
-10.47030802
-13.18242302
-16.18927422
-19.31215705
-22.60658743
-26.21640783
-29.36797362
-32.63775287
-36.01932117
-39.59289701
-43.38620588
-47.22853816
-50.61111264
-54.35523749
-58.42733546
-62.41790792
-66.46060085
-70.98420937
-74.97670429
-78.89407746
-82.96980039
-87.14535059
-91.39844758
-95.6087452
-100.0376296
-104.7414342
-109.6739808
-114.7352084
-119.7694455
-124.8029274
-130.0174794
-135.6709724
-141.9301122
-148.639451
-155.5636788
-162.5453439
-169.7720664
-177.3938444
-185.6211738
-194.6023683
-203.7759185
-213.1136681
-223.1803153
-234.3566237
-245.7588975
-256.8813507
-268.0113864
-279.2703078
-291.7676461
-306.2605696
-320.423265
-335.9715029
-353.9646752
-371.8231608
-389.481585
-407.8347135
-425.2101797
-446.2776524
-469.9490838
-496.691142
-523.4933321
-536.2199311
-470.9383707
-371.5372271
-298.0723172
-234.0304994
-176.2818542
-185.2273007
)


100
(
152.117262
130.5357819
110.5592914
95.23861444
83.99685328
75.62564176
68.91914286
63.05919236
58.32593845
53.67741381
49.23864859
45.62806043
41.92719517
37.97196054
34.92119342
31.94444006
28.75184107
25.45749958
22.75130026
20.04861256
17.1653755
14.09530283
10.78248757
7.904910669
4.902674516
1.750507789
-1.582734421
-5.252674288
-8.30226671
-11.17786161
-14.17371946
-17.34646362
-20.61129837
-24.03977154
-27.10110488
-30.45557867
-33.90484802
-37.43853513
-41.37684705
-45.37940785
-48.86954587
-52.40136092
-56.26526313
-60.27260896
-64.52063629
-68.99634836
-73.38534025
-77.80306419
-82.28932407
-87.00194314
-92.00733112
-96.61402942
-100.9043348
-105.6227352
-110.5645649
-115.6851042
-121.0433698
-126.5522384
-132.2260227
-137.9567912
-143.8309962
-149.898407
-156.2387818
-163.2131037
-170.8362693
-178.72765
-186.6991104
-194.8999726
-203.690449
-213.3096354
-223.6635052
-234.0216162
-244.5937414
-255.7398003
-267.762904
-280.7199049
-294.132434
-307.5517957
-320.8733248
-334.3270222
-349.6030069
-365.6671758
-382.0762825
-401.8738778
-422.5852829
-442.3691797
-461.9949046
-482.2665773