/*--------------------------------*- C++ -*----------------------------------*\
| =========                 |                                                 |
| \\      /  F ield         | OpenFOAM: The Open Source CFD Toolbox           |
|  \\    /   O peration     | Version:  2.3.1                                 |
|   \\  /    A nd           | Web:      www.OpenFOAM.org                      |
|    \\/     M anipulation  |                                                 |
\*---------------------------------------------------------------------------*/
FoamFile
{
    version     2.0;
    format      ascii;
    class       dictionary;
    location    "constant";
    object      rH2O;
}
// * * * * * * * * * * * * * * * * * * * * * * * * * * * * * * * * * * * * * //

rH2O_table
100
(

100
(
2305.797868
2179.388222
1994.185989
1817.479363
1641.498764
1513.484231
1382.576791
1273.532637
1168.20009
1087.810333
994.8154367
941.5434999
878.2109114
815.2345356
772.966226
725.0588149
674.6636354
641.6275161
605.2636342
565.9675906
536.9367295
509.8429229
480.8277984
453.3724645
433.1725259
411.7018686
389.0492882
368.8563266
352.372865
335.0136847
316.9064711
302.0896809
289.0296639
275.4713719
261.444616
248.2399872
237.1298745
225.6258277
213.8262182
202.74039
193.411821
183.8951189
174.2070115
165.1258846
157.3768431
149.5276525
141.5921607
133.6641832
126.9797271
120.2119349
113.4006489
106.7958671
101.1065613
95.39200817
89.67329702
84.31792382
79.4127657
74.6181045
70.10531021
65.87256328
61.72271185
57.85441421
54.2657107
50.70023256
47.15636476
43.91030434
40.94228516
37.86754697
34.95306476
32.3684959
29.87330469
27.280189
25.03170356
23.0077513
20.76128433
18.865143
17.20227126
15.30981918
13.83168677
12.36411232
10.94043044
9.897229906
8.599169575
7.733099934
6.71236491
6.02139394
5.212796256
4.648992475
4.026335036
3.438082476
2.903256014
2.418509075
1.999648638
1.579207986
1.233285781
0.9194576111
0.7165455676
0.4559643858
0.1749022344
1.416321028e-09
)


100
(
2322.039397
2210.374003
2030.696132
1869.824733
1714.325742
1593.608766
1483.488665
1383.330708
1292.981034
1216.314132
1137.062943
1082.226217
1029.271608
976.5912663
934.9696518
893.7983927
851.0285709
816.4408045
780.6492623
745.1101442
713.5475268
682.4023654
652.4708023
624.233026
598.6979213
571.9207411
547.6032645
524.6207743
502.676767
478.8672256
457.5449203
437.762825
418.7490087
399.2615735
381.393243
364.0583388
347.6884668
330.920747
314.3583312
298.9030802
284.3453384
269.9987873
255.5000724
241.8782448
229.0425195
216.8695722
204.8236681
193.3945638
182.8211083
173.1858298
163.8503517
154.6511375
146.0138655
137.9063224
130.0367042
122.2386876
115.2157585
109.8347115
107.2850927
108.7711962
111.4606462
106.2685339
96.56913626
92.40775906
93.01467411
88.79396666
81.96472289
80.6954875
80.98724719
75.81228105
71.2885036
71.95299381
70.75237961
67.11682382
72.59474622
76.0522953
66.84872307
68.28866849
70.76060007
61.6165574
66.50344969
63.83480161
61.79195363
69.47569284
60.78975186
66.55405703
69.28528614
66.43590208
76.14971819
73.1362199
80.83689736
84.79664204
97.69350816
103.5716769
118.7678322
123.4617587
133.3172794
126.0825226
49.87309505
16.04928292
)


100
(
2331.185774
2231.717188
2057.306796
1903.207716
1765.815593
1650.541974
1546.343204
1454.764585
1368.678304
1293.797802
1222.888041
1161.216662
1108.989401
1058.545095
1012.24607
970.2213773
928.8373498
889.3466507
851.1501396
814.9995101
780.2895551
746.5055465
714.0315181
683.5600903
654.3846064
626.0031545
599.0694504
573.6581314
548.9456669
524.6451783
501.3686498
479.3804778
458.3076958
438.1204625
419.1577633
400.9714403
383.3477307
366.3552823
350.5175538
335.4156571
320.6495408
306.6016691
293.6730555
281.982432
269.6831164
257.4139395
245.9064906
235.6587515
225.6366994
215.7035624
206.9986519
200.3657256
195.8741346
189.9349112
184.1070118
179.2445691
177.0593711
172.4752084
169.2949728
170.1711393
178.7078136
186.0478206
185.9781437
178.6744205
172.4195587
170.6579778
169.0035027
165.6981166
161.5564923
159.6863507
157.012485
154.2821712
151.7451738
150.7951797
155.2641894
169.0393125
184.2045225
183.8419841
183.6008479
188.5721767
190.4755575
201.351863
205.2209039
224.5697782
231.1873982
239.3357047
256.6782688
268.6415956
287.3914195
314.3536581
342.8861666
371.3979355
409.9941537
460.4482736
498.1372035
545.7920344
596.6030703
445.1519507
234.7061352
106.9552113
)


100
(
2333.180764
2244.727673
2072.16004
1931.486799
1801.182735
1684.554374
1587.323305
1494.080175
1413.764693
1337.098178
1268.236074
1204.926849
1146.31673
1096.038866
1048.012961
1001.711727
959.6513843
919.6840835
880.4732894
842.055138
807.8991765
774.4535059
741.8872238
711.1172676
682.8436693
655.2749348
628.8138254
604.2398816
580.8602106
557.840674
535.668981
515.4741214
496.2000727
477.5836585
460.2054029
444.658877
430.1888093
415.7135045
401.8756981
389.353571
379.0788769
369.4813384
359.4087609
350.6648008
343.6569265
339.7116711
332.7940701
326.1060623
320.3702249
319.3665836
314.0951281
309.3231545
305.2809494
304.7632303
300.1371419
294.1679599
290.0896184
291.6066566
288.2523821
282.5629583
281.8495908
286.6913263
289.4870302
288.7267859
284.2470802
279.2083925
275.4696933
274.0389572
275.7392594
281.9155513
289.0546462
298.8064484
311.5028135
326.4260323
337.6472736
351.1478433
372.5124266
384.2367102
395.7008449
421.6865534
435.3570258
451.8208017
479.518235
495.0106954
518.9891805
551.9287736
589.9878599
632.1318964
674.1673844
725.4034728
786.1965283
848.1926431
913.8981206
995.6656788
1090.808989
1196.556394
1296.274413
903.3807024
567.5687353
305.7710348
)


100
(
2328.000602
2260.000594
2091.63787
1949.391435
1822.242019
1710.017089
1611.476096
1520.594692
1437.42657
1363.381045
1290.121303
1228.302114
1168.959862
1113.375843
1066.025467
1020.285222
976.319094
937.3614916
900.4879024
864.4676421
830.3446451
799.8628034
770.395346
742.336351
716.9633989
693.6379942
670.9764602
649.5589052
630.3369189
611.8544588
593.5594238
576.2164761
560.9346975
548.3726212
534.4326608
521.7933746
511.3380641
505.5949401
497.5628207
490.5958054
484.5787341
480.0897482
476.8950334
469.7606241
463.4738804
460.7100216
463.8364557
458.0296235
452.2580798
450.2417404
452.9047466
448.9286748
444.0630432
442.414966
442.6653669
438.2356357
432.9339219
434.9504498
438.2915133
438.1762495
434.9375571
434.5803309
438.2069528
443.9605206
449.5160004
456.6028762
465.5482142
477.0896027
487.0454773
498.4662308
511.6004504
527.2166115
547.7467691
573.8062791
601.1418557
620.8542707
643.4417432
673.1699478
695.5713778
722.7724055
756.610588
790.5932736
828.6619322
873.8598338
923.3520127
970.8750648
1025.860054
1089.162901
1155.298421
1223.964028
1295.567901
1390.002834
1475.575246
1595.557428
1732.553622
1894.956043
1976.325381
1399.171915
976.9074799
576.2836239
)


100
(
2315.628301
2265.749452
2102.573362
1959.690266
1831.149828
1725.586829
1622.144242
1536.333988
1450.802813
1378.762401
1308.614949
1242.343101
1185.482493
1130.547402
1080.64095
1037.586526
996.6949515
958.7711598
925.4304855
894.0667723
864.1298821
836.9813101
812.6759326
789.7335757
769.0458429
752.2096723
737.9587258
723.340208
708.789015
695.7358062
685.4503246
673.5965163
662.6828425
653.0890863
648.4889423
638.5133051
629.5090062
622.4188567
626.1583537
621.8139507
617.6339976
614.3491044
616.2990413
614.6812028
607.8312668
602.5585637
607.2332839
613.0717794
606.738337
602.3867431
604.7936539
608.5634347
606.6829781
604.9935314
606.1457752
608.3937979
609.8393768
616.0103909
624.5413478
636.2677548
650.9139667
664.0560217
672.9476032
683.0647307
696.6653822
712.6300699
726.4067639
738.6631308
753.2012223
769.936608
790.0589616
810.8171465
835.1132765
864.7107846
902.8504008
939.0823895
968.7042128
1005.334708
1047.564062
1089.727762
1131.308689
1181.22618
1242.9704
1296.955573
1355.905851
1415.764012
1476.839837
1541.841635
1630.473644
1710.035544
1782.980782
1888.8342
1994.025941
2139.44516
2309.268072
2525.414549
2415.563546
1825.446011
1382.664475
865.7343314
)


100
(
2311.932327
2264.781195
2106.387411
1961.03925
1842.063216
1733.55232
1633.130885
1545.307452
1464.618932
1388.45801
1323.810359
1259.662825
1202.24608
1151.178243
1103.062816
1060.806463
1024.419582
991.3641237
962.3452262
936.9410914
913.2391178
891.4391873
873.0460917
857.6777421
842.991308
831.9155358
825.8358673
820.8600616
813.4257419
805.1089359
798.8323638
796.3176203
788.819876
781.9427667
778.3326462
778.6354939
770.2480243
762.9884348
762.7990084
769.3900329
766.0152391
762.1949472
762.3756701
766.088386
764.9382437
758.8227991
762.2375216
769.507471
777.8936335
775.9207398
780.3811164
787.1156006
796.4486115
805.6258393
813.2075578
822.7113704
834.212502
848.5999795
863.5357566
877.6651297
894.2486164
913.8204706
935.7086359
959.1405587
976.3540112
995.0517889
1016.743285
1041.263026
1070.759169
1096.530756
1122.243054
1151.935688
1186.742485
1219.319101
1252.362139
1291.182676
1330.765159
1374.651014
1417.811248
1465.983961
1519.624972
1573.590614
1633.71926
1695.82283
1758.946778
1823.374666
1894.064367
1968.225715
2068.212907
2167.979506
2246.155035
2355.151144
2500.249241
2688.66199
2933.567091
3201.506767
2841.065329
2195.77207
1734.762294
1145.55785
)


100
(
2312.78524
2255.500654
2101.380523
1962.573871
1846.541904
1734.357603
1641.248088
1549.403476
1475.399611
1402.654759
1338.507785
1280.503672
1224.964087
1177.307803
1134.31174
1095.435481
1062.611668
1035.387631
1012.948987
994.3584136
979.0721494
964.3647024
951.8556487
942.768004
937.6192309
930.5497519
927.8515423
930.827433
932.8117531
931.1809634
927.3555173
930.5680079
929.9941102
923.7265397
918.1716689
921.1076191
922.201866
914.3258752
909.3564279
915.2884356
923.3467886
921.2994229
919.1048533
923.3867212
929.1425763
931.685508
935.7472085
946.9198991
961.3249713
977.4918216
991.8926977
1004.005083
1017.769243
1033.476993
1054.059312
1076.497216
1091.107955
1106.446803
1124.674411
1145.315679
1168.607763
1189.011572
1214.089599
1242.638398
1273.11101
1306.318194
1338.387192
1366.044688
1395.978666
1434.682333
1475.8571
1511.547972
1547.827919
1584.446943
1622.254727
1661.064414
1697.910105
1742.126316
1791.129094
1840.942819
1895.47152
1954.161059
2016.543042
2084.476421
2161.007993
2248.255884
2341.066359
2441.398136
2562.650017
2688.005058
2822.474439
3009.332974
3230.809565
3513.418476
3881.45102
4206.192256
3457.614168
2644.185382
2081.699837
1416.200835
)


100
(
2308.078845
2244.203259
2096.042512
1962.791843
1845.419519
1737.994905
1645.393417
1559.449759
1484.104491
1418.592454
1356.137396
1304.120311
1255.316773
1211.025306
1174.344916
1141.773494
1114.091368
1091.672833
1077.213099
1065.713351
1058.222327
1054.059758
1048.029019
1044.017294
1042.393999
1044.359704
1044.359871
1047.522104
1056.373527
1062.362197
1064.573236
1065.862986
1074.209047
1074.06338
1068.230478
1067.038679
1071.8771
1073.656756
1067.19299
1071.143603
1080.371218
1091.640627
1094.101706
1101.088688
1110.94472
1124.145052
1139.62109
1155.088405
1174.076865
1195.888544
1219.184467
1245.357835
1268.189419
1286.985251
1307.628637
1333.10687
1360.702392
1390.168768
1413.59086
1436.929859
1462.620044
1490.160056
1522.565899
1556.443103
1589.35145
1624.134015
1662.282223
1702.110354
1740.222973
1778.731886
1822.627319
1867.318257
1912.828707
1951.317732
1987.988279
2031.520308
2078.987732
2129.215975
2187.381561
2251.254867
2318.86245
2390.66182
2471.66757
2577.139631
2689.860548
2815.106205
2948.337657
3122.230118
3267.898919
3436.562573
3654.413088
3924.99588
4271.153326
4698.12877
5172.569045
5520.315149
4345.176127
3318.365281
2565.149447
1717.5145
)


100
(
2297.816467
2237.336672
2091.224456
1957.566628
1837.800769
1740.06954
1645.316961
1567.796287
1493.632152
1434.633587
1380.047505
1330.971268
1290.936047
1253.983963
1223.470687
1199.089666
1179.020835
1164.544893
1156.761655
1151.644756
1150.04921
1151.676977
1157.317351
1157.940995
1160.007929
1163.594322
1169.59194
1175.946128
1182.278011
1193.860631
1201.382654
1206.090735
1215.407264
1225.520388
1225.989506
1221.456236
1226.842931
1234.45078
1240.065911
1243.099296
1255.764242
1272.537119
1292.685458
1309.333132
1324.032814
1341.287851
1361.290419
1386.815062
1415.761594
1440.314525
1467.196672
1495.59598
1525.066023
1555.68804
1585.755491
1611.818339
1643.704075
1678.596914
1714.449572
1751.853486
1786.119187
1815.315179
1846.240267
1883.101151
1923.594922
1962.960498
2001.765439
2045.699188
2092.533777
2142.624372
2193.405378
2242.076306
2291.95708
2343.487932
2398.919447
2459.295827
2530.932937
2609.661478
2690.87055
2776.07422
2872.969388
2992.631841
3122.357794
3263.675121
3416.273941
3594.074441
3802.254129
4004.522559
4225.329743
4492.835456
4806.890005
5220.598346
5670.14893
6287.480827
6928.045632
7127.8323
5450.774708
4222.057389
3254.130703
2105.019047
)


100
(
2282.015927
2224.512594
2080.601054
1946.073931
1834.219794
1737.811277
1648.434407
1573.99354
1508.375379
1450.908496
1405.617022
1364.968392
1331.405585
1304.228577
1281.398287
1266.182585
1254.899288
1247.668408
1245.746222
1249.868081
1253.336231
1259.554138
1267.551146
1278.469503
1285.949678
1292.345865
1299.45456
1308.047181
1319.103515
1327.021427
1340.281614
1350.969641
1359.686129
1374.190425
1387.258987
1391.251585
1396.885157
1408.187223
1423.199362
1439.839008
1457.520726
1478.407929
1502.552703
1529.370776
1561.083311
1587.226966
1611.20399
1637.356443
1667.679708
1701.308613
1737.686452
1767.577421
1800.082486
1835.516919
1872.413943
1911.708266
1954.834748
1992.631671
2032.56444
2073.333789
2115.432609
2157.766291
2195.210394
2232.229713
2277.28441
2327.434414
2379.967014
2434.843052
2488.633096
2545.22459
2609.1403
2678.899622
2748.282024
2829.132463
2923.353636
3026.157064
3128.529985
3234.435676
3352.060047
3489.733529
3646.965123
3816.880766
3987.658742
4163.99533
4402.824461
4634.13196
4911.54627
5182.487269
5507.321276
5877.553639
6334.519225
6880.080895
7562.223844
8407.848764
9224.285953
8943.610794
6743.634489
5322.529938
4136.823795
2637.010964
)


100
(
2269.479926
2207.459487
2064.159209
1930.151849
1827.975236
1731.067371
1651.725668
1578.005917
1522.173916
1472.086097
1432.800061
1402.13811
1377.762711
1360.331765
1347.486516
1339.475414
1339.197108
1339.850045
1343.588602
1351.061118
1364.331749
1373.772685
1385.045357
1397.644954
1412.098141
1425.74634
1435.439714
1445.782889
1457.009085
1470.636982
1486.518942
1499.611757
1508.39077
1531.937592
1551.714312
1572.430026
1588.048619
1605.622044
1624.532356
1646.88567
1675.58622
1704.399828
1733.40507
1765.828049
1799.896708
1837.10391
1875.534019
1907.640744
1938.040227
1974.555198
2013.344078
2054.976395
2099.738268
2141.230725
2183.123438
2227.28396
2271.690746
2322.109409
2372.457233
2415.186456
2461.266211
2512.894867
2567.862494
2627.369349
2689.056746
2751.207199
2815.356765
2883.920183
2956.704011
3025.2753
3112.601069
3215.738472
3335.262539
3460.319857
3587.328349
3724.804222
3877.370029
4042.877457
4228.848174
4425.163389
4625.570874
4843.213509
5096.176758
5362.966851
5663.603279
5972.664547
6367.101274
6740.220499
7176.387456
7731.586397
8349.359094
9098.527358
10026.10961
11104.25164
12115.36421
10976.61165
8269.314302
6659.808936
5216.924245
3430.209536
)


100
(
2262.582658
2185.4006
2042.07263
1920.312885
1817.630524
1725.341969
1651.987309
1586.92284
1535.023509
1495.118042
1462.945444
1441.797775
1427.488738
1420.107718
1418.343971
1419.379399
1424.49304
1436.332999
1446.699833
1458.358818
1472.045192
1489.772333
1505.094292
1520.201333
1536.381834
1553.846023
1573.171113
1587.215476
1601.348554
1617.220812
1635.483268
1658.055547
1680.082471
1701.201896
1730.07203
1758.995208
1787.68243
1818.938466
1843.677674
1871.309723
1902.002378
1937.864249
1978.434075
2014.336776
2050.485945
2090.124202
2132.349814
2176.344775
2223.497416
2267.233658
2311.443013
2357.351016
2404.432691
2455.310965
2513.049941
2560.783631
2609.134787
2662.815739
2721.067086
2784.975893
2855.314007
2923.532537
2997.207273
3074.716218
3158.979178
3247.937923
3324.740883
3410.417439
3507.765547
3619.41972
3750.625614
3891.610227
4044.256496
4208.342885
4380.020214
4566.593299
4794.672348
5048.11711
5290.422313
5532.389761
5805.115217
6125.485858
6469.919227
6817.417659
7197.716041
7662.243836
8140.641913
8627.993742
9286.914343
10045.285
10897.54911
11833.74524
13018.76255
14378.83887
15451.2737
13265.45818
10240.11519
8304.451204
6572.305206
4322.928532
)


100
(
2251.664317
2165.089801
2026.1278
1905.796564
1802.903797
1721.249621
1648.995218
1594.530821
1548.264567
1517.964988
1495.764941
1482.893428
1478.950337
1480.831269
1489.384099
1501.037808
1513.660392
1528.831958
1549.23253
1566.875335
1583.565116
1601.511752
1622.500998
1643.362837
1662.045011
1682.171498
1703.380288
1726.948727
1750.667804
1771.17747
1794.259179
1819.963312
1850.534722
1887.477248
1920.206913
1954.417898
1990.837607
2028.262161
2070.486719
2109.382408
2142.989194
2178.838564
2219.375597
2263.304966
2311.126955
2354.995077
2401.615486
2453.483737
2507.550795
2562.830127
2622.282199
2675.564554
2726.916281
2780.576857
2839.835692
2904.398561
2974.91989
3038.842601
3116.146976
3202.07194
3290.831251
3390.052093
3491.072437
3584.739772
3683.128008
3792.616186
3912.366087
4041.012003
4183.546899
4339.861377
4509.968094
4690.81812
4879.91486
5085.939848
5318.967276
5588.585192
5878.473742
6186.670588
6506.609827
6835.686336
7225.310685
7645.431133
8062.900095
8525.913768
9069.163422
9636.120626
10199.03756
10904.9282
11797.17328
12722.67187
13822.86818
15048.51407
16620.31676
18250.81143
19132.58381
16007.35285
12689.47056
10426.31347
8343.304956
6041.474223
)


100
(
2236.751482
2147.185553
2007.642631
1887.497836
1789.246897
1713.384707
1647.098883
1599.435645
1563.770069
1539.453941
1528.184346
1524.588659
1530.122139
1541.822461
1558.09631
1579.69344
1601.717519
1623.023586
1645.549147
1671.356659
1694.725877
1715.448246
1737.21086
1761.538922
1789.111895
1811.997106
1837.276793
1865.154609
1895.783141
1930.426864
1962.141999
1994.635873
2030.683177
2069.913027
2114.673715
2162.290223
2203.883373
2247.1467
2291.292279
2338.879372
2387.913448
2431.2879
2472.275553
2520.239445
2571.849865
2627.883406
2689.143799
2748.845007
2808.889937
2871.919656
2934.33393
3001.691135
3071.109369
3129.799808
3194.267549
3274.309303
3363.117933
3462.559913
3572.523517
3675.116404
3783.118216
3894.63301
4021.664451
4154.066329
4273.477926
4416.192696
4579.734497
4763.412416
4960.451841
5159.126996
5366.450162
5594.297436
5847.494622
6126.295372
6430.456091
6757.591904
7103.373328
7479.763213
7899.555509
8370.42741
8855.487253
9359.940693
9896.486778
10523.95806
11194.91001
11869.23427
12614.14381
13504.79057
14527.56901
15713.62806
17049.35081
18526.29354
20561.05842
22536.90092
23192.43838
19300.12936
15657.5971
13031.78169
10581.00952
7698.252684
)


100
(
2217.884426
2126.416929
1986.058233
1864.780016
1776.569631
1701.486854
1645.514717
1601.071456
1576.217759
1561.486505
1558.621468
1565.286102
1579.443287
1601.005788
1625.835808
1653.301816
1684.385415
1714.273149
1741.924101
1769.816473
1799.593445
1828.757617
1853.971006
1880.682251
1909.500422
1942.368653
1975.429453
2009.076223
2046.369179
2086.471599
2130.597277
2179.046892
2221.136237
2265.825893
2313.402411
2364.991426
2421.767441
2472.816678
2520.672662
2570.770848
2623.983146
2679.290953
2738.794331
2794.456284
2853.985528
2917.90124
2984.015026
3053.62231
3133.846429
3202.498473
3271.621609
3343.980145
3422.375504
3507.188843
3602.746379
3700.435225
3812.915511
3934.758585
4059.829205
4202.638731
4332.633503
4456.783213
4600.43278
4759.319869
4937.442217
5139.176523
5350.910769
5574.535887
5813.983896
6065.4861
6324.33704
6607.642504
6946.350936
7313.067727
7684.946523
8074.583503
8506.936508
8982.880072
9511.860016
10079.03727
10662.67604
11287.4541
12020.70304
12776.74117
13556.62998
14417.44794
15397.03908
16500.07427
17770.6681
19079.82082
20747.57701
22494.32044
24824.69933
27115.94688
27454.19889
23067.95022
19079.65244
16105.20943
13260.98908
9868.673623
)


100
(
2202.342846
2103.084505
1960.784429
1845.187928
1759.927844
1687.9492
1639.883153
1604.118885
1585.285766
1581.182897
1587.247334
1603.714149
1626.870936
1656.085609
1690.192705
1725.064789
1760.650687
1798.488009
1834.70977
1867.513525
1900.193163
1934.22964
1970.679528
2001.714684
2035.084057
2071.773284
2113.012132
2160.198972
2203.934911
2251.62995
2303.095803
2356.705359
2415.53713
2470.81644
2522.348095
2575.828076
2632.610443
2693.223515
2757.045218
2813.899578
2872.252744
2936.861092
3004.528937
3076.270593
3154.174374
3229.016756
3303.951711
3381.763157
3461.992049
3549.700736
3642.348961
3724.868734
3818.991097
3928.39713
4048.236597
4176.779948
4324.153321
4463.966931
4608.621315
4760.360193
4921.327505
5092.678614
5258.151958
5457.33434
5685.306042
5936.235486
6201.588909
6473.02876
6759.211394
7069.72472
7415.467117
7804.669864
8206.15618
8631.576535
9077.436312
9552.593972
10088.86437
10692.06441
11326.28528
12004.55045
12724.78812
13511.93776
14363.21424
15237.87446
16208.47475
17390.70146
18595.2616
19859.9292
21371.25984
22997.05821
24933.74571
27637.66885
29883.81087
32463.57789
32036.39151
27156.88071
22901.73326
19585.45477
16357.20271
12744.99857
)


100
(
2188.689381
2077.03453
1934.755075
1824.64512
1739.321206
1676.439797
1630.048284
1604.338601
1591.956594
1597.384429
1613.233376
1638.497608
1671.03512
1707.616822
1748.526971
1791.852837
1834.210384
1876.193948
1919.044564
1961.296438
1999.464176
2038.105172
2077.834988
2120.918076
2163.711174
2207.451219
2255.287404
2306.726244
2363.642519
2424.163352
2482.514125
2543.337632
2604.593198
2669.933901
2737.681345
2794.809305
2853.133104
2917.685187
2985.719245
3058.714997
3138.412913
3212.867059
3290.782516
3372.44904
3455.888841
3548.476365
3649.66217
3734.827794
3822.599396
3920.993944
4027.673865
4146.51215
4278.435734
4410.972894
4553.321998
4704.653619
4869.933138
5051.055817
5213.953372
5377.479257
5569.738459
5777.502728
6010.243778
6268.023121
6544.689206
6833.406771
7143.479732
7474.750525
7821.075241
8204.779425
8644.398542
9113.568256
9594.34133
10096.92772
10646.58099
11269.47129
11920.36598
12607.95187
13337.16196
14136.7247
15047.33075
16025.84338
16989.6389
17998.38652
19221.67827
20590.69888
22038.62135
23622.70665
25411.39046
27343.95892
29612.47098
32377.75378
35354.6994
38144.44674
37142.80038
31517.85885
26981.86783
23399.69386
19823.21392
15818.47122
)


100
(
2172.285344
2055.270065
1912.570209
1801.305054
1716.1756
1660.712376
1619.14173
1600.447969
1597.653424
1609.308204
1635.142531
1668.612767
1709.721638
1754.684064
1801.441203
1850.839454
1901.254078
1949.653053
1997.240543
2045.146691
2094.369083
2139.256111
2185.566391
2234.5267
2287.703258
2345.895449
2401.424767
2460.766217
2523.79128
2590.54055
2666.173472
2733.239086
2800.382385
2868.106612
2938.428623
3010.649489
3084.185716
3151.523835
3228.06486
3312.227502
3400.921603
3493.81453
3596.110289
3687.380386
3781.474086
3878.697538
3985.641048
4099.929224
4219.60038
4330.914697
4463.265184
4610.04255
4761.870601
4933.472308
5115.772416
5287.299866
5461.432624
5656.575179
5861.992897
6081.633334
6305.681616
6562.361269
6847.46752
7157.35233
7484.030071
7822.919951
8186.367644
8583.865833
9031.906647
9523.411775
10031.34425
10565.27726
11129.07947
11728.96392
12402.23272
13148.48237
13927.15164
14737.32405
15624.30007
16587.18703
17642.60694
18738.2824
19856.69912
21154.38076
22604.30071
24171.28632
25928.27996
27865.26199
30064.02498
32168.61465
34932.50154
37915.222
41197.88082
44424.9588
42468.15236
36138.00588
31347.04165
27488.60701
23622.76958
19352.95037
)


100
(
2153.186134
2032.813885
1888.160131
1775.136899
1696.76938
1641.289508
1608.052909
1592.212572
1598.6778
1618.621081
1651.494595
1693.963032
1741.645731
1794.576528
1848.918086
1903.25928
1959.070133
2015.685386
2069.980219
2123.800969
2177.355465
2234.093101
2290.39202
2348.024984
2409.393026
2474.221953
2544.244938
2616.417117
2687.602301
2761.122387
2835.814247
2916.634692
2997.025657
3069.718596
3143.694189
3222.728318
3304.322128
3392.238021
3483.37291
3577.77739
3678.440967
3783.408994
3890.158374
4009.055973
4123.55566
4229.977096
4343.58374
4474.663988
4617.421349
4776.407954
4947.045371
5114.134048
5289.633485
5472.56327
5684.171449
5908.799978
6107.797867
6320.090941
6562.59438
6826.991601
7120.024544
7436.830807
7774.938556
8134.972095
8511.821086
8917.169847
9346.738282
9831.511265
10367.08331
10933.1355
11520.43204
12141.59935
12815.92075
13574.19875
14389.03572
15231.74479
16117.76427
17065.38188
18101.70302
19247.00281
20472.93467
21717.87558
23073.47626
24629.70596
26317.46592
28227.06594
30311.50371
32494.65174
34945.95607
37454.82933
40653.56116
43880.45828
47775.38735
50878.27503
47963.56243
41108.10268
36104.23451
31909.89557
27779.12488
23180.80257
)


100
(
2131.454259
2009.067678
1861.945153
1748.54297
1674.259173
1618.842404
1592.788915
1583.635679
1594.762321
1623.108189
1662.862597
1712.699692
1768.07395
1826.441572
1887.900641
1949.351613
2010.052998
2071.377271
2134.552222
2195.077719
2256.512803
2319.764786
2386.765719
2457.694185
2528.22729
2602.374081
2679.610448
2761.292487
2849.793928
2929.68106
3010.329922
3092.505138
3178.285577
3267.307892
3353.456972
3438.520135
3531.796761
3630.489866
3735.040505
3848.417726
3965.376818
4081.535816
4201.441574
4323.501244
4455.007439
4593.559757
4729.11763
4875.965873
5047.92401
5233.142102
5426.148408
5646.458566
5852.59903
6054.444676
6270.184129
6512.325968
6772.39941
7046.743457
7333.333627
7646.476377
7988.058065
8357.073675
8746.429267
9153.550748
9591.284056
10069.92494
10615.10744
11205.86751
11828.87842
12463.53915
13136.08119
13856.7653
14653.94172
15532.0703
16458.39418
17442.17337
18505.12372
19655.75292
20826.70171
22067.43188
23404.98627
24880.33213
26544.24231
28327.97935
30232.7951
32487.86965
34835.25599
37403.46969
40061.84827
42961.7684
46382.84012
50069.85358
54110.8091
57498.70866
53639.34048
46444.75495
41261.95416
36773.1622
32328.12577
27959.92761
)


100
(
2114.58716
1983.842782
1834.059534
1724.921154
1649.269705
1599.590009
1573.704841
1571.668301
1587.247998
1622.174544
1669.01122
1724.443258
1786.838058
1851.706342
1917.857176
1985.989083
2053.570597
2120.549972
2187.952849
2257.95857
2328.178763
2400.289302
2475.744058
2555.039017
2639.84687
2725.646996
2812.543281
2901.680539
2992.457049
3088.54247
3181.022046
3268.948307
3359.217155
3453.646166
3552.776834
3659.543228
3765.024366
3876.244944
3993.005159
4113.38041
4243.565503
4386.933851
4517.158849
4649.654183
4792.748937
4948.041853
5118.168456
5309.509954
5504.838258
5712.417537
5932.6431
6157.69635
6411.105149
6661.891254
6889.531776
7154.064964
7452.907819
7779.82747
8134.767698
8509.896191
8907.320903
9331.624221
9772.454616
10245.86052
10750.58684
11322.40375
11946.77864
12609.94211
13300.20262
14028.47383
14817.02024
15690.76825
16653.78202
17630.45732
18659.54268
19779.11283
20999.03846
22291.8129
23646.77673
25070.45501
26554.99175
28308.48941
30203.43125
32209.69607
34517.19497
37032.35547
39582.05924
42331.26543
45310.19608
48510.84915
52387.67653
56497.49121
60805.66066
63976.90538
59431.15838
51942.14143
46705.39026
42002.10206
37267.0045
32245.28542
)


100
(
2095.8788
1959.675779
1810.151011
1699.511899
1622.005231
1577.16987
1552.885103
1555.474662
1577.345686
1615.394938
1668.942665
1729.92026
1796.976598
1868.40798
1940.454478
2012.853153
2086.993314
2160.808714
2234.843968
2310.452028
2389.705599
2472.489495
2557.492066
2646.365103
2738.629756
2835.796733
2937.652981
3035.343323
3133.508605
3232.421581
3334.563528
3439.970234
3538.860228
3641.291384
3751.97453
3868.024558
3991.440727
4126.718199
4254.723936
4387.470671
4524.272183
4667.925302
4822.078559
4984.960138
5140.470252
5318.230211
5518.917212
5729.931044
5954.282267
6215.171808
6455.663893
6700.38835
6960.229069
7238.716427
7535.724203
7838.127217
8175.634053
8547.336854
8950.279069
9380.00923
9827.712993
10296.3695
10799.14478
11348.34159
11970.18375
12643.10339
13354.32753
14079.36263
14848.90109
15673.74302
16578.41762
17569.4192
18607.52517
19711.64307
20907.1115
22221.72721
23631.37596
25041.71015
26496.96754
28046.12174
29803.5551
31802.7454
33877.53766
36146.21052
38742.11498
41431.36409
44315.49286
47338.94611
50453.94196
54062.92467
58081.96863
62423.24174
66862.43803
70180.04382
65293.64148
57528.01473
52193.23677
47414.31585
42499.16186
37424.89596
)


100
(
2075.397134
1937.092688
1785.656915
1672.662612
1597.697011
1552.287126
1532.556656
1535.368498
1562.591965
1605.679969
1661.936534
1728.769711
1800.087037
1875.432866
1953.683657
2031.898118
2110.200676
2190.438809
2272.05074
2355.366355
2441.70327
2532.501452
2629.324451
2728.183743
2830.283725
2935.428103
3043.423132
3156.964247
3265.204796
3371.701809
3479.64603
3590.464823
3705.941522
3828.834394
3949.739554
4079.501044
4215.116781
4354.033958
4505.261927
4661.564186
4807.433258
4956.143265
5117.476437
5290.13426
5481.604093
5694.515086
5919.635219
6159.343012
6410.252362
6678.619162
6973.635518
7255.653026
7526.0143
7834.218317
8167.588719
8530.140563
8926.423363
9350.138596
9803.492462
10274.03097
10772.93035
11304.06256
11869.5635
12506.10161
13201.23447
13934.80818
14703.69465
15517.74267
16398.60294
17364.45957
18436.78858
19513.73715
20634.40795
21839.07362
23160.66872
24610.84272
26144.44083
27752.42306
29395.9722
31128.50308
33111.4439
35256.75962
37512.47218
40166.05283
42997.04473
45863.16904
48848.61423
52167.54998
55392.98646
59377.22511
63541.50259
68455.57768
72987.44268
75977.85699
71207.19627
63300.78648
57713.18035
52880.75102
47838.89799
43032.18762
)


100
(
2053.21627
1913.61734
1760.296562
1644.804169
1572.198255
1525.218699
1509.169006
1514.685818
1543.157896
1590.620735
1650.346263
1719.970716
1796.298653
1875.078551
1956.650077
2040.669986
2125.048406
2210.201877
2298.155934
2389.666564
2484.582769
2583.782935
2687.095324
2796.227558
2910.335199
3025.051788
3141.209203
3257.885083
3378.290276
3500.230761
3616.811906
3737.30206
3862.901746
3995.184627
4136.411891