/*--------------------------------*- C++ -*----------------------------------*\
| =========                 |                                                 |
| \\      /  F ield         | OpenFOAM: The Open Source CFD Toolbox           |
|  \\    /   O peration     | Version:  2.3.1                                 |
|   \\  /    A nd           | Web:      www.OpenFOAM.org                      |
|    \\/     M anipulation  |                                                 |
\*---------------------------------------------------------------------------*/
FoamFile
{
    version     2.0;
    format      ascii;
    class       dictionary;
    location    "constant";
    object      rHO2;
}
// * * * * * * * * * * * * * * * * * * * * * * * * * * * * * * * * * * * * * //

rHO2_table
100
(

100
(
4648.840803
3966.765242
3472.125767
3085.364807
2757.30252
2529.196196
2312.982235
2136.155152
1973.940378
1859.95006
1718.316736
1654.513651
1559.081541
1459.598593
1403.503864
1323.808052
1231.849986
1184.825158
1121.275377
1044.55902
997.9505665
952.8544997
897.4424478
844.7442001
813.7581428
774.1867046
727.003286
687.6678252
660.1182876
625.5431174
585.0311922
556.8769667
533.7088623
505.689591
473.2899765
443.9540868
423.9934535
399.3646848
370.8925813
344.5411323
325.7465546
303.6184804
278.5811162
256.0021611
240.4323827
222.645384
202.9509129
182.2030091
168.3117751
152.418021
134.9863084
117.9238188
105.9718653
92.70238164
78.31550412
66.32294537
57.81420438
48.68169007
39.37359679
31.32022902
24.89308234
18.35604664
11.75947979
6.054814452
1.224727591
-3.569357747
-8.299781344
-11.83805581
-15.11272674
-18.18335837
-20.80596875
-22.87393845
-24.659917
-26.11329855
-27.12082558
-27.78392772
-28.07249701
-28.22926233
-27.89193213
-27.37325866
-26.62250896
-25.41082676
-24.20948969
-22.53348098
-20.92741165
-18.99823766
-17.12294974
-15.07842625
-13.11259255
-11.22392793
-9.412514961
-7.682037652
-6.053877339
-4.58097849
-3.281718964
-2.200845791
-1.343656454
-0.6923175036
-0.2356739928
-1.68653643e-12
)


100
(
4719.236424
3891.872284
3338.4643
2867.744424
2524.881017
2273.45777
1994.602251
1832.276024
1642.142853
1519.580666
1395.082136
1283.644393
1199.249602
1101.170525
1016.530148
950.075813
874.4169004
798.2472645
749.3619609
695.3497201
637.4663363
595.1700571
557.6629715
515.0935474
472.5616685
446.1903989
415.8226015
381.1431708
346.9184417
326.5420673
301.9513706
274.8263012
250.1858618
233.8598566
215.2472675
194.5699679
173.6178566
157.8513678
143.8899383
126.8942069
109.5361313
95.47675334
84.23813881
71.11506696
58.41998955
48.33137614
40.84504313
32.52337492
23.99884023
17.0620222
12.19459769
7.261560473
1.556483922
-3.183234338
-6.611782455
-9.285659996
-11.18856441
-11.27704957
-10.69862241
-12.70338217
-18.68065121
-17.18715035
-11.24354713
-13.13637378
-19.80722341
-18.26459002
-12.50158922
-15.53840227
-18.70731014
-14.90608854
-11.83967878
-14.46663621
-12.32304488
-4.251653574
-4.356757445
-3.726496713
2.259201033
-0.1395128378
-1.792440569
2.33016822
0.1433398367
1.173710242
3.011696022
2.286349313
4.243878361
4.144849949
7.182948977
5.677346678
9.454030744
7.419987804
9.862823448
10.05909838
15.46756958
15.92635512
21.87074844
20.76819716
24.25060964
24.81277455
8.451753777
1.831279343
)


100
(
4783.612235
3788.929564
3183.921184
2667.956391
2345.612867
2037.429634
1786.162541
1573.755002
1406.900773
1249.813774
1140.625153
1022.948386
933.6992641
852.0976204
765.2567399
697.1702665
638.8166821
577.0447252
518.4245791
480.4673574
440.1999866
399.3250919
366.3030098
339.5318207
310.9567908
282.5519619
261.0404395
240.6112139
219.0513379
197.8678993
181.2775001
167.2498559
152.093041
137.6785754
125.9589945
116.3822842
105.8659574
95.56772284
86.44234438
79.57912789
72.82267831
65.39409634
58.74655948
53.17756252
48.86504041
44.09833326
40.15252421
36.92619778
34.30224589
31.85295294
29.73719555
27.93585813
25.91265284
24.21704676
22.0726766
20.47386445
19.13493534
19.6669524
20.60421253
21.85652153
19.64333517
15.30510192
14.72305676
17.97247453
19.36186896
16.28110162
15.2535379
16.48051532
16.80798132
15.98874328
16.69721973
18.19531179
18.32718582
19.9646797
23.89793446
27.06483402
27.8950307
30.70933157
33.06642366
32.17983691
33.44291415
34.93855116
35.91471393
38.90546956
39.45882286
39.0963046
41.14819115
41.19675087
42.73181048
47.14282562
51.17086275
54.24593046
59.06757419
69.00323817
70.3378209
75.22109247
84.10577227
66.25612252
37.60191671
19.84362633
)


100
(
4841.882322
3708.209513
3035.860291
2555.743989
2181.690551
1833.825182
1606.186674
1367.546751
1216.354501
1065.5316
946.7720442
847.4002934
746.2078564
677.3568533
607.7769639
538.2251583
486.7041284
441.4755758
395.9808943
352.8498453
326.8105738
299.3219669
271.8433151
247.5658473
231.2475762
213.5299541
195.7476161
180.1620571
168.6253998
156.2558725
144.1583476
132.9937986
125.6001672
118.0773341
110.794765
104.1543374
98.9329009
94.78732056
90.76627388
86.80776565
82.98617794
79.94205275
77.40036777
74.21120245
70.96338583
67.44244756
66.06116681
64.16089762
62.17814674
59.18874622
58.58524754
57.37368054
56.00604355
53.67165307
52.87782385
51.93218445
50.6844156
48.59995103
48.42803331
48.65996298
48.18617438
46.33323085
43.5598814
42.11155256
42.4773654
43.15972653
42.23262094
41.84583156
42.95982532
44.57531577
46.74771149
49.37885841
52.32899256
54.98954653
58.35924999
61.24573332
62.80949147
65.12150932
67.11741074
68.71579451
69.93717716
71.20676759
72.58764036
72.9948136
74.00520699
76.13302499
79.66763532
83.67161669
87.55519934
92.08908874
96.89977403
101.4063264
106.1366066
111.5058064
119.0699025
127.4515624
135.9187053
106.1834488
74.59437554
44.90837261
)


100
(
4894.005454
3707.022007
2972.779439
2448.261744
2027.220162
1708.373201
1452.481798
1240.143503
1064.716061
934.3657994
805.3855517
719.0488725
634.6529592
555.9981284
500.9116521
446.0882394
393.4820666
355.7801286
323.2002085
291.2343531
261.2051933
242.5581391
224.7766244
207.1307037
190.5464111
180.8162986
170.9772339
160.6076434
150.2394208
142.8463935
136.3570536
129.8786506
123.353653
117.3446301
114.2098125
110.6979791
106.897604
102.0119032
100.4180787
99.05306985
97.02604058
93.98874555
90.94983588
90.09890117
88.6081514
86.04134264
82.28399784
82.47886009
81.91344596
80.05396557
77.19657064
76.82142107
76.27359586
74.74255101
72.77460537
72.14193079
71.91132718
70.59301243
69.59815652
69.270819
69.31387266
69.04336124
68.78924512
68.82198358
69.22322621
69.96550264
70.92893065
71.82369285
73.00390897
74.34558038
76.27670937
79.14033728
82.68518478
85.60948231
87.324484
90.42542734
93.1723917
94.38236081
95.63123771
97.43106259
99.73089819
102.3174417
104.385545
107.338638
110.8776494
113.6832914
116.7822524
120.1746384
124.137646
125.8433676
129.020834
133.882326
135.7264825
141.5036921
147.6150392
155.1165352
160.3569132
135.0227253
108.6465256
54.74844688
)


100
(
4939.973821
3692.825203
2907.7879
2341.950474
1900.330489
1602.438712
1326.39908
1136.124549
957.4116422
833.0383147
722.4384106
624.1260394
553.9438712
485.4196082
426.1692743
383.0366041
341.3760027
302.3251288
274.5482313
251.5422887
229.1329945
208.0293377
193.8208139
182.5730961
171.5890304
161.6149424
155.2568828
150.9382593
145.322835
138.5797606
132.1487253
128.9365531
125.6398482
121.2123202
115.3670157
113.9623968
112.3917671
109.7327734
103.906856
103.5361185
103.3114695
102.2278657
98.61184649
96.56865799
96.60392619
96.03568529
92.6257403
89.71425689
90.42985238
90.19633022
88.28397163
86.53653947
86.38853257
86.17044789
85.39923745
84.76196578
85.04192631
85.50732242
86.22500177
87.03749698
88.04575576
89.31639256
90.71098815
91.95399158
93.14184355
94.41117284
95.89542398
97.31221042
98.68051454
100.3083835
102.0804397
103.6111625
105.4295841
108.0175721
111.2394345
113.2080317
116.0878892
118.8923796
121.7350801
122.9067475
123.9149566
126.1406803
130.0595365
132.8114298
134.5644885
134.976753
136.5035342
137.9908378
139.3408408
141.1983815
140.3318497
141.5077257
142.5129302
146.4969221
151.3458523
158.8695608
156.2192621
143.8697938
131.2201716
25.98507753
)


100
(
4985.971378
3667.955401
2839.019277
2241.985905
1832.886192
1511.326229
1251.671384
1051.811637
891.8714841
754.1892626
658.3083116
566.8075691
493.2195395
435.8510886
381.1955209
336.1802068
302.8798095
271.3154099
242.0401337
220.4975405
203.9956366
187.8791756
172.5309568
160.5034673
153.0712481
146.6024138
141.5718312
139.8361948
139.1821272
136.0596766
129.9915
123.8703901
122.3429062
120.46407
115.9067175
110.5545666
110.147206
109.6439498
105.9043485
100.7716461
100.6587201
101.0624025
99.41863554
96.15777942
94.93418468
95.71484081
94.40080875
92.26324159
90.79323952
91.72597294
91.68312475
91.40854157
91.32821549
91.96246065
93.00298273
94.16246396
95.43422771
96.59620638
97.98449571
99.90769373
102.1189702
104.2393183
106.2784599
108.6402716
111.0162574
113.2975285
115.440493
117.2055602
118.8730356
120.4892062
122.1748066
124.0395286
126.2229516
128.1904216
130.3204143
132.620367
133.4543346
133.8284391
133.8047876
134.6103686
136.2998951
137.6465304
138.1152489
138.2485254
138.9582381
139.8007205
141.0640255
142.9290464
149.7233034
154.9131049
155.1458262
160.5159168
170.6198995
186.0590543
206.8259108
222.7915601
183.0980868
147.0822749
134.7987373
-69.67769304
)


100
(
5030.310039
3627.318529
2767.182798
2182.546984
1772.860823
1433.317291
1194.990617
983.0696446
838.5502059
707.8650552
606.3321214
526.3708529
451.3373285
395.6451368
349.0781511
305.3895409
270.1695148
244.2370304
220.2951191
197.7247719
179.9192264
167.4284753
155.4319179
143.6260406
132.460964
126.9996901
123.422012
122.3564497
124.8079738
126.8434233
124.9108268
117.3626348
112.6051629
112.0356288
110.5614482
104.8241521
100.5804816
100.8783246
100.1994338
95.5853127
91.46584475
91.4688911
91.72574056
89.84229159
87.72998179
87.47813811
87.96039288
87.93722884
87.85271267
88.47172083
89.83749337
91.54183066
93.53966239
95.35525054
96.75877687
98.5096627
100.8007099
103.3764922
105.5614132
107.5077429
110.0102111
112.6809556
115.6118368
118.2940797
120.51841
122.4019341
124.1667442
126.0026031
127.8946794
129.9517907
132.0260309
133.8010724
135.5448999
136.4505849
136.4563038
135.9637234
135.4161584
135.311507
135.4404385
136.1181439
137.255357
139.4823276
142.6618205
147.2710196
154.2388451
163.9983088
175.862848
190.1743514
208.1333006
226.9901103
247.6254752
277.2894035
312.8892364
356.2529463
410.7722649
447.0024912
314.6093978
204.9170924
151.9093312
-255.8140583
)


100
(
5069.087644
3604.043267
2726.66617
2144.843749
1716.654964
1389.5467
1145.815794
947.7835896
792.6969069
673.9500687
566.746008
491.0011677
424.3397446
362.7466323
319.6952443
281.8022147
246.5333419
217.7729395
197.957049
178.9167008
160.9743635
145.2126802
135.3412623
126.4134855
117.0428321
107.0416748
101.2938306
99.47557103
101.4217548
107.0003541
110.7351019
107.9410362
99.61175886
95.78509851
95.56173259
92.84564051
87.16460901
84.01875969
84.54436356
82.67607663
78.97459697
76.31644257
76.421574
76.45308379
75.91472951
75.65289915
76.48447323
78.20111055
80.62700227
83.39495433
85.66649006
87.44332883
89.570287
92.5714968
95.67877397
98.16219817
100.1699766
102.848613
105.5510332
108.1946782
110.5741121
112.6635199
114.4739383
116.0868352
118.0130997
120.0511511
121.5314023
122.7031871
124.1632165
125.8581901
128.010576
129.8072581
131.025069
131.8629822
132.9094718
133.9158297
135.7813429
139.4537118
145.834199
154.4444075
164.488851
175.8381404
190.0509202
210.951745
233.8657466
260.5726331
289.6917447
328.7767603
359.7663161
395.1759177
441.7626567
499.3616482
571.1867035
655.657145
739.4037716
797.5538238
549.1547338
362.9871112
242.556472
-540.2060029
)


100
(
5102.374875
3618.330264
2710.380121
2108.584239
1664.40268
1357.982963
1101.493626
917.7115399
756.5131241
642.8831082
544.3518655
457.753609
398.2276129
342.4892318
292.011833
257.834947
226.9132836
198.2131584
174.1818982
157.5221268
142.593948
127.8646553
113.2233643
104.6955891
97.76050646
90.21207134
81.11241745
74.31067638
73.27470143
77.10708861
84.64134356
88.49320247
83.37603234
75.51706518
72.49483727
71.9012286
67.9838697
63.14000591
60.98293963
60.71734078
59.56576392
57.89227554
57.34907447
58.31520291
60.12286619
62.4797152
64.63682665
66.18119432
68.04343541
70.77114516
74.66354971
77.90931853
80.01350374
81.82251303
84.59462864
87.36204119
90.36484254
93.07452281
95.66432333
97.65479032
99.07562136
100.7571941
102.5263984
103.2702847
103.5463936
104.6684295
106.4521355
108.9794464
112.5486056
116.744707
120.9289072
126.0922216
131.8297076
137.542524
145.4722645
155.9893344
170.8884853
188.7178577
207.6160099
227.7660652
251.400361
281.5900927
313.7969062
349.4020646
388.0918908
433.3391043
486.7995589
538.869221
592.9336439
658.7784331
734.685375
834.5808989
937.5700218
1073.101205
1201.65378
1239.43925
857.0078704
603.9034061
416.8235963
-910.0728383
)


100
(
5130.271168
3621.50691
2691.409685
2069.999726
1641.491565
1328.189959
1077.249048
889.4209891
738.3087733
612.7418826
521.7889017
439.7444599
371.7511665
321.5974635
274.9563841
232.9971045
204.8003531
179.417105
155.6078613
134.2806275
120.2339424
108.176676
95.48027435
82.24149395
73.31001509
67.533014
61.30384326
52.84398298
45.49173145
44.6047183
48.0723823
55.52139983
57.8156484
51.5723497
44.74767467
42.00069114
40.18679357
37.24830945
34.48018747
33.56460562
34.27043849
36.19819614
38.62205526
40.35035681
41.87401645
43.60558611
46.73148205
49.84487715
51.68828681
52.37056648
54.3097187
56.8340826
59.94714871
62.29078922
64.41105318
66.24337588
68.50759589
70.37167385
73.66094321
76.29925239
77.0372613
77.10955588
78.21389192
80.15925499
83.08879339
87.93833193
95.23049865
103.4859838
113.0243947
123.7619953
134.5510177
148.1542946
163.1452009
183.0565304
207.7290448
235.9801302
263.7404531
292.9502873
325.6486737
364.1861793
407.8813758
455.27571
502.6576061
550.9058615
617.6865871
680.0783009
753.6979163
825.9570534
912.296861
1007.856576
1125.414221
1261.070117
1427.617818
1622.505429
1798.818926
1729.591984
1211.520981
908.5959431
655.8035357
-1338.714416
)


100
(
5152.605949
3614.784763
2666.227731
2037.891565
1625.115891
1299.607778
1062.47828
862.4902021
720.1403144
595.6838305
498.9012654
422.5468296
354.3673982
299.8385395
257.1220211
217.6792125
182.3962799
158.3585165
136.8892622
115.972309
96.24203702
83.70166591
73.31431823
61.95785726
49.53508093
39.96236217
34.5370848
29.12154965
21.65295381
14.70363549
12.03117715
17.00489359
22.01713963
19.11724765
14.14402225
9.367904635
7.01387996
6.423421413
6.84817131
7.59730494
8.5583861
9.998091527
12.8987398
16.87394474
19.41074288
19.98400292
20.52221245
22.21746469
24.3627333
25.91657828
26.38430391
27.15055098
28.85136611
30.93695654
34.00408386
37.90864711
39.98126765
40.30735507
41.14787026
43.40408616
47.25523313
51.41789517
57.38902502
66.914914
79.2593695
93.76325062
109.7145859
124.7730398
142.2151571
158.4316723
180.959082
207.8039898
242.0900069
277.8187596
313.907714
353.9102641
398.7894955
446.65853
501.1250714
558.3077367
615.6879629
677.6971422
751.1364304
826.4931352
909.5811495
993.534247
1103.393129
1203.560858
1316.123218
1461.205061
1617.666811
1807.080236
2033.272776
2278.079145
2509.326958
2246.544172
1612.125719
1272.329435
945.8921017
-1837.23447
)


100
(
5169.451027
3594.848183
2638.828861
2035.804855
1609.827512
1285.03599
1048.544274
854.244856
702.3710821
584.0744631
480.7709095
405.0492497
340.6811408
283.5225457
238.6159115
202.1173754
168.2239772
137.5618207
115.7013022
96.52244315
77.27793229
59.21892103
46.55331375
36.85839571
26.38845617
14.4933001
4.461121584
-1.48835492
-6.584380565
-12.96593146
-19.39927342
-22.42285489
-21.53188015
-20.0281175
-20.78712836
-22.44101007
-23.86869218
-23.81469546
-23.32593386
-20.87207215
-18.83541272
-18.3740401
-18.26541095
-17.39668005
-14.93734843
-13.31291811
-13.52941639
-14.66654873
-14.46699331
-13.85127056
-12.22627319
-9.438466701
-6.185333656
-4.931281724
-3.020723353
-1.335568705
2.975067965
6.894950965
10.56057452
16.55451921
28.32233777
42.36274797
61.75900859
82.76019543
103.9659736
127.5849849
147.468093
171.115193
196.6861402
227.1537883
264.2859792
304.4280723
348.9273984
397.4781951
447.7210174
500.681362
567.9868997
643.3887262
712.7619778
781.5532943
859.1031093
950.6330319
1048.014219
1143.414259
1246.702551
1376.520422
1502.546558
1625.983674
1796.428672
1989.212254
2200.519451
2428.699205
2700.335664
3002.498462
3248.856253
2770.227645
2100.339251
1691.552836
1290.949691
-2414.308554
)


100
(
5181.299729
3589.22864
2641.233281
2032.280899
1594.716763
1283.857473
1035.10625
849.3429353
689.3725675
572.6938212
473.5180858
387.7347445
326.5301387
272.0459546
223.6047729
185.36347
153.3491097
123.2130827
95.42198679
74.43397078
56.47343419
38.4165093
21.12975993
7.821923224
-1.961227137
-11.87777565
-22.94018231
-32.91181407
-39.86462616
-45.0560308
-50.03854035
-54.48738693
-57.21644168
-57.24985122
-57.07493168
-55.8980676
-54.33889934
-54.04311791
-54.44693366
-55.01157523
-54.39024224
-53.51152124
-54.45919628
-57.42022984
-59.18618979
-60.06294497
-59.93831929
-59.80793303
-58.81823159
-57.46550704
-54.85306165
-52.76213528
-48.44687187
-43.85688721
-40.54973191
-38.2185179
-30.37605359
-22.25013646
-7.244484514
12.19817754
34.92872664
62.13926185
89.7267473
115.4950202
142.8927473
171.1422726
202.5841537
237.3113624
277.880386
322.8902885
372.2919723
424.4027335
477.5286929
535.6714869
601.8071781
679.286343
760.6363399
847.4941483
937.5059733
1026.812882
1136.276911
1252.035346
1362.567288
1485.829265
1632.388351
1778.743201
1915.125359
2093.209721
2316.625071
2533.334512
2790.766675
3099.541949
3426.795945
3765.352829
3956.805375
3328.412443
2647.705927
2194.710924
1713.594907
-3114.59835
)


100
(
5188.334683
3598.474645
2644.423296
2027.075391
1592.4397
1282.447613
1032.294935
844.1339365
689.7506162
561.249411
465.9657893
382.2456115
312.3311858
260.0047559
213.0569345
170.5261856
136.4191738
107.3693494
79.56190111
53.54940883
32.70814112
15.29956477
-1.981944494
-19.13803609
-33.29175775
-43.61093401
-53.0532481
-63.05963472
-72.38214957
-79.0802698
-83.85323016
-87.11519684
-88.94756638
-89.8236735
-90.5721802
-90.87702665
-91.2033716
-89.69019996
-90.17152527
-93.20490708
-96.96692349
-99.67583802
-101.9558829
-104.4935384
-108.2983847
-111.2707795
-111.8916083
-110.9111895
-107.9235555
-102.3387561
-98.01969596
-95.21305287
-90.38217226
-85.3169367
-76.87005391
-65.36698858
-51.15286931
-30.41769019
-1.31921504
25.82883304
58.82234864
89.5030642
121.6619438
156.1658815
184.3472457
222.3946314
265.6194453
318.4313651
375.5124109
429.8797973
485.8974738
548.4121985
617.9219291
694.2593824
777.2564093
864.981252
955.8502941
1055.774043
1168.869257
1297.772288
1422.147495
1550.715658
1684.218965
1849.307561
2017.004675
2174.134657
2345.814205
2550.400076
2780.685246
3055.445574
3342.662086
3837.731278
4100.160019
4482.52152
4635.016945
3917.274061
3237.40692
2750.085619
2219.031644
-3928.965409
)


100
(
5190.758226
3599.584779
2643.374937
2019.201022
1600.359905
1279.599673
1038.238921
837.8023839
688.7488578
560.2265609
457.4406976
376.4373127
305.8051062
247.2559848
201.4251146
159.6153345
120.90977
89.02868184
61.78170796
35.46362919
10.32931299
-10.78496879
-28.20569479
-45.06919314
-61.84951513
-76.25234375
-87.360933
-96.57613226
-104.7642189
-111.6485049
-117.1446063
-120.1406953
-123.0989089
-123.5125149
-124.2024574
-127.0179395
-130.4699055
-134.1890432
-136.4173642
-139.5159966
-144.981173
-152.2126853
-157.185658
-161.4488973
-163.2134522
-163.2340289
-160.9002618
-159.525452
-154.2679398
-150.9848587
-143.0363101
-135.5086867
-127.5524538
-117.7562739
-100.4259713
-80.92777799
-52.9620757
-19.76497324
12.67574153
51.97686215
84.55433126
115.2271805
150.8241163
187.5763034
231.6889843
285.19044
341.5964988
402.2780637
467.9701503
536.0526178
602.1887923
672.5384672
763.8144809
861.3156779
953.7689074
1048.532212
1156.061715
1276.633324
1411.8702
1552.194773
1691.100833
1840.651077
2025.904596
2200.850046
2373.044431
2555.693258
2770.086631
3010.766844
3284.716495
3543.758498
3871.475815
4311.027312
4684.413445
5065.311506
5192.987323
4494.17774
3826.088557
3325.70497
2761.355903
-4853.439342
)


100
(
5184.623047
3590.843352
2635.665631
2025.94459
1606.018331
1280.709996
1042.169345
843.4518473
686.2112644
561.2576071
453.2825081
369.6331916
300.3767573
239.2284874
188.3875149
147.046301
108.5966855
72.19284848
41.36287389
15.1083682
-10.2982248
-35.22102109
-56.77657808
-74.53241653
-90.86343187
-106.8187685
-120.9378512
-131.2589124
-139.5474032
-145.1869722
-149.4273164
-153.6727172
-157.1788254
-161.3257862
-164.5099905
-167.4804628
-173.0425811
-181.8199906
-189.6835774
-196.8864521
-202.817594
-208.9250868
-214.3433935
-217.7526712
-217.3368851
-215.5819515
-210.9496613
-204.19182
-198.7231476
-193.3041214
-182.878934
-173.6428984
-157.8519164
-137.9125206
-111.2118085
-80.89092315
-41.10540636
-6.435753153
32.2441462
68.74206549
103.5910999
143.6448574
177.9118737
226.4958153
282.7453518
348.6745928
418.6127245
486.545435
557.6595294
635.4259383
721.6687546
819.2752416
914.9107579
1016.407722
1119.119786
1223.766365
1350.102548
1499.459456
1644.692063
1796.370394
1959.054303
2138.577
2330.063805
2508.032973
2701.194294
2949.763195
3188.335285
3428.036066
3724.740907
4034.416025
4386.87096
4700.28314
5255.260051
5664.180666
5645.964442
4989.078725
4390.286172
3888.179754
3304.327946
-5838.062519
)


100
(
5171.305488
3571.833356
2630.288494
2035.03015
1608.399484
1293.479282
1043.62263
850.6937542
685.7650322
560.6805041
454.8869357
363.2240799
293.7991693
233.2075799
178.5602612
132.6640645
94.23877988
57.7480813
22.74046622
-7.671711547
-33.56833148
-58.56962187
-83.04375198
-104.5373759
-122.5920122
-138.3607822
-152.3526878
-163.9037908
-172.9099824
-179.3446681
-185.1015404
-188.5705989
-193.5227029
-200.9774711
-208.5065015
-217.073268
-224.2192313
-233.3543286
-245.0838026
-256.7515702
-264.1506154
-269.9862036
-271.5483074
-269.6668731
-266.4796728
-262.9806924
-254.5999064
-249.9275114
-240.4694791
-229.8820045
-218.0679869
-200.7303743
-174.0234844
-145.6245491
-109.8115811
-71.340224
-32.90306252
10.35614042
44.18817646
77.93437865
118.8862726
161.5737092
216.0190617
276.4593927
342.4832493
411.3897538
486.9967757
566.9711856
645.7226244
734.0366785
840.6881552
951.5250334
1057.410939
1162.715889
1277.336689
1414.34115
1555.947324
1702.707615
1848.702461
2011.547969
2214.787374
2419.823349
2604.18364
2780.374833
3006.880616
3256.295398
3513.364343
3791.193167
4102.848771
4437.29162
4806.355221
5196.987074
5702.856027
6061.377438
6039.214574
5385.492019
4858.595139
4408.338226
3828.179446
-6838.552802
)


100
(
5153.835822
3569.031303
2638.076976
2040.642873
1610.627785
1303.224123
1050.068024
855.9419803
694.8582992
559.0843375
455.452455
365.0997728
286.5511752
226.0418194
171.5238783
121.273858
78.21859622
41.42753192
6.069879866
-28.35802373
-58.34956804
-84.50232844
-108.9122641
-132.4610416
-153.3882357
-169.9412149
-184.1908992
-195.1820755
-204.2957714
-213.6945762
-220.2255109
-229.0072516
-235.1933461
-243.8068504
-255.4312453
-269.6195601
-281.7621553
-294.4780151
-304.5256834
-314.8159474
-321.6598693
-325.7942833
-321.9186125
-320.3910269
-312.3516346
-305.7639708
-298.0563756
-290.3477127
-276.2830566
-265.9628253
-244.6245473
-217.1957087
-185.8598034
-145.0376996
-102.0768503
-65.10065304
-28.94806323
10.04588949
46.54262845
89.91884015
132.1173271
188.2197185
251.2835496
321.5615916
395.0461881
468.7674393
548.2989883
636.0717468
737.8627615
847.5549424
956.2412688
1069.561065
1183.844729
1296.524914
1426.761263
1577.575195
1731.227311
1880.16999
2047.973632
2236.284547
2438.34579
2632.363071
2812.756125
3032.485749
3270.213213
3523.799433
3805.364189
4112.888793
4467.295488
4762.456571
5172.171868
5570.617639
5967.776043
6386.142509
6268.338179
5677.827154
5234.697648
4840.765076
4271.176458
-7847.647482
)


100
(
5132.481915
3562.81121
2640.189629
2041.880749
1625.885143
1310.305676
1064.048784
859.3417769
701.9849712
566.5735425
455.2204745
365.932226
287.1095745
218.3157696
163.3983843
113.0038397
65.58164404
23.91758832
-12.44340073
-46.69633042
-79.5239268
-109.9432857
-136.4033788
-160.1089663
-181.5293104
-199.7719079
-214.4388501
-226.3848338
-237.2408734
-246.5935669
-257.7990224
-269.5928346
-281.797889
-294.6117799
-307.6033319
-323.1359281
-340.6181258
-354.9797763
-366.27556
-373.3729808
-375.5328429
-372.9480573
-370.9635033
-363.2378626
-356.4497968
-349.8220382
-340.906279
-328.5383302
-315.0027994
-292.5486609
-261.3723029
-230.2175144
-189.6791392
-151.7637133
-109.0814556
-64.39125881
-34.57788327
0.8499165195
42.34986902
90.40696015
151.653959
217.0450759
285.3196577
359.1701898
435.9639918
520.7758898
605.184376
704.9444839
815.6822412
930.9646675
1044.805838
1161.253188
1286.911571
1431.533079
1579.873591
1725.2683
1870.594309
2020.162887
2202.307809
2412.944744
2612.936095
2799.850953
2994.43296
3224.177401
3474.505217
3756.704751
4052.620188
4341.846464
4675.584339
4992.62202
5407.878028
5764.603058
6196.997638
6471.503497
6357.013263
5876.544024
5531.155659
5184.475773
4620.717788
-8844.97776
)


100
(
5107.519604
3550.018559
2636.348938
2044.450694
1637.376087
1315.50577
1075.383918
872.0414815
707.6700051
574.6804032
459.7929722
366.1088817
287.521052
216.7759436
154.8585009
103.7666185
55.96518825
10.4083397
-30.55254184
-65.97292795
-100.0056945
-132.6847914
-162.2055021
-187.169062
-209.0118895
-227.1416026
-242.8226742
-257.6642102
-268.975067
-283.2851641
-295.6822187
-311.1829839
-329.1298204
-347.5108898
-365.3006431
-382.7684361
-398.3076266
-412.2123405
-421.9939795
-425.8222398
-424.8088366
-421.5848174
-413.7843161
-407.8197698
-401.2787835
-391.7166245
-383.2378468
-370.0862208
-346.8389602
-317.0016593
-285.133393
-236.611573
-199.902
-163.5847054
-128.6276681
-91.67443276
-53.63686979
-10.27627585
36.46686224
93.23285017
157.7013485
228.559796
301.3945862
374.6779575
455.7874079
546.2804004
656.2118292
768.1274883
883.4454772
995.8607993
1113.83157
1234.316074
1368.883116
1521.357689
1672.981478
1822.284919
1979.56869
2161.122677
2341.172204
2518.702672
2692.13103
2887.659484
3110.767726
3344.096623
3579.257097
3869.289613
4154.464698
4473.584299
4772.033986
5079.634984
5419.55159
5768.188206
6080.111465
6403.022943
6292.090012
5959.165115
5725.54069
5446.247756
4884.821025
-9822.704315
)


100
(
5070.506279
3528.681956
2627.584539
2055.464222
1645.553112
1332.892182
1084.164666
885.7769152
715.9411493
581.6961713
468.0696089
368.2593307
287.3365031
216.6460631
151.8148348
94.35114407
45.67964969
-0.5159082335
-44.89222232
-85.15533641
-121.0555862
-154.1788267
-184.9008324
-212.0333349
-234.2707881
-253.568062
-270.3893303
-286.1523973
-303.0551929
-319.0808362
-337.0476423
-356.2115971
-376.4852342
-398.6571249
-421.7014634
-440.0405479
-456.1826673
-466.2867375
-471.1595508
-472.1162407
-471.2398398
-462.1578922
-459.9465753
-453.4124563
-446.2520736
-437.5729847
-425.7603414
-402.0460393
-376.2790017
-342.3219563
-301.9808758
-266.4344411
-223.0299358
-184.8192338
-163.1419735
-127.0031851
-87.69661616
-38.22462949
23.99435488
88.39634403
154.8301762
227.6284636
301.1537955
383.3942176
465.8352683
566.4029444
675.3143658
788.9708817
899.410257
1014.244039
1141.50002
1285.880657
1444.333103
1588.369132
1731.002654
1876.290503
2035.258892
2218.316411
2405.415215
2576.966398
2737.488474
2942.400226
3161.521584
3392.866821
3660.551211
3931.143539
4178.374034
4441.166296
4731.035077
5000.08109
5344.866318
5659.197684
5942.984669
6118.19983
6075.289307
5885.429161
5786.335731
5595.446877
5101.1907
-10805.77206
)


100
(
5030.206617
3508.262246
2628.987538
2062.008041
1650.205708
1346.673988
1094.486005
897.2656083
730.7461652
587.7635354
475.2535517
376.2405756
287.9060604
215.7714068
150.9182585
90.33090358
35.68381871
-11.73482801
-56.88246244
-100.2732795
-139.9981392
-175.0436544
-206.4159744
-233.7702863
-257.7727947
-278.8326208
-296.5191702
-315.8890244
-334.3889443
-355.4869011
-378.4685402
-401.3683597
-426.5938135
-450.2998639
-472.8202722
-492.3789054
-507.3793105
-511.0784812
-515.8796138
-513.3121664
-511.002665
-507.763818
-504.2661744
-496.2644602
-495.3321801
-482.9361833
-463.7551182
-437.9273629
-409.5247101
-360.7059549
-330.8909597
-296.0855107
-264.4837462
-234.9076539
-200.5550144
-170.3433105
-125.6190066
-73.00635146
-10.32463948
58.69410242
126.3376475
194.0292332
270.5480479
357.5492219
464.0955332
572.0187209
683.1239854
787.6512019
897.893709
1011.12752
1138.669319
1287.431418
1431.886331
1577.659054
1728.87056
1897.413207
2079.041531
2240.405112
2382.102369
2524.760388
2709.934669
2917.397185
3122.21498
3338.37629
3579.48735
3815.849683
4074.18514
4314.959751
4544.54183
4799.290876
5057.088431
5277.712936
5475.994037
5708.656321
5711.284509
5655.121539
5683.453261
5597.567382
5225.665364
-11786.90854
)


100
(
4986.943942
3491.159128
2626.494093
2064.174676
1663.365194
1357.415337
1111.708383
906.6387632
743.4654954
602.3868561
481.6899349
383.0366115
294.8275017
215.403338
149.2708572
88.55352085
31.01473955
-21.66397071
-68.87651901
-113.2186949
-155.08079
-193.1483835
-225.3690594
-254.0369009
-278.4934157
-301.2075826
-323.7233323
-343.8144762
-367.8437623
-391.5116102
-416.7555747
-445.5314056
-474.0541008
-498.4389985
-522.3390237
-537.9086484
-549.1437473
-555.8188215
-554.6465253
-549.6054971
-550.3189622
-549.8722797
-548.3458066
-548.5490382
-543.1608364
-527.8896585
-506.3412202
-473.0009928
-438.0598136
-405.0272499
-364.0604489
-336.5888027
-319.3567212
-289.9422739
-260.0688588
-218.950037
-166.6773739
-110.7479233
-47.81946054
15.29243405
83.89368774
156.1035268
229.5986932
321.3226556
424.4404815
529.004586
629.559984
733.91721
849.9862741
979.9205149
1132.570566
1265.896889
1396.176861
1522.78611
1665.504938
1837.232574
2013.670245
2177.514386
2319.4046
2457.598666
2630.115965
2821.42635
3014.435315
3243.097469
3454.043702
3642.358994
3824.488115
4050.41948
4214.751039
4448.977106
4649.615456