/*--------------------------------*- C++ -*----------------------------------*\
| =========                 |                                                 |
| \\      /  F ield         | OpenFOAM: The Open Source CFD Toolbox           |
|  \\    /   O peration     | Version:  2.3.1                                 |
|   \\  /    A nd           | Web:      www.OpenFOAM.org                      |
|    \\/     M anipulation  |                                                 |
\*---------------------------------------------------------------------------*/
FoamFile
{
    version     2.0;
    format      ascii;
    class       dictionary;
    location    "constant";
    object      rO;
}
// * * * * * * * * * * * * * * * * * * * * * * * * * * * * * * * * * * * * * //

rO_table
100
(

100
(
-129.7028772
-98.0473085
-77.23969256
-63.01248383
-51.75448417
-44.13410257
-37.47368709
-32.32541537
-27.80736079
-24.42448323
-21.02751888
-18.90106271
-16.7288755
-14.72256625
-13.29876979
-11.86065717
-10.46534021
-9.487775323
-8.508905254
-7.534242797
-6.798448505
-6.138583361
-5.483239181
-4.89003735
-4.447141933
-4.008881188
-3.576407355
-3.203393465
-2.903507686
-2.607067417
-2.315769719
-2.085739721
-1.892053797
-1.702348211
-1.516857766
-1.351071872
-1.218679059
-1.088721903
-0.9622293878
-0.8503474443
-0.7635714514
-0.6794540647
-0.5979933934
-0.5267567695
-0.4721505852
-0.4194726996
-0.3686972522
-0.3204603366
-0.2847251406
-0.250129848
-0.2168975513
-0.1867031825
-0.1643568383
-0.1429731355
-0.1225566233
-0.105432424
-0.09213816279
-0.079713429
-0.06842945492
-0.05879897775
-0.05079190413
-0.04367059256
-0.03725559709
-0.0316310741
-0.02686340653
-0.0226748894
-0.01894386487
-0.01583714289
-0.01317270965
-0.01089279761
-0.008922550297
-0.007256903607
-0.005887850078
-0.004744488004
-0.003728536895
-0.002943378189
-0.00232341467
-0.001730978985
-0.001333017576
-0.0009883490496
-0.0007112900424
-0.0005469290654
-0.0003653729302
-0.0002771021818
-0.0001816526269
-0.0001371194532
-8.927830426e-05
-6.695216748e-05
-4.452676683e-05
-2.745228851e-05
-1.592670659e-05
-8.742201823e-06
-4.725266908e-06
-2.176264743e-06
-9.938027435e-07
-4.102769404e-07
-2.528946434e-07
-1.398756106e-07
-1.197901547e-08
1.782458691e-24
)


100
(
-133.9159242
-101.7419394
-79.66348042
-64.49409634
-53.07240874
-44.86671204
-37.85004416
-32.65690866
-27.98741632
-24.42256995
-21.18760376
-18.63067174
-16.54997418
-14.59970322
-12.9980613
-11.64480112
-10.35219596
-9.234341002
-8.32176645
-7.444612251
-6.656869338
-5.999090886
-5.402383607
-4.841617887
-4.352545627
-3.943759382
-3.555111746
-3.194083612
-2.876419153
-2.602529319
-2.340885726
-2.103358486
-1.898327488
-1.72030144
-1.553200679
-1.397732063
-1.259708863
-1.137353636
-1.022803484
-0.9158392286
-0.8219363564
-0.7401253026
-0.6639345671
-0.5924573146
-0.5289756994
-0.47451103
-0.4248910411
-0.3787616245
-0.3379238752
-0.3038016158
-0.2734854853
-0.2447476989
-0.2185934793
-0.195548515
-0.1743578267
-0.1536477558
-0.1358677332
-0.1236937948
-0.1193103889
-0.1253509037
-0.1344469497
-0.1207836364
-0.09709848104
-0.08888094103
-0.09136039031
-0.08153144924
-0.06797456112
-0.06605357222
-0.06494946004
-0.05491298458
-0.04757181886
-0.04728567747
-0.04295320412
-0.03972118465
-0.05136133738
-0.0595259848
-0.03960615889
-0.0395957088
-0.04330142766
-0.02708244225
-0.0323365623
-0.02724181334
-0.02179236353
-0.02853508296
-0.01972642725
-0.02048536375
-0.02828639631
-0.01622175179
-0.02611012307
-0.01724128213
-0.02042619149
-0.01727001104
-0.02532885418
-0.02544997422
-0.03270948438
-0.02955183745
-0.03282798209
-0.0305162641
-0.005902788098
-0.0005587725342
)


100
(
-137.8300406
-105.2023996
-82.07821911
-66.15108354
-54.74044811
-45.85457237
-38.88677319
-33.26540845
-28.66663737
-24.78766099
-21.61880777
-18.90221183
-16.72177849
-14.83413396
-13.17646633
-11.79116997
-10.56541189
-9.460432105
-8.497010519
-7.665107497
-6.900169731
-6.21978859
-5.623320577
-5.085557348
-4.597363337
-4.166873003
-3.786030116
-3.436294245
-3.115613184
-2.829321904
-2.572969119
-2.336402691
-2.122202465
-1.933657468
-1.76725856
-1.611867338
-1.46796753
-1.338582118
-1.226565904
-1.122647858
-1.024034948
-0.9370310819
-0.8632902042
-0.7995162644
-0.730736742
-0.6653344301
-0.6081532453
-0.5588496453
-0.5097205437
-0.4637506901
-0.4283641029
-0.4035848688
-0.3870459711
-0.3645198475
-0.3453055126
-0.3282397029
-0.3172029004
-0.2983200325
-0.2867975699
-0.2846266926
-0.3003790674
-0.3122034621
-0.2993273016
-0.2666794868
-0.2428375443
-0.2317401488
-0.2173545346
-0.2003569535
-0.1868351298
-0.1762524683
-0.1621810198
-0.1504393448
-0.1398823052
-0.1278394738
-0.1307701229
-0.1711834406
-0.2115935376
-0.200780833
-0.1993895484
-0.1812638634
-0.1765003148
-0.2209784181
-0.176223127
-0.2366213335
-0.2268754047
-0.1933597246
-0.2159028792
-0.1990323536
-0.1971205608
-0.2378053479
-0.2705352227
-0.2915288498
-0.3306465007
-0.5024686054
-0.4608495208
-0.4967338509
-0.6000045794
-0.362302696
-0.1003141545
-0.02072496471
)


100
(
-141.4394504
-108.6740007
-84.59516563
-68.55915704
-56.53968305
-47.13253488
-40.11164831
-34.21558339
-29.5975573
-25.6336699
-22.34705398
-19.59197795
-17.25623905
-15.35639329
-13.70049604
-12.26789289
-11.04325687
-9.956354997
-8.988592266
-8.138072044
-7.384284614
-6.700415545
-6.092166775
-5.558082611
-5.074287835
-4.637242381
-4.248735002
-3.905854196
-3.582884462
-3.284512332
-3.016502312
-2.788084456
-2.570974241
-2.372605869
-2.199839314
-2.053678158
-1.918821818
-1.786728762
-1.669269149
-1.568335651
-1.486072201
-1.408329979
-1.331890908
-1.272869227
-1.224088858
-1.194371992
-1.143692705
-1.099952973
-1.056256002
-1.035677523
-0.991157338
-0.9585328168
-0.9250744456
-0.900457478
-0.8549969043
-0.8109497735
-0.7725372185
-0.7502120227
-0.7088277222
-0.6629372847
-0.6313478625
-0.6158317811
-0.5986044793
-0.5715677939
-0.5326103215
-0.494736657
-0.459117559
-0.4323600558
-0.4239674039
-0.4413862054
-0.4709452739
-0.5215582811
-0.6025383473
-0.6881658399
-0.6592344354
-0.7075065072
-0.9243718504
-0.8446417798
-0.7223824058
-0.9181008232
-0.9053874963
-0.834619182
-0.8887067412
-0.8409669948
-0.7994194803
-0.8543124533
-0.9441463572
-1.072120658
-1.139147832
-1.399024993
-1.645532778
-1.721676569
-2.077422875
-2.063767946
-2.506516638
-3.0286298
-3.348267344
-1.694395154
-0.5934027444
-0.1792768376
)


100
(
-144.7396615
-112.6080925
-87.90254173
-71.0523609
-58.5011042
-48.99341758
-41.58019337
-35.6471811
-30.7871243
-26.79498037
-23.37047882
-20.56302671
-18.16719203
-16.150061
-14.47168412
-13.01830909
-11.76746269
-10.68271996
-9.716087601
-8.855801091
-8.106210782
-7.428521393
-6.816038579
-6.278295775
-5.830425866
-5.420862881
-5.04710797
-4.71164691
-4.422463604
-4.142020315
-3.875738522
-3.638561962
-3.438622076
-3.278888278
-3.098525507
-2.947110652
-2.823701368
-2.755970686
-2.657615242
-2.583055722
-2.517686316
-2.454316764
-2.395964843
-2.302605451
-2.222776258
-2.162132707
-2.144176888
-2.054712491
-1.975701248
-1.913371692
-1.874867655
-1.798042259
-1.726511142
-1.666310327
-1.607168595
-1.527243981
-1.453445185
-1.419738896
-1.388625741
-1.336930916
-1.262905679
-1.207215771
-1.19098046
-1.211190567
-1.245660015
-1.295492905
-1.337011647
-1.353489345
-1.365155889
-1.396626727
-1.42221032
-1.452363623
-1.590954194
-1.961701027
-2.349195534
-2.264782773
-2.108352155
-2.250642425
-2.274310182
-2.205879569
-2.153578996
-2.196882339
-2.617094228
-3.003244936
-3.101937654
-3.191238271
-3.170628094
-3.519761954
-4.225463216
-5.900469695
-5.60978301
-5.501677176
-6.710747937
-7.135118805
-8.698233173
-10.7716592
-10.99485987
-5.149042021
-2.101732904
-0.7665294022
)


100
(
-147.7263998
-116.2660902
-91.17858811
-73.68897382
-60.697756
-51.04841337
-43.30423769
-37.29567614
-32.28981297
-28.20786026
-24.73265263
-21.79500592
-19.34189006
-17.2543514
-15.5027014
-14.02078346
-12.74906866
-11.6713293
-10.72630343
-9.874778925
-9.12255082
-8.484366007
-7.90884097
-7.384241701
-6.94814381
-6.627050363
-6.36726037
-6.100023374
-5.834747657
-5.59091293
-5.395587685
-5.171912998
-4.977823276
-4.804346783
-4.708335106
-4.519940545
-4.358479982
-4.214914311
-4.214253928
-4.096907866
-4.00113994
-3.908191976
-3.855370361
-3.752360719
-3.60383108
-3.472314277
-3.421719885
-3.374709506
-3.224939158
-3.100175083
-3.021877596
-2.955636499
-2.861440123
-2.778136027
-2.711273307
-2.649875814
-2.589965541
-2.605496754
-2.684130388
-2.805960806
-2.924879372
-2.99669752
-3.028813984
-3.066218945
-3.084739493
-3.087900208
-3.100228297
-3.108600885
-3.084905723
-3.061416718
-3.129268268
-3.338422165
-3.658887042
-4.002022328
-4.287537802
-4.626497697
-4.60590739
-4.529473992
-4.660635705
-5.285874746
-6.04292263
-6.524530093
-6.578133775
-6.818253171
-7.425778769
-8.411376873
-8.626696525
-9.205285725
-12.67352338
-13.18227142
-12.81082773
-15.73710058
-16.76042669
-19.99587427
-23.85888131
-29.24502103
-24.99807014
-12.39981542
-5.62644642
-2.332242442
)


100
(
-151.0539883
-119.7554325
-94.432775
-76.43642711
-63.36914749
-53.31148589
-45.42744533
-39.18217212
-34.09839092
-29.8667103
-26.34129412
-23.33277561
-20.80156333
-18.65786804
-16.85166306
-15.34163401
-14.05542904
-12.97808381
-12.09435349
-11.31309125
-10.59229941
-9.968707077
-9.464352198
-9.03584505
-8.619678623
-8.324399632
-8.179341054
-8.066317425
-7.890112368
-7.676319116
-7.481784129
-7.353598438
-7.122944431
-6.919160916
-6.766755357
-6.673605723
-6.42621893
-6.207817732
-6.084554196
-6.050152012
-5.871136572
-5.704730615
-5.57906864
-5.479111476
-5.322339861
-5.115720882
-5.021915943
-4.961091117
-4.933969864
-4.794761302
-4.734981155
-4.708295001
-4.746927297
-4.828601018
-4.918759145
-5.048734376
-5.183530236
-5.298825027
-5.388007901
-5.483840882
-5.606154026
-5.694266274
-5.746734269
-5.841015006
-5.89203667
-5.927535902
-6.04692048
-6.365624472
-6.830601567
-7.236205145
-7.618001767
-7.888143609
-8.028355212
-8.189492652
-8.32023869
-8.62651609
-9.549091343
-10.44467041
-11.39500446
-11.94479844
-12.01970347
-12.42521409
-13.8773822
-15.76233023
-16.86993615
-17.63264979
-19.64516871
-22.27979857
-28.45387079
-31.91436654
-30.91083861
-33.47461662
-38.56296806
-46.13999827
-56.8999615
-66.10933329
-51.61973121
-27.34507338
-13.33757277
-5.739090542
)


100
(
-154.5534139
-123.00764
-97.6009545
-79.5248249
-66.16014548
-55.76307406
-47.77149338
-41.29824204
-36.13225441
-31.81688098
-28.21644818
-25.16125864
-22.59058778
-20.4173499
-18.5753625
-17.05296217
-15.79260268
-14.7273735
-13.8868094
-13.21433533
-12.63767882
-12.06353878
-11.58570037
-11.22086812
-10.96281868
-10.63052759
-10.44856179
-10.44832959
-10.43047152
-10.31033924
-10.09649926
-10.01126364
-9.817452863
-9.512240524
-9.234146345
-9.112136906
-8.942328829
-8.610614377
-8.336780373
-8.231135901
-8.152165771
-7.923512978
-7.703737926
-7.575363637
-7.47466531
-7.350150273
-7.271419251
-7.32713806
-7.473101522
-7.693761658
-7.911444766
-8.093053181
-8.310019301
-8.52916426
-8.764752472
-8.988816453
-9.080825908
-9.173352064
-9.231996229
-9.271847639
-9.401203247
-9.533791113
-9.751782675
-10.15647797
-10.83999997
-11.6322194
-12.27849602
-12.83220626
-13.33800832
-13.71099664
-14.05708233
-14.42682942
-14.90610306
-16.00989321
-17.49351611
-18.58837396
-19.65424461
-20.21196105
-20.45802871
-21.14128017
-23.36032797
-25.92860303
-27.98392993
-29.852282
-32.59217233
-36.2344271
-40.27169121
-44.50459362
-51.71070729
-55.86474623
-59.47164486
-69.4813136
-81.55375286
-97.71382638
-120.3246881
-135.452588
-96.15872985
-55.04050785
-29.44424702
-12.51301597
)


100
(
-157.8031842
-126.3030405
-100.9771196
-82.78146578
-69.07327605
-58.52377228
-50.30567533
-43.72411629
-38.39697993
-34.02107929
-30.39616505
-27.3298903
-24.72877126
-22.59984456
-20.77641041
-19.25405569
-18.03283731
-17.0313563
-16.2667085
-15.65404535
-15.20172993
-14.85306534
-14.40452177
-14.04311214
-13.76590574
-13.5896231
-13.33580502
-13.20264514
-13.27168317
-13.27268274
-13.14849353
-12.94720203
-12.87985166
-12.58654202
-12.18062574
-11.88821721
-11.7145592
-11.48214373
-11.0847049
-10.90465587
-10.82060473
-10.81189895
-10.65233126
-10.60450598
-10.63932582
-10.79216075
-11.05272246
-11.35063606
-11.7594196
-12.23814638
-12.68905846
-13.10806889
-13.39905063
-13.60322947
-13.81280143
-14.03349387
-14.24511118
-14.56553886
-14.81584461
-15.07557058
-15.53208496
-16.29912949
-17.30423184
-18.3024003
-19.30535288
-20.28613777
-20.99334096
-21.53056284
-22.15317256
-22.92423433
-24.31839835
-26.54985268
-28.71492373
-30.39506174
-31.87979026
-32.61890094
-33.24063778
-34.60590156
-37.57800604
-40.99161955
-43.98451437
-46.30976439
-48.96822582
-54.90532745
-60.83322074
-67.79798351
-73.57781481
-85.63783302
-90.19492979
-96.47377542
-108.5661074
-126.2545068
-150.799661
-182.9264273
-215.8598124
-240.3221853
-163.9124744
-100.4932186
-58.19383534
-25.40162409
)


100
(
-160.7994234
-129.8410508
-104.4974207
-86.05800791
-72.06348303
-61.44829619
-53.01329653
-46.35381121
-40.93795062
-36.51542869
-32.86657845
-29.89725222
-27.32540229
-25.19461086
-23.53813092
-22.07755298
-20.90495209
-20.02800697
-19.40017024
-18.81474422
-18.38632116
-18.08740466
-17.92962252
-17.5448437
-17.23057806
-16.97471307
-16.79113374
-16.61128943
-16.45444227
-16.50724346
-16.44862571
-16.27162762
-16.1732828
-16.05431025
-15.68616775
-15.20986997
-14.99768235
-14.85454465
-14.69900338
-14.49894468
-14.57483192
-14.8025098
-15.19831246
-15.55350338
-15.87538658
-16.28720488
-16.75498737
-17.31621822
-17.92018434
-18.38502602
-18.91444377
-19.3949954
-19.77243801
-20.13411511
-20.56038472
-20.94483337
-21.58022624
-22.52481771
-23.80156209
-25.28569162
-26.61747218
-27.75761925
-28.87936444
-29.88870621
-30.82526842
-31.8858526
-33.06965125
-34.64351963
-37.05013916
-40.05547282
-42.92714547
-45.68705847
-47.93821941
-49.25732642
-50.7524789
-53.11653376
-57.16520261
-61.7744142
-65.72707095
-69.00270691
-72.94624473
-79.65801194
-87.14390969
-95.55150765
-103.968068
-115.0741855
-128.7624561
-138.1217217
-149.9263781
-166.9396569
-189.3966935
-223.6639493
-258.7703087
-316.3342573
-367.9825861
-389.9454317
-258.8247712
-168.2357861
-102.8041751
-45.09481911
)


100
(
-163.538853
-133.1735086
-107.9166563
-89.31138958
-75.31054887
-64.48886359
-55.96569785
-49.20785826
-43.75598983
-39.34018269
-35.71228589
-32.79544166
-30.43940944
-28.38856853
-26.75526357
-25.59708376
-24.50474824
-23.66661963
-23.08746271
-22.7479245
-22.29917101
-21.97947623
-21.74596531
-21.62374875
-21.33539311
-21.01301287
-20.73000188
-20.5018388
-20.36786652
-20.15848804
-20.14384954
-20.04030008
-19.89457755
-19.88928758
-19.84147577
-19.54562007
-19.34056652
-19.36097617
-19.56770664
-19.90057214
-20.32559751
-20.90811073
-21.63654702
-22.43054026
-23.35159097
-24.01533333
-24.57979297
-25.14761065
-25.72424299
-26.29581107
-26.99130395
-27.55049694
-28.2646636
-29.16037832
-30.29108258
-31.78235289
-33.75383037
-35.60731255
-37.7057497
-39.75891096
-41.50646956
-43.00568007
-44.30570148
-45.61696391
-47.41612495
-50.03751095
-53.59265511
-57.43500432
-61.18039609
-64.67184835
-67.37535792
-69.96745694
-72.85603425
-76.70249398
-82.36481811
-88.7444856
-93.99874743
-98.74573254
-104.4188625
-112.5294999
-123.1506161
-134.6674719
-144.5298582
-153.4686102
-173.0390464
-187.023695
-208.7759848
-223.8325664
-246.9547511
-274.6675475
-312.4552917
-362.2253015
-430.6600749
-521.2920653
-598.724207
-582.9170964
-382.6816606
-260.8875932
-168.8703792
-76.96263049
)


100
(
-166.2248732
-136.3447204
-111.2046981
-92.5710569
-78.62206875
-67.6380005
-59.09904283
-52.30109525
-46.86152253
-42.50055356
-38.98573827
-36.14712408
-33.97370266
-32.21974706
-30.69265016
-29.54719946
-28.85625283
-28.06795497
-27.4745981
-27.07154556
-26.92631569
-26.5232419
-26.22165851
-25.99464081
-25.85107332
-25.66242693
-25.30976123
-25.00664156
-24.76053411
-24.62945642
-24.61764512
-24.5528271
-24.2244761
-24.62338532
-24.90596675
-25.3026479
-25.57342881
-25.99548374
-26.53715133
-27.25962352
-28.25120582
-29.21793037
-30.17258562
-31.23984558
-32.26397438
-33.26909949
-34.25504587
-34.99246064
-35.65303012
-36.56185379
-37.63772988
-39.0616769
-41.02178412
-43.16765778
-45.59778872
-48.30141365
-50.87011877
-53.52572718
-56.03916232
-58.10068396
-60.33470147
-62.84465272
-65.84408791
-69.74751423
-74.31085635
-79.09717871
-83.80403465
-87.72949397
-91.11168309
-94.07922519
-98.07968553
-103.5921323
-111.5953366
-119.6075214
-126.6653668
-134.2180965
-143.6055094
-154.5717378
-168.1912742
-182.4040077
-195.1381726
-209.274489
-228.8856334
-248.3049651
-273.3342181
-296.1628044
-334.7315047
-359.949923
-395.5769674
-447.8220116
-506.242369
-584.2912204
-691.4872625
-817.5017679
-937.5018923
-824.7858751
-544.8645006
-386.6667148
-258.9152335
-134.6016255
)


100
(
-168.9403154
-139.2926136
-114.3641231
-96.06269883
-81.97107248
-70.96252019
-62.39517489
-55.6430812
-50.28255804
-46.00055101
-42.70717317
-40.02520241
-37.96399499
-36.50855717
-35.31175649
-34.24686069
-33.49254932
-33.14110396
-32.57090393
-32.0953767
-31.75268499
-31.61016151
-31.29118794
-30.96971518
-30.72880864
-30.57042216
-30.51312165
-30.23321338
-29.99935952
-29.88939008
-29.94948108
-30.2943516
-30.65135543
-31.00577668
-31.82639964
-32.77416826
-33.7963099
-35.02247439
-35.90380552
-36.93416666
-38.06210668
-39.3385804
-40.7393924
-41.84911221
-42.94290949
-44.14155077
-45.43314128
-46.89941587
-48.80513049
-50.82352359
-53.17540387
-55.95755609
-59.05834382
-62.43058391
-66.29262653
-69.27160197
-72.19815696
-75.22087115
-78.32729782
-81.9620563
-86.65237006
-91.66718096
-97.58017164
-103.7891187
-109.8625994
-115.497852
-119.6627013
-123.9073942
-128.4141016
-134.4102607
-142.9181596
-152.4520917
-163.1546258
-174.4815543
-185.5788971
-197.8110875
-215.8237992
-237.3384906
-254.870389
-270.4275191
-290.9204612
-319.6784566
-350.7349177
-378.4680889
-410.7061471
-457.8973018
-503.7511015
-544.4255035
-615.2294426
-698.71904
-793.0744019
-900.3345298
-1050.503804
-1227.632869
-1383.507081
-1119.554595
-776.5963244
-558.4812152
-383.6782919
-185.3403414
)


100
(
-171.4661122
-142.2816149
-117.7631811
-99.47730058
-85.33971344
-74.43260629
-65.85131621
-59.18662252
-54.02962667
-49.90062934
-46.72214947
-44.45708621
-42.5257761
-41.16913206
-40.34156795
-39.57994188
-38.85198303
-38.34521189
-38.18063688
-37.74512874
-37.27634349
-36.92752157
-36.75699499
-36.55563172
-36.24078429
-36.05318791
-35.98752889
-36.09564493
-36.28238835
-36.3779698
-36.70339207
-37.29131476
-38.24241153
-39.64973227
-40.86877772
-42.23985324
-43.79297287
-45.41253592
-47.26956328
-48.85137215
-50.05098246
-51.29027487
-52.69267744
-54.20751015
-56.02800845
-57.77548599
-59.88217713
-62.6142148
-65.9253932
-69.69934404
-74.14978828
-78.17623111
-82.03063144
-85.86841729
-89.81168019
-93.78757744
-98.27198366
-102.3100398
-107.797926
-114.4773403
-121.7331915
-129.9220735
-137.8288236
-144.5123976
-150.738891
-156.6989636
-163.212572
-171.2145793
-181.1764184
-192.6180266
-205.2550496
-218.2545845
-231.3472483
-246.1802355
-264.3371109
-286.6907734
-310.4380908
-336.8077406
-363.8294863
-390.7316403
-427.9896166
-469.1415844
-504.8549595
-548.9402201
-608.8203503
-668.8433042
-718.757446
-796.5568702
-908.8027597
-1020.725032
-1158.509637
-1329.957257
-1549.616136
-1778.344854
-1924.796578
-1503.286689
-1089.415144
-806.9032898
-568.4958949
-355.817433
)


100
(
-173.7998823
-145.3234229
-121.0649986
-102.8365545
-88.8070288
-77.95804872
-69.49073152
-62.95185175
-57.96121486
-54.19682123
-51.19471165
-49.05745305
-47.63780698
-46.4059614
-45.61509625
-45.25748998
-44.78801066
-44.25483639
-43.882809
-43.76575372
-43.43367602
-42.95091756
-42.61184411
-42.46635937
-42.53447116
-42.36000118
-42.41364333
-42.72199262
-43.31830008
-44.30286751
-45.23690218
-46.33533721
-47.76395928
-49.5057099
-51.64863434
-53.98887586
-55.86020937
-57.81834902
-59.75779682
-61.82748742
-63.93250548
-65.66767502
-67.24906
-69.38369772
-71.96055194
-75.19986871
-79.34279883
-83.76269334
-88.49691518
-93.70922896
-98.85261242
-104.2136452
-109.4819255
-113.4499623
-117.7201753
-123.2320678
-129.647359
-137.5274795
-146.9707151
-155.7607493
-164.9966631
-173.7461445
-182.643812
-191.1304101
-198.1882788
-207.5092844
-219.2707676
-234.0381306
-250.3290157
-265.478458
-280.388022
-297.6310714
-318.8471907
-343.6212649
-371.0149689
-400.2658754
-430.0015928
-463.6471779
-504.2886117
-552.4051567
-599.9605467
-651.4128118
-706.6291756
-779.2985054
-855.3217251
-924.0673465
-1004.729126
-1115.42874
-1251.288313
-1411.683447
-1594.62812
-1863.286518
-2138.310067
-2439.263706
-2573.166031
-2001.924124
-1505.142876
-1142.524259
-829.7143047
-476.5977762
)


100
(
-175.9398455
-148.2016801
-124.2406436
-106.0946813
-92.3275299
-81.52868408
-73.24740251
-66.93857545
-62.15616107
-58.68161659
-56.10528053
-54.14955458
-52.92182387
-52.19199216
-51.48109097
-51.06739108
-50.99278907
-50.71825318
-50.27352193
-49.96019198
-49.84807414
-49.69529899
-49.2814074
-49.08932648
-49.14952509
-49.55945415
-50.07950899
-50.75190218
-51.83156227
-53.30295396
-55.2152066
-57.60176976
-59.5554771
-61.75505398
-64.16351377
-66.83261182
-69.82145907
-72.26731582
-74.40784254
-76.67454165
-79.20541237
-82.01779466
-85.48360918
-88.95047635
-93.11953689
-98.04672584
-103.5674007
-109.6124037
-116.8796676
-122.6786785
-128.3142361
-133.8809421
-139.6620593
-145.8376805
-153.2626246
-161.1911458
-170.9414011
-181.868052
-192.9371737
-205.2142834
-215.2121121
-223.7973108
-233.3997218
-243.9447284
-257.0475296
-273.62244
-291.6083283
-310.8005684
-331.3561356
-352.3369887
-373.2395069
-397.4423992
-430.5419302
-467.5815755
-502.2742054
-537.3086026
-579.0175347
-628.8035414
-685.636454
-747.3004472
-808.7434415
-878.6726097
-970.2177272
-1058.787005
-1148.268186
-1250.000457
-1376.173283
-1526.434426
-1710.102776
-1893.034197
-2140.778188
-2443.905758
-2823.889234
-3195.502033
-3299.90761
-2615.872236
-2026.557791
-1577.590865
-1177.107823
-665.0385807
)


100
(
-177.7964253
-150.8886973
-127.250261
-109.4419662
-95.78482155
-85.15473334
-77.08530255
-71.06281927
-66.63006577
-63.41995876
-61.30962483
-59.73922344
-58.651597
-58.13818472
-57.88224783
-57.50141447
-57.29678773
-57.37091841
-57.25983434
-56.87103897
-56.63198352
-56.61435225
-56.86252409
-56.74098786
-56.97346949
-57.6228084
-58.78368485
-60.59602643
-62.27609213
-64.40472761
-66.98325018
-69.88579048
-73.31418367
-76.39414899
-79.0619632
-81.81540977
-84.80303017
-88.04212478
-91.5985623
-94.64018151
-97.96969212
-102.1506035
-107.0940625
-112.9557084
-119.9661862
-126.8842952
-133.8095672
-140.9328649
-148.0574866
-155.521071
-163.1219141
-169.3424921
-176.7266449
-185.8317848
-196.5091602
-208.3060474
-222.341223
-235.0278675
-247.6023135
-259.7160632
-271.4159308
-283.7793412
-295.5669717
-311.4877411
-331.3250139
-354.7052227
-379.3986695
-403.4319104
-428.3786025
-456.5493952
-489.8893511
-529.3232378
-570.4909977
-614.1795407
-658.7202161
-706.269729
-764.9735533
-835.8747296
-906.7802665
-983.1781512
-1070.702211
-1170.028455
-1280.792399
-1383.153179
-1503.37975
-1670.546333
-1841.671287
-2023.628538
-2260.532632
-2509.842892
-2823.267558
-3250.372635
-3712.628341
-4174.445638
-4138.94447
-3330.782053
-2655.885655
-2114.995489
-1621.34034
-987.1395286
)


100
(
-179.4440222
-153.328927
-130.1830126
-112.7246086
-99.1727165
-88.83381686
-80.99901681
-75.29293618
-71.35159772
-68.49973621
-66.6549049
-65.73883849
-64.89317343
-64.42867136
-64.41125963
-64.44524611
-64.2512725
-64.18881003
-64.34052863
-64.46410313
-64.21730047
-64.23325559
-64.56283659
-65.33980388
-66.22281202
-67.37048605
-69.10547409
-71.43096489
-74.39897648
-77.83510672
-81.05671732
-84.56829511
-88.18334961
-92.18533785
-96.37702836
-99.40645302
-102.4893608
-106.2102935
-110.453371
-115.4887169
-121.7440791
-127.8639445
-134.7498089
-142.438637
-150.6094493
-159.8915844
-170.0052035
-177.4817154
-184.8486343
-192.9861403
-201.8181954
-212.0820357
-224.3623886
-236.9367881
-250.7855638
-265.460647
-281.0382087
-297.3697254
-310.4331749
-322.7458636
-337.670297
-354.5845461
-375.1598258
-399.1320052
-425.3507657
-452.8330093
-482.6287944
-514.558478
-547.9462748
-586.6526618
-634.321287
-686.1791979
-737.3583261
-790.0397573
-850.3595693
-923.7745903
-1001.637808
-1084.024127
-1169.581014
-1268.759662
-1393.977537
-1526.530471
-1649.112715
-1774.490281
-1944.555459
-2152.471095
-2375.53322
-2625.186253
-2927.74031
-3246.98542
-3647.652496
-4144.645928
-4751.476705
-5289.034949
-5160.624878
-4150.306129
-3375.697984
-2750.609909
-2162.741252
-1349.979416
)


100
(
-180.9540115
-155.8061111
-133.1814483
-115.8821863
-102.5011585
-92.45101958
-84.9798306
-79.65250923
-76.09259546
-73.89482297
-72.373738
-71.6232914
-71.55459259
-71.23034473
-71.15984826
-71.43864076
-71.68802285
-71.63067481
-71.7234901
-72.04296435
-72.61664792
-72.79059841
-73.40551289
-74.56205173
-76.39371509
-78.98202257
-81.46572395
-84.52548364
-88.16254262
-92.30078951
-97.46219572
-101.540913
-105.5790781
-109.6586646
-114.1158702
-118.8053423
-123.7470632
-128.0371983
-133.679906
-140.6054868
-148.7401729
-157.8543096
-168.7022597
-177.9194307
-187.3753735
-196.801316
-207.0929396
-217.601806
-228.3602804
-237.7289206
-249.8577786
-264.2251392
-279.4768736
-297.4358794
-316.3076449
-332.6804236
-348.1956009
-365.0046706
-381.9130247
-400.6295222
-420.3254802
-444.5863479
-472.9368193
-504.4289869
-537.3103601
-570.7088316
-607.1566926
-648.9219386
-698.4537743
-754.0571382
-811.4776958
-871.9914996
-935.7548391
-1004.423922
-1086.224383
-1182.516913
-1281.563314
-1381.582191
-1497.700001
-1631.570194
-1781.691964
-1932.69641
-2079.805226
-2265.497181
-2486.387559
-2740.046833
-3034.613558
-3369.309841
-3771.984736
-4132.94917
-4673.621485
-5255.642819
-5936.690614
-6636.934918
-6297.448187
-5081.593178
-4203.039408
-3481.555247
-2800.217071
-1828.531882
)


100
(
-182.3264386
-158.1218307
-135.99198
-118.8987448
-105.8885364
-96.02026363
-88.94214831
-84.12137921
-80.97849765
-79.22569429
-78.37898271
-77.91918644
-77.94681485
-78.39217661
-78.43064354
-78.59663355
-79.07071749
-79.58064214
-79.7491147
-80.18122851
-80.86491728
-82.12170142
-83.47384026
-85.26332742
-87.82098871
-91.15935324
-95.3123955
-99.85372441
-104.2688968
-109.039858
-114.0582741
-119.8027149
-125.3624374
-129.8703233
-134.6160635
-140.2119876
-146.4854927
-153.9621866
-162.2159766
-171.2969817
-181.5069449
-192.6768708
-204.2284299
-217.3684306
-229.1733639
-239.0563326
-249.316428
-261.5566527
-275.1593303
-291.150813
-309.2083401
-326.6704106
-345.2900961
-364.2559315
-386.1830486
-408.4693747
-425.8241284
-444.1854432
-466.241075
-491.7926477
-521.9007431
-555.3299173
-590.919476
-628.8078417
-668.5747706
-712.4947091
-759.8616429
-815.7227511
-879.7396732
-947.8702179
-1017.22018
-1090.77967
-1173.749088
-1272.319226
-1380.6047
-1492.872652
-1610.318102
-1736.541659
-1884.482535
-2055.693222
-2233.403393
-2411.930908
-2609.658233
-2855.131893
-3135.074313
-3473.125758
-3848.668333
-4248.670785
-4720.298922
-5185.565945
-5859.915464
-6528.317468
-7402.160572
-8113.851944
-7550.956327
-6154.306827
-5174.857048
-4330.428908
-3548.151357
-2412.825984
)


100
(
-183.5617197
-160.2659578
-138.6201465
-121.8317994
-109.1388153
-99.54890886
-92.85683247
-88.53718961
-85.98212844
-84.66064388
-84.36422001
-84.47650217
-84.72519411
-85.27250258
-86.01909772
-86.28831934
-86.67672885
-87.35291577
-88.3254829
-88.92012208
-89.99925432
-91.69677565
-94.20899257
-97.50441364
-100.9732421
-105.1949466
-110.14843
-115.8768187
-122.6216164
-127.961313
-133.4153468
-139.122088
-145.4505295
-152.266195
-158.7779238
-165.3326847
-173.5066713
-183.0606844
-194.021977
-206.6339385
-219.8255793
-232.4828354
-245.3805851
-258.2097629
-271.8366274
-285.7911898
-298.6767328
-312.9322213
-331.0120814
-351.348697
-372.8575713
-398.4577565
-420.7886425
-441.1761971
-462.2023352
-485.8723662
-511.269036
-538.9254751
-568.4723254
-602.0204309
-639.7835403
-681.0402299
-724.1318957
-768.798914
-818.1012636
-874.6646463
-942.4345122
-1016.921746
-1095.464728
-1174.509561
-1259.411782
-1352.270212
-1458.552595
-1580.555873
-1710.039803
-1847.651374
-2000.309601
-2173.473937
-2349.258492
-2533.650485
-2730.4079
-2959.524043
-3232.280272
-3536.838289
-3873.853587
-4301.727286
-4750.063352
-5257.877747
-5792.169673
-6371.213307
-7124.55306
-7951.241513
-8894.336914
-9766.602328
-8930.847358
-7383.999692
-6306.906419
-5337.236495
-4430.631483
-3258.122924
)


100
(
-184.185529
-162.1564707
-141.0561915
-124.7741569
-112.2675735
-103.0793059
-96.73308946
-92.88718553
-90.99439873
-90.22852993
-90.29645321
-91.05188596
-91.73494419
-92.40962166
-93.27401291
-94.28150806
-94.78870745
-95.51167403
-96.62134352
-98.27094074
-100.0091687
-102.3661425
-105.6690368
-110.0019185
-115.4355841
-121.1092435
-127.043211
-133.482701
-140.3978664
-148.1605052
-155.1580419
-161.3309147
-168.0421544
-175.7840614
-184.6020426
-195.084603
-205.7024626
-217.6073513
-230.6945036
-244.6301004
-259.9950059
-277.0080081
-290.6396014
-303.9183106
-318.3320675
-334.4306413
-352.6711886
-374.3942347
-396.6701337
-420.5751738
-446.0499893
-471.5310333
-500.1776851
-526.7512487
-547.9890762
-574.4571367
-606.1609359
-642.8033773
-684.3332251
-728.4364835
-774.7751361
-824.3474084
-875.7275123
-932.4634739
-994.2876413
-1067.329489
-1149.416744
-1237.104992
-1327.337584
-1423.369576
-1531.64641
-1656.726
-1798.78871
-1940.156289
-2089.427264
-2255.888849
-2442.980917
-2648.06232
-2862.881354
-3084.489331
-3316.002446
-3612.054014
-3946.820569
-4317.296493
-4766.901
-5267.733119
-5774.721735
-6341.546099
-6973.07881
-7653.766375
-8563.967441
-9556.313573
-10637.8678
-11489.56076
-10439.0563
-8736.218656
-7590.651202
-6500.541608
-5467.505537
-4016.302029
)


100
(
-184.7130122
-163.8600228
-143.5088318
-127.5322522
-115.2628784
-106.4690459
-100.5817215
-97.20363192
-95.81205661
-95.85798566
-96.35657733
-97.3405412
-98.75190639
-99.77339007
-100.7214493
-101.8498522
-103.2132525
-104.1620488
-105.5223993
-107.5441152
-110.4500326