/*--------------------------------*- C++ -*----------------------------------*\
| =========                 |                                                 |
| \\      /  F ield         | OpenFOAM: The Open Source CFD Toolbox           |
|  \\    /   O peration     | Version:  2.3.1                                 |
|   \\  /    A nd           | Web:      www.OpenFOAM.org                      |
|    \\/     M anipulation  |                                                 |
\*---------------------------------------------------------------------------*/
FoamFile
{
    version     2.0;
    format      ascii;
    class       dictionary;
    location    "constant";
    object      CH2(S);
}
// * * * * * * * * * * * * * * * * * * * * * * * * * * * * * * * * * * * * * //

CH2(S)_table
100
(

100
(
4.924151931e-10
5.76005863e-10
5.812147287e-10
5.542442712e-10
5.165079569e-10
4.719043545e-10
4.297167678e-10
3.884370466e-10
3.505573549e-10
3.156100731e-10
2.828767019e-10
2.563170453e-10
2.312429095e-10
2.083853407e-10
1.8954478e-10
1.716414673e-10
1.547938467e-10
1.411900617e-10
1.28128323e-10
1.154853257e-10
1.051812998e-10
9.581326062e-11
8.670575489e-11
7.838380103e-11
7.175665915e-11
6.532012105e-11
5.90412401e-11
5.349764514e-11
4.888011309e-11
4.437689727e-11
3.997856248e-11
3.641712925e-11
3.337725976e-11
3.041280472e-11
2.750955352e-11
2.485606217e-11
2.265476531e-11
2.050331616e-11
1.840489537e-11
1.652445272e-11
1.50402485e-11
1.360025965e-11
1.219639937e-11
1.094649947e-11
9.964187101e-12
9.006614396e-12
8.068614138e-12
7.157916405e-12
6.469047763e-12
5.792938599e-12
5.131344647e-12
4.516884637e-12
4.053553395e-12
3.601027989e-12
3.159362195e-12
2.776449615e-12
2.464522705e-12
2.169576323e-12
1.905765846e-12
1.676925693e-12
1.470546264e-12
1.291942332e-12
1.134490176e-12
9.852004565e-13
8.490087713e-13
7.328967796e-13
6.317880317e-13
5.361569221e-13
4.529615377e-13
3.852844943e-13
3.238134928e-13
2.645213995e-13
2.19285986e-13
1.831788441e-13
1.414590729e-13
1.131348423e-13
9.312826686e-14
6.498662005e-14
5.132032548e-14
3.720446836e-14
2.453233848e-14
2.152865261e-14
1.139703224e-14
1.053325048e-14
5.707574024e-15
5.937755414e-15
3.665229704e-15
3.825262747e-15
2.841534504e-15
1.928960688e-15
1.268809304e-15
8.181999924e-16
5.395123444e-16
3.186866546e-16
1.940247027e-16
1.127325208e-16
7.684747874e-17
4.090001833e-17
8.375758973e-18
2.516181518e-30
)


100
(
4.776106379e-10
6.215459586e-10
6.278071431e-10
5.978473317e-10
5.478624066e-10
4.971270882e-10
4.508601537e-10
4.048373089e-10
3.649098939e-10
3.28032453e-10
2.941528118e-10
2.669460115e-10
2.420375599e-10
2.197483697e-10
2.008559808e-10
1.832584871e-10
1.670494985e-10
1.534310992e-10
1.400794691e-10
1.278825929e-10
1.172397603e-10
1.071915231e-10
9.793361091e-11
8.960085886e-11
8.224266055e-11
7.50761538e-11
6.870357246e-11
6.293216689e-11
5.770773135e-11
5.252946273e-11
4.796094593e-11
4.386988053e-11
4.014995083e-11
3.660304039e-11
3.342272826e-11
3.049036924e-11
2.783770056e-11
2.532045098e-11
2.296565383e-11
2.084681428e-11
1.894283965e-11
1.718871994e-11
1.55279972e-11
1.402234266e-11
1.265965426e-11
1.143241582e-11
1.029018931e-11
9.251035514e-12
8.321486462e-12
7.508941124e-12
6.775631343e-12
6.102333734e-12
5.492350667e-12
4.939261158e-12
4.434019467e-12
3.959814464e-12
3.543418675e-12
3.227777397e-12
3.089224673e-12
3.252943169e-12
3.595875338e-12
3.224934952e-12
2.549884057e-12
2.392716827e-12
2.549690206e-12
2.275367894e-12
1.855343341e-12
1.879494734e-12
1.917787327e-12
1.622088716e-12
1.408838275e-12
1.481854326e-12
1.390369542e-12
1.194273433e-12
1.491752418e-12
1.673966655e-12
1.144914547e-12
1.246218756e-12
1.362628071e-12
9.06979263e-13
1.124875169e-12
9.723412952e-13
8.563009524e-13
1.133669566e-12
7.621412192e-13
9.197841547e-13
9.894134504e-13
8.014644877e-13
1.086174128e-12
8.904849024e-13
1.066837255e-12
1.073382873e-12
1.399381011e-12
1.468156829e-12
1.876311059e-12
1.874441647e-12
2.099524182e-12
1.95465479e-12
5.105922621e-13
6.480174492e-14
)


100
(
4.627978864e-10
6.502369264e-10
6.548404482e-10
6.234528915e-10
5.747634445e-10
5.269065186e-10
4.801601638e-10
4.370554036e-10
3.961744473e-10
3.60208517e-10
3.258278971e-10
2.965518166e-10
2.705366892e-10
2.468902068e-10
2.262176152e-10
2.073657319e-10
1.898642978e-10
1.74173813e-10
1.598389336e-10
1.462734483e-10
1.340156397e-10
1.228074226e-10
1.12430539e-10
1.029001261e-10
9.425507507e-11
8.634938388e-11
7.907482623e-11
7.242790139e-11
6.629758867e-11
6.064272715e-11
5.5460141e-11
5.072257831e-11
4.641736748e-11
4.249871241e-11
3.895374446e-11
3.566079393e-11
3.260449016e-11
2.978772123e-11
2.72880555e-11
2.501571597e-11
2.291220199e-11
2.101145377e-11
1.933066049e-11
1.787313643e-11
1.639121636e-11
1.496505326e-11
1.366894499e-11
1.255790647e-11
1.150561369e-11
1.049473537e-11
9.646481348e-12
9.040451432e-12
8.69018026e-12
8.224987919e-12
7.793600498e-12
7.427858643e-12
7.268391278e-12
6.906213453e-12
6.666133543e-12
6.730555639e-12
7.526410089e-12
8.403537254e-12
8.303827109e-12
7.427770324e-12
6.822003543e-12
6.748735188e-12
6.487096012e-12
6.058761586e-12
5.731970163e-12
5.499187766e-12
5.140060123e-12
4.795131087e-12
4.564749068e-12
4.336842076e-12
4.437466001e-12
5.442196605e-12
6.793832396e-12
6.409040585e-12
6.10159865e-12
6.219036628e-12
6.080556105e-12
7.020729639e-12
6.487324238e-12
8.250725838e-12
8.237412975e-12
8.078780366e-12
9.2287437e-12
9.407184856e-12
1.015099232e-11
1.190625816e-11
1.372889883e-11
1.540999135e-11
1.797183383e-11
2.315642667e-11
2.46798536e-11
2.796453575e-11
3.210062685e-11
2.031710814e-11
7.19040865e-12
1.875074638e-12
)


100
(
4.479799844e-10
6.595499155e-10
6.677543573e-10
6.390823652e-10
5.966343777e-10
5.514441837e-10
5.059037234e-10
4.637118362e-10
4.228820853e-10
3.856619327e-10
3.512290784e-10
3.198927645e-10
2.921140137e-10
2.669617971e-10
2.444245428e-10
2.241023841e-10
2.055208976e-10
1.885659957e-10
1.730592419e-10
1.588631109e-10
1.457824954e-10
1.338002471e-10
1.228291356e-10
1.128932135e-10
1.03719527e-10
9.531060524e-11
8.770405225e-11
8.092812753e-11
7.457026482e-11
6.859280233e-11
6.30870456e-11
5.832686596e-11
5.392134088e-11
4.98857128e-11
4.626733651e-11
4.314027645e-11
4.028737838e-11
3.745203502e-11
3.480509385e-11
3.249566522e-11
3.071104081e-11
2.916566453e-11
2.762944511e-11
2.640717693e-11
2.546243665e-11
2.502154739e-11
2.404671257e-11
2.316061548e-11
2.235334906e-11
2.222732493e-11
2.143480435e-11
2.079014655e-11
2.018573227e-11
2.001445504e-11
1.930846735e-11
1.850777773e-11
1.786400624e-11
1.780443967e-11
1.720212505e-11
1.638514315e-11
1.604010964e-11
1.635341006e-11
1.667063419e-11
1.633561434e-11
1.542782539e-11
1.450990488e-11
1.385924224e-11
1.335577987e-11
1.31805771e-11
1.365716743e-11
1.434829538e-11
1.536602238e-11
1.683944089e-11
1.864256091e-11
1.886464451e-11
2.0295569e-11
2.477229232e-11
2.408685289e-11
2.323058178e-11
2.852530302e-11
2.888128472e-11
2.898838465e-11
3.251955359e-11
3.276360352e-11
3.414169e-11
3.774326384e-11
4.249377238e-11
4.83042713e-11
5.328243627e-11
6.175426064e-11
7.166396281e-11
8.097303338e-11
9.36856251e-11
1.046870443e-10
1.225616768e-10
1.431609107e-10
1.590503486e-10
8.618934206e-11
3.737669356e-11
1.357664117e-11
)


100
(
4.331598672e-10
6.543903685e-10
6.727782081e-10
6.504063273e-10
6.133584913e-10
5.70521159e-10
5.27104273e-10
4.848026872e-10
4.445452673e-10
4.066199876e-10
3.713892491e-10
3.390715102e-10
3.097704111e-10
2.833328939e-10
2.596576476e-10
2.382855476e-10
2.190257148e-10
2.015959612e-10
1.85662406e-10
1.710841454e-10
1.580288576e-10
1.45993839e-10
1.349278934e-10
1.249077834e-10
1.162033503e-10
1.079973485e-10
1.00429295e-10
9.374407411e-11
8.814330108e-11
8.277560893e-11
7.748105196e-11
7.258694621e-11
6.84972125e-11
6.543485141e-11
6.197734992e-11
5.905488152e-11
5.671805943e-11
5.567447602e-11
5.377235761e-11
5.216884267e-11
5.080030056e-11
4.979776699e-11
4.912835158e-11
4.751613661e-11
4.615489736e-11
4.539944681e-11
4.588871975e-11
4.440609601e-11
4.306389673e-11
4.228325313e-11
4.232830125e-11
4.116655882e-11
3.994419752e-11
3.913631871e-11
3.857454615e-11
3.73276431e-11
3.598688281e-11
3.567364134e-11
3.548247415e-11
3.480814162e-11
3.359069297e-11
3.278839755e-11
3.282438037e-11
3.363189931e-11
3.458225132e-11
3.579365499e-11
3.709769553e-11
3.839950543e-11
3.954101108e-11
4.101003651e-11
4.244874504e-11
4.402335421e-11
4.723301384e-11
5.436315871e-11
6.25960101e-11
6.257372739e-11
6.30454471e-11
7.00256758e-11
7.280533543e-11
7.504962791e-11
7.900694961e-11
8.407921974e-11
9.447565233e-11
1.062177836e-10
1.16652624e-10
1.267404615e-10
1.374331977e-10
1.549631961e-10
1.767323035e-10
2.093395794e-10
2.250817341e-10
2.514145703e-10
2.874549606e-10
3.280436115e-10
3.823291742e-10
4.47434128e-10
4.645577429e-10
2.404257788e-10
1.18740503e-10
5.01477559e-11
)


100
(
4.183408263e-10
6.481026893e-10
6.739862101e-10
6.577958491e-10
6.254508224e-10
5.862354102e-10
5.443157264e-10
5.030897983e-10
4.630000144e-10
4.251958761e-10
3.896433523e-10
3.567871667e-10
3.26881776e-10
2.997303402e-10
2.754093343e-10
2.536422687e-10
2.341698472e-10
2.170590849e-10
2.015960758e-10
1.87364124e-10
1.745346312e-10
1.635101927e-10
1.534423767e-10
1.440559451e-10
1.358759861e-10
1.293168061e-10
1.23510814e-10
1.176613928e-10
1.125112784e-10
1.084189706e-10
1.054578539e-10
1.014547997e-10
9.785697746e-11
9.481252887e-11
9.381571912e-11
9.051180016e-11
8.77448261e-11
8.537711944e-11
8.664690351e-11
8.472976603e-11
8.309299681e-11
8.158059281e-11
8.160852163e-11
8.055189721e-11
7.808590834e-11
7.593099912e-11
7.616447241e-11
7.666045159e-11
7.408556454e-11
7.208076303e-11
7.142396875e-11
7.108592825e-11
6.966315885e-11
6.832645115e-11
6.74271799e-11
6.673556729e-11
6.593071215e-11
6.66509286e-11
6.850540527e-11
7.135582488e-11
7.465595778e-11
7.730076633e-11
7.890611143e-11
8.075324879e-11
8.285788546e-11
8.51868258e-11
8.730462384e-11
8.909457311e-11
9.075213057e-11
9.268589804e-11
9.625987563e-11
1.019682925e-10
1.095816144e-10
1.185961838e-10
1.294981232e-10
1.423151466e-10
1.466404924e-10
1.533553949e-10
1.639472445e-10
1.810003994e-10
1.996494992e-10
2.189687171e-10
2.39329391e-10
2.593450497e-10
2.857776082e-10
3.185141406e-10
3.469747912e-10
3.812355649e-10
4.457895788e-10
4.88995656e-10
5.302900163e-10
6.078615166e-10
6.761452813e-10
7.780111805e-10
8.973544907e-10
1.043477931e-09
9.305612195e-10
5.241031415e-10
2.862324895e-10
1.309084011e-10
)


100
(
4.03305308e-10
6.390235667e-10
6.715889806e-10
6.613538298e-10
6.347310777e-10
5.990292169e-10
5.594288905e-10
5.194610197e-10
4.803996508e-10
4.429840479e-10
4.079589652e-10
3.753846399e-10
3.45605026e-10
3.185190805e-10
2.943093081e-10
2.729486134e-10
2.538988613e-10
2.374894623e-10
2.238209165e-10
2.115024386e-10
1.998999986e-10
1.898419056e-10
1.819187895e-10
1.753795821e-10
1.685002082e-10
1.633214845e-10
1.60222725e-10
1.56971457e-10
1.526784765e-10
1.488592832e-10
1.466061083e-10
1.460527139e-10
1.42411458e-10
1.39177052e-10
1.374336411e-10
1.375000371e-10
1.333523939e-10
1.297459384e-10
1.286872766e-10
1.30195558e-10
1.274334934e-10
1.247149823e-10
1.23247559e-10
1.229450012e-10
1.210574888e-10
1.173516748e-10
1.165953481e-10
1.166576302e-10
1.175102274e-10
1.150343598e-10
1.145892243e-10
1.146577253e-10
1.161905352e-10
1.186298448e-10
1.210409265e-10
1.242321248e-10
1.277780111e-10
1.317545397e-10
1.356504958e-10
1.393679538e-10
1.437001449e-10
1.481566862e-10
1.527241629e-10
1.582684525e-10
1.619153288e-10
1.656902067e-10
1.710869282e-10
1.799338004e-10
1.925649265e-10
2.038120451e-10
2.150223191e-10
2.267264032e-10
2.394120137e-10
2.519209793e-10
2.642299557e-10
2.802707873e-10
3.032411076e-10
3.306569914e-10
3.590478865e-10
3.881399762e-10
4.182849269e-10
4.507930715e-10
4.959749718e-10
5.480800005e-10
5.985547856e-10
6.507145332e-10
7.143081489e-10
7.834034236e-10
8.777763694e-10
9.705099436e-10
1.045767861e-09
1.147979599e-09
1.284049215e-09
1.458336007e-09
1.684626384e-09
1.936685742e-09
1.580835883e-09
9.743191322e-10
5.839897971e-10
2.774270075e-10
)


100
(
3.881238247e-10
6.274596943e-10
6.656062369e-10
6.623048762e-10
6.412526582e-10
6.090736991e-10
5.729052469e-10
5.345946179e-10
4.974148751e-10
4.614368663e-10
4.27552497e-10
3.960572818e-10
3.676256539e-10
3.416842645e-10
3.183663823e-10
2.982960442e-10
2.810863478e-10
2.660989839e-10
2.545002626e-10
2.455379105e-10
2.380954757e-10
2.30092123e-10
2.238450833e-10
2.197979232e-10
2.181227475e-10
2.13524699e-10
2.109751794e-10
2.108198956e-10
2.090210887e-10
2.056914382e-10
2.021113999e-10
2.037076531e-10
2.026116102e-10
1.979451235e-10
1.936538091e-10
1.939337907e-10
1.931240562e-10
1.873979816e-10
1.829818791e-10
1.833000608e-10
1.843739966e-10
1.807494176e-10
1.771559419e-10
1.761172541e-10
1.757543201e-10
1.742328254e-10
1.731846458e-10
1.749124885e-10
1.784130525e-10
1.838985961e-10
1.89485846e-10
1.941769751e-10
1.995881779e-10
2.054956158e-10
2.131571165e-10
2.215728045e-10
2.26138444e-10
2.309667059e-10
2.361811419e-10
2.419091913e-10
2.494756523e-10
2.557657392e-10
2.640644499e-10
2.754603005e-10
2.917611403e-10
3.116919834e-10
3.308331725e-10
3.476177041e-10
3.65286939e-10
3.866551731e-10
4.100685664e-10
4.311902006e-10
4.536888851e-10
4.82320107e-10
5.176432061e-10
5.547322207e-10
5.900538458e-10
6.298187935e-10
6.737553675e-10
7.193016521e-10
7.774892606e-10
8.417234862e-10
9.080994775e-10
9.782400144e-10
1.058181646e-09
1.151770586e-09
1.249878289e-09
1.351738682e-09
1.475735688e-09
1.608325514e-09
1.750528451e-09
1.943292268e-09
2.17373186e-09
2.472356457e-09
2.871316797e-09
3.246391985e-09
2.44051204e-09
1.596369157e-09
1.030463699e-09
5.173458574e-10
)


100
(
3.729411581e-10
6.129385865e-10
6.572912464e-10
6.608474263e-10
6.449923774e-10
6.17607959e-10
5.847833008e-10
5.496441128e-10
5.145338184e-10
4.808796418e-10
4.495788053e-10
4.20126258e-10
3.93573265e-10
3.710693745e-10
3.50155774e-10
3.321211596e-10
3.177558569e-10
3.058880542e-10
2.97735973e-10
2.918001586e-10
2.886728222e-10
2.876426852e-10
2.832347737e-10
2.805166206e-10
2.794562086e-10
2.808668935e-10
2.789049743e-10
2.776712346e-10
2.790783908e-10
2.77300498e-10
2.73779999e-10
2.712166914e-10
2.748387154e-10
2.722040682e-10
2.656606366e-10
2.620905354e-10
2.620957981e-10
2.602098124e-10
2.527231495e-10
2.510885429e-10
2.516082934e-10
2.537852701e-10
2.511202743e-10
2.511993949e-10
2.528398562e-10
2.572116475e-10
2.640691573e-10
2.712473708e-10
2.804519551e-10
2.912265105e-10
3.026266036e-10
3.155028826e-10
3.261070969e-10
3.34080964e-10
3.424850382e-10
3.529774041e-10
3.64294196e-10
3.780183423e-10
3.884091412e-10
3.990251352e-10
4.132230649e-10
4.327914657e-10
4.587167726e-10
4.861553385e-10
5.131876801e-10
5.419399546e-10
5.724328482e-10
6.047044736e-10
6.36508164e-10
6.687059155e-10
7.098018066e-10
7.591602534e-10
8.15015239e-10
8.63195898e-10
9.085300463e-10
9.615040591e-10
1.018552951e-09
1.076343468e-09
1.146400964e-09
1.222704461e-09
1.301474005e-09
1.381796723e-09
1.469740696e-09
1.586052666e-09
1.708914878e-09
1.84441228e-09
1.987304628e-09
2.180771236e-09
2.348245581e-09
2.542928028e-09
2.797565435e-09
3.115926134e-09
3.537054396e-09
4.069034122e-09
4.679855839e-09
5.173413893e-09
3.689175525e-09
2.475973793e-09
1.646535193e-09
8.775160964e-10
)


100
(
3.5775987e-10
5.963033759e-10
6.471341349e-10
6.565788644e-10
6.458581733e-10
6.242595826e-10
5.95136414e-10
5.640420623e-10
5.32491902e-10
5.019548762e-10
4.737965824e-10
4.49223544e-10
4.256637661e-10
4.061525406e-10
3.920334183e-10
3.777849415e-10
3.670697141e-10
3.607599727e-10
3.586952587e-10
3.554335927e-10
3.547571031e-10
3.564579385e-10
3.616786958e-10
3.596962575e-10
3.589901156e-10
3.593544118e-10
3.61646617e-10
3.627989421e-10
3.613980378e-10
3.628719464e-10
3.597507082e-10
3.549971883e-10
3.564611049e-10
3.596366048e-10
3.553844328e-10
3.471065821e-10
3.461937472e-10
3.465616143e-10
3.455820268e-10
3.419897031e-10
3.450351221e-10
3.508812397e-10
3.609147571e-10
3.698121645e-10
3.778748121e-10
3.88012351e-10
4.000186146e-10
4.159595696e-10
4.342419659e-10
4.48081959e-10
4.635132233e-10
4.792415147e-10
4.953179967e-10
5.125977108e-10
5.305910464e-10
5.450028374e-10
5.651774614e-10
5.904696265e-10
6.220455087e-10
6.601100475e-10
6.969365597e-10
7.28593788e-10
7.624007942e-10
8.029398706e-10
8.4808437e-10
8.920884048e-10
9.345961854e-10
9.846366584e-10
1.042121754e-09
1.109699215e-09
1.180280579e-09
1.245118897e-09
1.312027338e-09
1.38171386e-09
1.453215903e-09
1.524887187e-09
1.612045157e-09
1.706780183e-09
1.802433013e-09
1.900309972e-09
2.010102876e-09
2.149034737e-09
2.300369672e-09
2.467112299e-09
2.647845048e-09
2.8654084e-09
3.12648675e-09
3.38981234e-09
3.679975816e-09
4.041578925e-09
4.470647497e-09
5.049511264e-09
5.691800169e-09
6.601464424e-09
7.587588389e-09
7.978537377e-09
5.460004162e-09
3.764681897e-09
2.53548732e-09
1.412710982e-09
)


100
(
3.425824371e-10
5.792200463e-10
6.345705172e-10
6.493697327e-10
6.452448265e-10
6.287015309e-10
6.047191972e-10
5.779100819e-10
5.510330483e-10
5.255236974e-10
5.015946483e-10
4.818075411e-10
4.658089531e-10
4.507700039e-10
4.408675828e-10
4.377989633e-10
4.318887744e-10
4.296835998e-10
4.319898734e-10
4.387429511e-10
4.399140293e-10
4.431364885e-10
4.478675601e-10
4.555682106e-10
4.574705205e-10
4.573319639e-10
4.578490851e-10
4.598940892e-10
4.635757173e-10
4.617151235e-10
4.622371927e-10
4.579819345e-10
4.551889542e-10
4.59081514e-10
4.634288826e-10
4.595978114e-10
4.573986634e-10
4.604305471e-10
4.673124428e-10
4.764110279e-10
4.866824019e-10
5.000840389e-10
5.169539186e-10
5.367051417e-10
5.623901895e-10
5.819352794e-10
5.988808239e-10
6.169571224e-10
6.386838116e-10
6.630037147e-10
6.91056373e-10
7.117844369e-10
7.360750977e-10
7.644958727e-10
7.977622537e-10
8.387245774e-10
8.913194229e-10
9.374186802e-10
9.884210479e-10
1.042096466e-09
1.100493556e-09
1.161781881e-09
1.214213733e-09
1.263138266e-09
1.323970598e-09
1.393090924e-09
1.468677617e-09
1.550429998e-09
1.625136236e-09
1.702400073e-09
1.793206794e-09
1.888282514e-09
1.972333216e-09
2.071188211e-09
2.188238294e-09
2.316453725e-09
2.441878242e-09
2.571590754e-09
2.716739504e-09
2.890390221e-09
3.092428991e-09
3.315013811e-09
3.541810689e-09
3.780167614e-09
4.11466199e-09
4.45164231e-09
4.852720496e-09
5.264341138e-09
5.770529353e-09
6.354185727e-09
7.096127626e-09
7.997738294e-09
9.161371333e-09
1.064439615e-08
1.217561567e-08
1.174796232e-08
7.873114236e-09
5.577453482e-09
3.821787984e-09
2.178358227e-09
)


100
(
3.280948537e-10
5.61124292e-10
6.197162331e-10
6.396830265e-10
6.423226396e-10
6.309296002e-10
6.130069804e-10
5.916398336e-10
5.701793639e-10
5.510476785e-10
5.3394119e-10
5.198697519e-10
5.117540795e-10
5.067411369e-10
5.026433025e-10
5.043552503e-10
5.136192757e-10
5.160407691e-10
5.215323362e-10
5.303021602e-10
5.445287087e-10
5.483810368e-10
5.535197824e-10
5.598684607e-10
5.684370164e-10
5.746579014e-10
5.742357819e-10
5.746579292e-10
5.764575622e-10
5.801823563e-10
5.840726596e-10
5.839477987e-10
5.749414009e-10
5.849640478e-10
5.940726314e-10
6.069840901e-10
6.152212583e-10
6.26994555e-10
6.411876634e-10
6.602338562e-10
6.873375222e-10
7.13619473e-10
7.386064425e-10
7.668351222e-10
7.966752066e-10
8.31021973e-10
8.68182391e-10
8.967921697e-10
9.221415021e-10
9.563702837e-10
9.949779655e-10
1.040874043e-09
1.097277328e-09
1.152818336e-09
1.211738869e-09
1.276890591e-09
1.345120988e-09
1.42923011e-09
1.513970478e-09
1.578800078e-09
1.648389964e-09
1.726992414e-09
1.810591199e-09
1.901316482e-09
1.993317803e-09
2.081183339e-09
2.171335832e-09
2.272666884e-09
2.379319607e-09
2.463532484e-09
2.576813105e-09
2.710752192e-09
2.869978953e-09
3.037238685e-09
3.208104348e-09
3.395179445e-09
3.603344887e-09
3.829164767e-09
4.094455841e-09
4.382199787e-09
4.681322277e-09
5.011013394e-09
5.405724147e-09
5.838825664e-09
6.328741229e-09
6.84559568e-09
7.521865382e-09
8.203508036e-09
8.991504037e-09
1.003146645e-08
1.121946591e-08
1.270163643e-08
1.458523226e-08
1.685104797e-08
1.91493316e-08
1.673144679e-08
1.117264146e-08
8.138827398e-09
5.650724931e-09
3.367412522e-09
)


100
(
3.14394998e-10
5.42213018e-10
6.028661134e-10
6.291796292e-10
6.368815883e-10
6.316021022e-10
6.196490534e-10
6.049812667e-10
5.902729745e-10
5.779786501e-10
5.708460011e-10
5.645661135e-10
5.636148354e-10
5.700996529e-10
5.777258832e-10
5.85324678e-10
5.9812556e-10
6.182383509e-10
6.282613053e-10
6.390220418e-10
6.519440119e-10
6.688211371e-10
6.771445267e-10
6.830607298e-10
6.902526896e-10
6.992694515e-10
7.100907384e-10
7.114493037e-10
7.128945392e-10
7.168781969e-10
7.238892827e-10
7.362608023e-10
7.454990597e-10
7.528007707e-10
7.73397137e-10
7.977071869e-10
8.252055577e-10
8.6002844e-10
8.843835661e-10
9.133303119e-10
9.460526269e-10
9.865955322e-10
1.034440859e-09
1.072756348e-09
1.109904424e-09
1.151984985e-09
1.200163818e-09
1.253869356e-09
1.317282351e-09
1.376645021e-09
1.441040726e-09
1.512270474e-09
1.591318915e-09
1.682869598e-09
1.796183167e-09
1.879763543e-09
1.961756455e-09
2.053456758e-09
2.153970848e-09
2.260611437e-09
2.374187422e-09
2.472855217e-09
2.578892748e-09
2.690350138e-09
2.818565896e-09
2.956741211e-09
3.057069761e-09
3.173865283e-09
3.310901292e-09
3.470473647e-09
3.660943795e-09
3.866014956e-09
4.090147229e-09
4.334368195e-09
4.591355519e-09
4.873532321e-09
5.235730788e-09
5.650306037e-09
6.053862474e-09
6.466996581e-09
6.939510782e-09
7.504650744e-09
8.132579986e-09
8.785435778e-09
9.515117556e-09
1.044110715e-08
1.141533546e-08
1.243775216e-08
1.384976508e-08
1.552708275e-08
1.747339395e-08
1.966419476e-08
2.251014824e-08
2.592932107e-08
2.883981293e-08
2.324972866e-08
1.606353568e-08
1.179069289e-08
8.316461168e-09
4.777210135e-09
)


100
(
3.006976856e-10
5.225692768e-10
5.858464758e-10
6.16459521e-10
6.289808046e-10
6.305653623e-10
6.247244035e-10
6.171598362e-10
6.114623897e-10
6.069789146e-10
6.080836058e-10
6.168288871e-10
6.235575301e-10
6.376489876e-10
6.597168218e-10
6.79370526e-10
6.973318565e-10
7.189292413e-10
7.47160739e-10
7.63737206e-10
7.772495621e-10
7.925889918e-10
8.110231531e-10
8.248922113e-10
8.316007955e-10
8.403955972e-10
8.513936007e-10
8.654371393e-10
8.785369074e-10
8.859837434e-10
8.986451725e-10
9.170222466e-10
9.437991643e-10
9.822312615e-10
1.013220264e-09
1.048951318e-09
1.090716497e-09
1.137256731e-09
1.196068598e-09
1.249019416e-09
1.290219793e-09
1.334619564e-09
1.389394658e-09
1.451319436e-09
1.522429508e-09
1.583407184e-09
1.65073196e-09
1.731948126e-09
1.824403563e-09
1.926003873e-09
2.048022024e-09
2.154326657e-09
2.253363448e-09
2.355459994e-09
2.474827863e-09
2.602994259e-09
2.736746091e-09
2.833345486e-09
2.956523782e-09
3.089330396e-09
3.222430585e-09
3.381058371e-09
3.539252952e-09
3.671196056e-09
3.813446845e-09
3.983832485e-09
4.171670369e-09
4.369271581e-09
4.591108782e-09
4.841219301e-09
5.119487429e-09
5.418443434e-09
5.730662258e-09
6.07764141e-09
6.481706705e-09
6.969045188e-09
7.507725478e-09
8.082188536e-09
8.691236591e-09
9.325983151e-09
1.011172921e-08
1.098318615e-08
1.188161821e-08
1.289798009e-08
1.410499973e-08
1.541244883e-08
1.677963431e-08
1.85287133e-08
2.077089783e-08
2.314126792e-08
2.607002149e-08
2.941852284e-08
3.387799969e-08
3.868184828e-08
4.157612019e-08
3.224338505e-08
2.307433383e-08
1.723498852e-08
1.235626023e-08
7.710188159e-09
)


100
(
2.870037715e-10
5.02705233e-10
5.677163951e-10
6.017230193e-10
6.195178654e-10
6.270798289e-10
6.283755305e-10
6.281638563e-10
6.309737047e-10
6.386187118e-10
6.483488578e-10
6.66565039e-10
6.916853994e-10
7.137641531e-10
7.425944118e-10
7.790957635e-10
8.090712796e-10
8.34970005e-10
8.633944453e-10
8.966338295e-10
9.195866269e-10
9.348588054e-10
9.523958371e-10
9.727986555e-10
9.956654622e-10
1.005317623e-09
1.019103652e-09
1.037721509e-09
1.062122066e-09
1.09519403e-09
1.123480733e-09
1.155203056e-09
1.195592614e-09
1.245373245e-09
1.308672306e-09
1.379892941e-09
1.435674999e-09
1.496330737e-09
1.561024294e-09
1.638514934e-09
1.723129926e-09
1.793424972e-09
1.855217638e-09
1.936261348e-09
2.028444565e-09
2.135142181e-09
2.260461811e-09
2.381770765e-09
2.503779746e-09
2.635516772e-09
2.769616603e-09
2.924150294e-09
3.082673094e-09
3.189868928e-09
3.301966104e-09
3.446287696e-09
3.599177914e-09
3.767514336e-09
3.950958198e-09
4.105134525e-09
4.270528923e-09
4.442734716e-09
4.661585767e-09
4.892908535e-09
5.071372112e-09
5.3092602e-09
5.588980937e-09
5.913272524e-09
6.270456598e-09
6.632079718e-09
7.016669174e-09
7.447048729e-09
7.930456985e-09
8.468593563e-09
9.07686275e-09
9.748495509e-09
1.047384313e-08
1.127975767e-08
1.220320059e-08
1.328191045e-08
1.443337512e-08
1.562496529e-08
1.692781616e-08
1.85091494e-08
2.027924833e-08
2.214203937e-08
2.421332713e-08
2.673995367e-08
2.968866746e-08
3.327986014e-08
3.739606917e-08
4.223988267e-08
4.873689097e-08
5.569323299e-08
5.829498504e-08
4.466148614e-08
3.293951444e-08
2.50397083e-08
1.832673116e-08
1.072005204e-08
)


100
(
2.73314059e-10
4.828292849e-10
5.484833236e-10
5.851816278e-10
6.085455537e-10
6.212546326e-10
6.298710213e-10
6.383725965e-10
6.496896146e-10
6.684150181e-10
6.921818237e-10
7.20010588e-10
7.568381178e-10
7.98410021e-10
8.348033192e-10
8.762556428e-10
9.244635437e-10
9.637035688e-10
9.95408389e-10
1.029038841e-09
1.065880049e-09
1.097118572e-09
1.115090884e-09
1.136897832e-09
1.162458939e-09
1.193539917e-09
1.221355474e-09
1.249034386e-09
1.286051079e-09
1.332824974e-09
1.391680105e-09
1.465340685e-09
1.523812231e-09
1.590965395e-09
1.666472977e-09
1.755955664e-09
1.863566257e-09
1.95375932e-09
2.033373361e-09
2.121037194e-09
2.224416534e-09
2.338296466e-09
2.468609962e-09
2.582723047e-09
2.710618304e-09
2.851238769e-09
3.003089069e-09
3.168726002e-09
3.376184789e-09
3.527577688e-09
3.673006545e-09
3.821115219e-09
3.985512612e-09
4.153077957e-09
4.32897466e-09
4.486788459e-09
4.673652994e-09
4.874731306e-09
5.084771825e-09
5.352836803e-09
5.57849576e-09
5.777853843e-09
6.03316289e-09
6.328912044e-09
6.670536194e-09
7.061726666e-09
7.472763837e-09
7.912931502e-09
8.393997065e-09
8.908089961e-09
9.438422815e-09
1.003338387e-08
1.077973303e-08
1.161221586e-08
1.247507698e-08
1.340195228e-08
1.445068214e-08
1.56077675e-08
1.694338864e-08
1.841423712e-08
1.998057578e-08
2.170453111e-08
2.379076813e-08
2.603175727e-08
2.836975876e-08
3.106314545e-08
3.422615344e-08
3.788076217e-08
4.216853201e-08
4.667737393e-08
5.266219435e-08
5.912849616e-08
6.790174911e-08
7.712358362e-08
7.881668268e-08
6.115275766e-08
4.620682446e-08
3.582357735e-08
2.6729584e-08
1.501896254e-08
)


100
(
2.60862427e-10
4.628525758e-10
5.283002919e-10
5.681306002e-10
5.954561778e-10
6.135591952e-10
6.289000289e-10
6.462221301e-10
6.679543975e-10
6.967750734e-10
7.360708205e-10
7.776733822e-10
8.243408338e-10
8.795289294e-10
9.356353887e-10
9.841299472e-10
1.035692628e-09
1.093278565e-09
1.141888116e-09
1.178369737e-09
1.217013678e-09
1.258556302e-09
1.303016166e-09
1.327959203e-09
1.359694421e-09
1.399089031e-09
1.4487624e-09
1.51341239e-09
1.568614238e-09
1.636089001e-09
1.716850102e-09
1.81011799e-09
1.92620434e-09
2.033165149e-09
2.12690906e-09
2.227590046e-09
2.345547922e-09
2.480968122e-09
2.630801892e-09
2.75065388e-09
2.875098213e-09
3.024510676e-09
3.1904995e-09
3.374555774e-09
3.582854919e-09
3.772460967e-09
3.952599716e-09
4.137501947e-09
4.332380978e-09
4.548816119e-09
4.762973781e-09
4.909442151e-09
5.080450511e-09
5.281333659e-09
5.5014484e-09
5.731427555e-09
6.015896833e-09
6.261456162e-09
6.520500437e-09
6.810519831e-09
7.138651337e-09
7.49402549e-09
7.80176749e-09
8.213299347e-09
8.692072149e-09
9.235622072e-09
9.822190429e-09
1.042516762e-08
1.107481226e-08
1.179444917e-08
1.261859803e-08
1.358336561e-08
1.458369746e-08
1.567161149e-08
1.683635612e-08
1.809732051e-08
1.95628215e-08
2.126475226e-08
2.31457271e-08
2.521104052e-08
2.739403579e-08
2.984909904e-08
3.258174355e-08
3.559904091e-08
3.903787046e-08
4.332523272e-08
4.77443637e-08
5.25124797e-08
5.836544222e-08
6.489577051e-08
7.281750817e-08
8.392774289e-08
9.415100574e-08
1.063477416e-07
1.042879315e-07
8.200020505e-08
6.358685243e-08
5.010543065e-08
3.810743039e-08
2.132438237e-08
)


100
(
2.49250706e-10
4.429594688e-10
5.077681428e-10
5.501751959e-10
5.804844869e-10
6.042206325e-10
6.25838157e-10
6.51329534e-10
6.853418409e-10
7.249687641e-10
7.754016065e-10
8.381162866e-10
8.96067189e-10
9.600622119e-10
1.031846567e-09
1.100508363e-09
1.159032601e-09
1.219937973e-09
1.285006939e-09
1.344934736e-09
1.387161836e-09
1.433795775e-09
1.484885639e-09
1.542917721e-09
1.595251965e-09
1.649599899e-09
1.717854375e-09
1.801727271e-09
1.904207022e-09
2.021054221e-09
2.128397002e-09
2.248043949e-09
2.377475374e-09
2.53214785e-09
2.704905136e-09
2.831569234e-09
2.961514985e-09
3.119957864e-09
3.298514911e-09
3.497497226e-09
3.723146568e-09
3.91608379e-09
4.120402328e-09
4.337033372e-09
4.562719772e-09
4.825725008e-09
5.116775291e-09
5.305086332e-09
5.491265783e-09
5.704608397e-09
5.933179713e-09
6.179255601e-09
6.445715946e-09
6.687940699e-09
6.952417969e-09
7.241207858e-09
7.583260922e-09
7.991553215e-09
8.31860617e-09
8.639647896e-09
9.063582047e-09
9.535530109e-09
1.007983993e-08
1.068867601e-08
1.135412765e-08
1.204734527e-08
1.280580408e-08
1.363365959e-08
1.450247842e-08
1.549883764e-08
1.668688519e-08
1.799488264e-08
1.937190201e-08
2.084900155e-08
2.249881103e-08
2.443181875e-08
2.64593341e-08
2.865826294e-08
3.106032325e-08
3.37854966e-08
3.69749724e-08
4.058906342e-08
4.423149017e-08
4.811447681e-08
5.301824926e-08
5.859920237e-08
6.469400139e-08
7.157775308e-08
7.948731421e-08
8.846522101e-08
9.901076801e-08
1.123369754e-07
1.274962954e-07
1.424867819e-07
1.375158168e-07
1.077357918e-07
8.520074368e-08
6.84132244e-08
5.299220884e-08
2.887278414e-08
)


100
(
2.376423983e-10
4.233862239e-10
4.875752405e-10
5.311691245e-10
5.64143164e-10
5.925924284e-10
6.208512892e-10
6.540951621e-10
6.977416859e-10
7.534121918e-10
8.143119569e-10
8.87208167e-10
9.71186391e-10
1.044650892e-09
1.12348348e-09
1.209421905e-09
1.290455076e-09
1.358138618e-09
1.428379771e-09
1.501990327e-09
1.577914239e-09
1.631402907e-09
1.693359222e-09
1.765377872e-09
1.851499795e-09