/*--------------------------------*- C++ -*----------------------------------*\
| =========                 |                                                 |
| \\      /  F ield         | OpenFOAM: The Open Source CFD Toolbox           |
|  \\    /   O peration     | Version:  2.3.1                                 |
|   \\  /    A nd           | Web:      www.OpenFOAM.org                      |
|    \\/     M anipulation  |                                                 |
\*---------------------------------------------------------------------------*/
FoamFile
{
    version     2.0;
    format      ascii;
    class       dictionary;
    location    "constant";
    object      CH3O;
}
// * * * * * * * * * * * * * * * * * * * * * * * * * * * * * * * * * * * * * //

CH3O_table
100
(

100
(
3.651182449e-06
7.036504067e-06
1.014699001e-05
1.287826323e-05
1.535226595e-05
1.758601835e-05
1.955546992e-05
2.131721378e-05
2.288846748e-05
2.426851853e-05
2.555724634e-05
2.656183511e-05
2.750920817e-05
2.835219426e-05
2.898080652e-05
2.957667401e-05
3.012600533e-05
3.046136987e-05
3.078138639e-05
3.109149081e-05
3.124233508e-05
3.133878961e-05
3.143148293e-05
3.147110023e-05
3.137374404e-05
3.127649355e-05
3.118160347e-05
3.101935308e-05
3.0766405e-05
3.051809847e-05
3.027459838e-05
2.994433847e-05
2.956585258e-05
2.919415205e-05
2.883081433e-05
2.84326521e-05
2.795418868e-05
2.748619427e-05
2.702769416e-05
2.654496547e-05
2.600125139e-05
2.546762162e-05
2.494504391e-05
2.44029554e-05
2.381217642e-05
2.323290657e-05
2.266570302e-05
2.2106531e-05
2.148488151e-05
2.087530066e-05
2.027632555e-05
1.967680258e-05
1.904207904e-05
1.841717673e-05
1.780301016e-05
1.71796795e-05
1.653951362e-05
1.591256825e-05
1.530210212e-05
1.468820905e-05
1.405434462e-05
1.343719292e-05
1.283800988e-05
1.223229568e-05
1.161857269e-05
1.102337526e-05
1.044721669e-05
9.858609755e-06
9.28067019e-06
8.723224496e-06
8.174966327e-06
7.6262742e-06
7.098849355e-06
6.588938774e-06
6.079941618e-06
5.592701157e-06
5.124564085e-06
4.663130601e-06
4.225789129e-06
3.805311921e-06
3.402300534e-06
3.024614485e-06
2.662767652e-06
2.327744465e-06
2.013195987e-06
1.724787592e-06
1.459259207e-06
1.219489253e-06
1.002606105e-06
8.078128182e-07
6.351721119e-07
4.860255302e-07
3.617304512e-07
2.567648091e-07
1.742336279e-07
1.101665999e-07
6.900722797e-08
3.796477906e-08
1.20737635e-08
1.314134984e-18
)


100
(
3.410785425e-06
6.472834429e-06
9.294327342e-06
1.177888178e-05
1.413546533e-05
1.629947123e-05
1.807582814e-05
1.990167757e-05
2.138320072e-05
2.282455434e-05
2.411471929e-05
2.515129324e-05
2.613178372e-05
2.697429465e-05
2.767315268e-05
2.832022175e-05
2.889139156e-05
2.931809709e-05
2.972846269e-05
3.006929337e-05
3.031951169e-05
3.052339304e-05
3.067644769e-05
3.07806107e-05
3.081323497e-05
3.080677856e-05
3.075364904e-05
3.067192107e-05
3.054792454e-05
3.038222367e-05
3.018177737e-05
2.995433579e-05
2.969580775e-05
2.939378313e-05
2.906854522e-05
2.873599961e-05
2.839031742e-05
2.801082079e-05
2.759657612e-05
2.717500559e-05
2.674775285e-05
2.630430985e-05
2.582383503e-05
2.533982465e-05
2.485221268e-05
2.43598831e-05
2.382947707e-05
2.329947411e-05
2.277166049e-05
2.225244467e-05
2.171114822e-05
2.114830321e-05
2.059109238e-05
2.003949593e-05
1.947773736e-05
1.889462678e-05
1.831734043e-05
1.775354604e-05
1.722144255e-05
1.68107392e-05
1.657155233e-05
1.599995985e-05
1.517978304e-05
1.467921616e-05
1.44188282e-05
1.386294303e-05
1.308575426e-05
1.271798532e-05
1.24233891e-05
1.178554194e-05
1.115852032e-05
1.089594138e-05
1.049606466e-05
9.77911809e-06
9.619491983e-06
9.346762137e-06
8.59745402e-06
8.388360267e-06
8.137994326e-06
7.418751746e-06
7.341552541e-06
6.90858787e-06
6.516740681e-06
6.529461833e-06
5.831756477e-06
5.840480477e-06
5.490591893e-06
5.265579437e-06
5.218042533e-06
4.962316296e-06
4.94357264e-06
4.845122641e-06
4.898843223e-06
4.839211503e-06
4.94577789e-06
4.875478425e-06
4.876998701e-06
4.618283748e-06
2.789345482e-06
1.279600726e-06
)


100
(
3.170632127e-06
5.916117e-06
8.481458143e-06
1.076969052e-05
1.310573638e-05
1.513720959e-05
1.699005452e-05
1.867739544e-05
2.025833045e-05
2.163654606e-05
2.298816231e-05
2.411074582e-05
2.513238243e-05
2.605185097e-05
2.682879845e-05
2.753193213e-05
2.816956626e-05
2.87101118e-05
2.917032677e-05
2.958532782e-05
2.992363978e-05
3.020150678e-05
3.042647245e-05
3.059645978e-05
3.071358122e-05
3.078465963e-05
3.080335663e-05
3.07751135e-05
3.071530275e-05
3.062904345e-05
3.050169941e-05
3.032737096e-05
3.012884778e-05
2.990952982e-05
2.965865373e-05
2.936561761e-05
2.90556103e-05
2.87372546e-05
2.841498704e-05
2.805753502e-05
2.766830906e-05
2.727533427e-05
2.688203829e-05
2.648798002e-05
2.604046591e-05
2.558473134e-05
2.512544501e-05
2.467449737e-05
2.419814708e-05
2.369597149e-05
2.319838973e-05
2.273423157e-05
2.232466145e-05
2.184153909e-05
2.135785442e-05
2.089019376e-05
2.05195145e-05
2.00127813e-05
1.952644494e-05
1.910838036e-05
1.897783343e-05
1.88683491e-05
1.852862691e-05
1.792988269e-05
1.734135288e-05
1.701268778e-05
1.664379547e-05
1.617092859e-05
1.565679818e-05
1.527300921e-05
1.484067149e-05
1.436509021e-05
1.394630111e-05
1.354651099e-05
1.321420457e-05
1.306322722e-05
1.299563985e-05
1.257396854e-05
1.214752973e-05
1.20364065e-05
1.168193495e-05
1.144033588e-05
1.134489892e-05
1.122334026e-05
1.107441082e-05
1.102447925e-05
1.097786591e-05
1.094584351e-05
1.098304275e-05
1.10384616e-05
1.112972006e-05
1.123632111e-05
1.142463005e-05
1.161263153e-05
1.183186764e-05
1.205429626e-05
1.221046771e-05
1.049851583e-05
7.299032736e-06
4.573859241e-06
)


100
(
2.930721818e-06
5.399594895e-06
7.722329808e-06
9.96733432e-06
1.214229451e-05
1.409399776e-05
1.598601214e-05
1.762996917e-05
1.92610574e-05
2.06984591e-05
2.204823916e-05
2.326949953e-05
2.432757333e-05
2.531206346e-05
2.617597235e-05
2.693028804e-05
2.761698158e-05
2.822581006e-05
2.875919738e-05
2.921876993e-05
2.962189691e-05
2.995956027e-05
3.024519644e-05
3.047655308e-05
3.064990523e-05
3.077516968e-05
3.08614875e-05
3.090448464e-05
3.08941408e-05
3.084888954e-05
3.077942105e-05
3.068758219e-05
3.054670942e-05
3.03749554e-05
3.018431476e-05
2.998068324e-05
2.974708153e-05
2.946943748e-05
2.917321542e-05
2.888032418e-05
2.860430084e-05
2.830869839e-05
2.797136514e-05
2.764352907e-05
2.733669031e-05
2.708104191e-05
2.670894746e-05
2.633686662e-05
2.598343616e-05
2.575032506e-05
2.534519892e-05
2.494238365e-05
2.456258661e-05
2.43123265e-05
2.391579247e-05
2.346884107e-05
2.307276702e-05
2.286192198e-05
2.247312452e-05
2.200256059e-05
2.167039747e-05
2.149721268e-05
2.129276514e-05
2.097541066e-05
2.055047832e-05
2.007620382e-05
1.969159721e-05
1.933036932e-05
1.897674068e-05
1.867682028e-05
1.834430694e-05
1.803956718e-05
1.775915373e-05
1.75318379e-05
1.740879097e-05
1.716318735e-05
1.676825536e-05
1.678505744e-05
1.682548843e-05
1.647524387e-05
1.639650008e-05
1.643422178e-05
1.640561629e-05
1.637451854e-05
1.644886755e-05
1.652312744e-05
1.658130624e-05
1.665126525e-05
1.677469625e-05
1.69135529e-05
1.714003129e-05
1.740287623e-05
1.763001132e-05
1.808831831e-05
1.851666496e-05
1.897085227e-05
1.934377262e-05
1.612976045e-05
1.235759216e-05
8.933794696e-06
)


100
(
2.691053531e-06
4.979904015e-06
7.113719982e-06
9.198657381e-06
1.125522854e-05
1.322210277e-05
1.50529085e-05
1.675178355e-05
1.833538876e-05
1.984045847e-05
2.118674338e-05
2.246659783e-05
2.36019932e-05
2.460660532e-05
2.55307529e-05
2.63493582e-05
2.706958666e-05
2.772338886e-05
2.830662593e-05
2.882408553e-05
2.927075803e-05
2.966489453e-05
3.000145774e-05
3.028975079e-05
3.05253784e-05
3.07057647e-05
3.083918063e-05
3.094248271e-05
3.101784748e-05
3.104541589e-05
3.102585731e-05
3.097983554e-05
3.092559753e-05
3.086495793e-05
3.074048692e-05
3.06005282e-05
3.046709929e-05
3.037335641e-05
3.017732152e-05
2.995565137e-05
2.97468075e-05
2.958017334e-05
2.942363716e-05
2.914608051e-05
2.887422201e-05
2.867567933e-05
2.859619721e-05
2.826681092e-05
2.79416831e-05
2.771265296e-05
2.759510507e-05
2.726903577e-05
2.691310884e-05
2.665776737e-05
2.647329979e-05
2.614352455e-05
2.575278216e-05
2.553534906e-05
2.533517677e-05
2.505585664e-05
2.471182392e-05
2.442886398e-05
2.417749666e-05
2.388336114e-05
2.353780981e-05
2.319882599e-05
2.290338315e-05
2.272104238e-05
2.245724814e-05
2.219654691e-05
2.199388669e-05
2.184779144e-05
2.167037236e-05
2.127045828e-05
2.084350936e-05
2.091252123e-05
2.102435713e-05
2.080007653e-05
2.070663891e-05
2.078068622e-05
2.089138031e-05
2.092086539e-05
2.075890936e-05
2.071253537e-05
2.08474036e-05
2.09361232e-05
2.120653078e-05
2.138881485e-05
2.146671003e-05
2.136784496e-05
2.178259407e-05
2.235703284e-05
2.253017314e-05
2.31758232e-05
2.376225342e-05
2.441664246e-05
2.473260277e-05
2.075760128e-05
1.69342603e-05
1.335481192e-05
)


100
(
2.451548261e-06
4.563619797e-06
6.529387823e-06
8.478439233e-06
1.043661898e-05
1.238552529e-05
1.416835478e-05
1.589010232e-05
1.746026895e-05
1.89819713e-05
2.037955152e-05
2.164615665e-05
2.283732648e-05
2.389511672e-05
2.483944257e-05
2.57073958e-05
2.648187603e-05
2.716618541e-05
2.779167456e-05
2.835641716e-05
2.886123894e-05
2.930548716e-05
2.970320687e-05
3.00508573e-05
3.035086889e-05
3.060327212e-05
3.080364777e-05
3.095804323e-05
3.109641153e-05
3.122835717e-05
3.133752962e-05
3.137285448e-05
3.138277174e-05
3.14006997e-05
3.145232995e-05
3.137989882e-05
3.129000501e-05
3.121982005e-05
3.128043928e-05
3.11425538e-05
3.097553941e-05
3.082970179e-05
3.08059276e-05
3.070479843e-05
3.047086522e-05
3.025278347e-05
3.023232688e-05
3.022442729e-05
2.993539785e-05
2.969155576e-05
2.959159604e-05
2.950400833e-05
2.925573105e-05
2.900198746e-05
2.88190656e-05
2.865297891e-05
2.841313895e-05
2.8173181e-05
2.786862562e-05
2.757255932e-05
2.733351864e-05
2.709629828e-05
2.678630813e-05
2.649678932e-05
2.629962737e-05
2.616388226e-05
2.59541961e-05
2.571712881e-05
2.557835155e-05
2.54704713e-05
2.535628888e-05
2.509963647e-05
2.481170103e-05
2.455283025e-05
2.445738813e-05
2.414761701e-05
2.417090881e-05
2.42517938e-05
2.430888784e-05
2.4123122e-05
2.384865719e-05
2.378289776e-05
2.405442885e-05
2.409624244e-05
2.416619527e-05
2.413842979e-05
2.433415221e-05
2.446458939e-05
2.42701664e-05
2.454045401e-05
2.498417345e-05
2.516052312e-05
2.562513926e-05
2.618331489e-05
2.682522057e-05
2.766045529e-05
2.726128299e-05
2.391921771e-05
2.055202783e-05
1.724524393e-05
)


100
(
2.260969434e-06
4.167320547e-06
5.97782419e-06
7.802687946e-06
9.714918815e-06
1.157725671e-05
1.334889404e-05
1.50323453e-05
1.662328137e-05
1.810142167e-05
1.953397612e-05
2.082578428e-05
2.20184954e-05
2.312630272e-05
2.411185688e-05
2.500181189e-05
2.582374159e-05
2.656335107e-05
2.722649009e-05
2.783956128e-05
2.840271474e-05
2.89122632e-05
2.937733707e-05
2.980625461e-05
3.018728496e-05
3.052036983e-05
3.080797985e-05
3.103490181e-05
3.121552472e-05
3.139727093e-05
3.160085128e-05
3.17888192e-05
3.18666453e-05
3.192780811e-05
3.20360853e-05
3.216722128e-05
3.213696691e-05
3.209380483e-05
3.21490241e-05
3.227741846e-05
3.219403156e-05
3.207678311e-05
3.20415963e-05
3.208980981e-05
3.203214412e-05
3.1839007e-05
3.17984287e-05
3.18104293e-05
3.181982511e-05
3.160550118e-05
3.150336729e-05
3.141273069e-05
3.130819235e-05
3.11066128e-05
3.082532311e-05
3.053999607e-05
3.027322147e-05
3.006595072e-05
2.985431942e-05
2.957877796e-05
2.931262631e-05
2.913312206e-05
2.902098967e-05
2.890834677e-05
2.8685045e-05
2.852530109e-05
2.837670108e-05
2.813290128e-05
2.78958986e-05
2.761019191e-05
2.732034949e-05
2.713106882e-05
2.708066587e-05
2.695192132e-05
2.684070717e-05
2.67839619e-05
2.650487208e-05
2.628285941e-05
2.597440165e-05
2.587320282e-05
2.600246244e-05
2.600831544e-05
2.589586306e-05
2.571278989e-05
2.570688979e-05
2.578531876e-05
2.577419424e-05
2.569256619e-05
2.541147565e-05
2.550663269e-05
2.593990928e-05
2.618167134e-05
2.652351167e-05
2.695372725e-05
2.755706805e-05
2.854400388e-05
2.781102366e-05
2.54181372e-05
2.294295723e-05
2.023123627e-05
)


100
(
2.102595362e-06
3.788013253e-06
5.456400017e-06
7.189979654e-06
9.014898855e-06
1.079297915e-05
1.254403391e-05
1.417014929e-05
1.57653137e-05
1.724224573e-05
1.864756542e-05
1.997591941e-05
2.117120605e-05
2.229743251e-05
2.333375095e-05
2.426214443e-05
2.511191038e-05
2.590484353e-05
2.662879527e-05
2.729566804e-05
2.792167497e-05
2.850481165e-05
2.904127086e-05
2.954892433e-05
3.003279671e-05
3.04539584e-05
3.081831442e-05
3.112486086e-05
3.135860895e-05
3.156136141e-05
3.178822808e-05
3.20888142e-05
3.231482927e-05
3.24283628e-05
3.253877919e-05
3.275375859e-05
3.292451351e-05
3.293410998e-05
3.296074629e-05
3.312801785e-05
3.329629262e-05
3.327224985e-05
3.323069838e-05
3.329533556e-05
3.337351986e-05
3.334470609e-05
3.327565039e-05
3.326315624e-05
3.324025819e-05
3.315448413e-05
3.297670881e-05
3.275011115e-05
3.251749154e-05
3.230212316e-05
3.214713227e-05
3.200633694e-05
3.176484742e-05
3.152946792e-05
3.136710812e-05
3.125072822e-05
3.111583936e-05
3.090044948e-05
3.074027198e-05
3.056077573e-05
3.024959677e-05
2.992727397e-05
2.96486444e-05
2.930745751e-05
2.899880892e-05
2.888747574e-05
2.88128112e-05
2.864326083e-05
2.851584177e-05
2.823600757e-05
2.786261138e-05
2.757967617e-05
2.721807753e-05
2.709174518e-05
2.708900109e-05
2.700722009e-05
2.671608081e-05
2.640338197e-05
2.61956555e-05
2.607928819e-05
2.592499969e-05
2.576868163e-05
2.555859039e-05
2.543952406e-05
2.525247393e-05
2.526679877e-05
2.538111328e-05
2.546468507e-05
2.558839975e-05
2.592407489e-05
2.650235087e-05
2.744319492e-05
2.679058255e-05
2.538424469e-05
2.375406034e-05
2.195114963e-05
)


100
(
1.944369362e-06
3.44518568e-06
4.986154309e-06
6.621286236e-06
8.341187454e-06
1.0057652e-05
1.174276426e-05
1.334883831e-05
1.488888148e-05
1.637501804e-05
1.774252576e-05
1.907877059e-05
2.031472252e-05
2.143044261e-05
2.250136198e-05
2.34841979e-05
2.437826392e-05
2.520517498e-05
2.599176861e-05
2.672436856e-05
2.741697333e-05
2.80749625e-05
2.868446922e-05
2.924781952e-05
2.978956163e-05
3.031577129e-05
3.078035236e-05
3.116954017e-05
3.1485004e-05
3.172154051e-05
3.195005185e-05
3.22436213e-05
3.261902837e-05
3.287606516e-05
3.302988584e-05
3.323169523e-05
3.350805924e-05
3.37122024e-05
3.376369717e-05
3.391464119e-05
3.411564938e-05
3.430092094e-05
3.432244929e-05
3.437180918e-05
3.443271072e-05
3.446423593e-05
3.440313263e-05
3.425890609e-05
3.408768101e-05
3.39080885e-05
3.374778163e-05
3.362552048e-05
3.347421297e-05
3.326507686e-05
3.306683302e-05
3.295156649e-05
3.286765488e-05
3.275873487e-05
3.257954671e-05
3.241617995e-05
3.222463594e-05
3.190215542e-05
3.154882246e-05
3.120379832e-05
3.081088738e-05
3.043507135e-05
3.02042366e-05
3.004733642e-05
2.983657933e-05
2.962389434e-05
2.939134716e-05
2.895434729e-05
2.855410018e-05
2.814074546e-05
2.771730246e-05
2.753635944e-05
2.73968765e-05
2.71759889e-05
2.67971191e-05
2.639140887e-05
2.603607296e-05
2.57674892e-05
2.550365375e-05
2.516294776e-05
2.482007466e-05
2.446660967e-05
2.428539375e-05
2.400016707e-05
2.385892828e-05
2.375959522e-05
2.370576923e-05
2.365894193e-05
2.380555836e-05
2.406967434e-05
2.460629434e-05
2.541450624e-05
2.488299596e-05
2.413821021e-05
2.32356082e-05
2.218391545e-05
)


100
(
1.786295363e-06
3.148908757e-06
4.56133713e-06
6.078532136e-06
7.69293987e-06
9.349605434e-06
1.094680388e-05
1.252655023e-05
1.401015408e-05
1.548249141e-05
1.686472841e-05
1.814278226e-05
1.940937774e-05
2.057102824e-05
2.162999453e-05
2.266009611e-05
2.361180002e-05
2.449406685e-05
2.532862298e-05
2.612088855e-05
2.68650039e-05
2.758178763e-05
2.82681362e-05
2.890097072e-05
2.948372241e-05
3.004680887e-05
3.06037138e-05
3.11139573e-05
3.152925884e-05
3.185827669e-05
3.210946876e-05
3.237348041e-05
3.275822332e-05
3.317375037e-05
3.346114235e-05
3.366546801e-05
3.39610263e-05
3.426731557e-05
3.44920155e-05
3.462144244e-05
3.479804399e-05
3.496668283e-05
3.508057565e-05
3.507498411e-05
3.500726566e-05
3.491677196e-05
3.48187178e-05
3.472591046e-05
3.461940712e-05
3.446004603e-05
3.428070344e-05
3.413656053e-05
3.405105842e-05
3.397329695e-05
3.384765279e-05
3.367498285e-05
3.352378751e-05
3.333278913e-05
3.302407782e-05
3.26554412e-05
3.228825109e-05
3.188781963e-05
3.149179732e-05
3.119374942e-05
3.094228623e-05
3.064160952e-05
3.033775942e-05
3.008229487e-05
2.970601927e-05
2.922163303e-05
2.873596798e-05
2.821331069e-05
2.776845947e-05
2.746294856e-05
2.715385237e-05
2.682004429e-05
2.637071668e-05
2.588993046e-05
2.544431645e-05
2.504492651e-05
2.464891433e-05
2.42304906e-05
2.380776879e-05
2.337727766e-05
2.302896098e-05
2.269747304e-05
2.238996201e-05
2.20884347e-05
2.187669195e-05
2.170698754e-05
2.156674535e-05
2.156599663e-05
2.161745476e-05
2.193476717e-05
2.247485367e-05
2.303451083e-05
2.269632473e-05
2.229789769e-05
2.18466957e-05
2.137946139e-05
)


100
(
1.628354156e-06
2.866410455e-06
4.160895755e-06
5.564618914e-06
7.092563161e-06
8.657301332e-06
1.018865225e-05
1.170243352e-05
1.316809472e-05
1.457129862e-05
1.595828574e-05
1.724783771e-05
1.846597876e-05
1.966262864e-05
2.077261084e-05
2.179824474e-05
2.280309678e-05
2.374039057e-05
2.462859564e-05
2.546920465e-05
2.626846163e-05
2.702090642e-05
2.775328142e-05
2.846055381e-05
2.911584292e-05
2.971593435e-05
3.02958274e-05
3.087812729e-05
3.142916933e-05
3.18842609e-05
3.223722709e-05
3.250940078e-05
3.285564452e-05
3.329643236e-05
3.373419696e-05
3.404588468e-05
3.432607533e-05
3.462293305e-05
3.489264092e-05
3.50778942e-05
3.51674903e-05
3.519949838e-05
3.520132068e-05
3.518381281e-05
3.514349768e-05
3.50694259e-05
3.496036812e-05
3.485131029e-05
3.478054259e-05
3.472803584e-05
3.464438393e-05
3.450738286e-05
3.436580314e-05
3.42339655e-05
3.407272777e-05
3.381755341e-05
3.345182209e-05
3.305009221e-05
3.259943812e-05
3.215779654e-05
3.179171585e-05
3.146245587e-05
3.111091805e-05
3.076936559e-05
3.047466768e-05
3.013625712e-05
2.963474777e-05
2.908288196e-05
2.851524788e-05
2.795978426e-05
2.749135619e-05
2.702951435e-05
2.657269598e-05
2.61449273e-05
2.563367153e-05
2.509093659e-05
2.458078671e-05
2.408222601e-05
2.359004796e-05
2.310864045e-05
2.264311926e-05
2.217828487e-05
2.174167532e-05
2.133270848e-05
2.097969801e-05
2.060567016e-05
2.029060173e-05
2.002619231e-05
1.980761985e-05
1.961806547e-05
1.950889305e-05
1.946376286e-05
1.955902487e-05
1.987447648e-05
2.027789076e-05
2.069242244e-05
2.051321007e-05
2.033229536e-05
2.010400266e-05
1.999388835e-05
)


100
(
1.496287467e-06
2.602718798e-06
3.785446956e-06
5.081787305e-06
6.521609162e-06
7.983533451e-06
9.458432061e-06
1.088005263e-05
1.231869564e-05
1.369042959e-05
1.503066317e-05
1.6330934e-05
1.754453412e-05
1.871652163e-05
1.986380673e-05
2.094153892e-05
2.19435688e-05
2.293088422e-05
2.386170112e-05
2.475491698e-05
2.559918262e-05
2.640443015e-05
2.716319391e-05
2.790560172e-05
2.863040842e-05
2.930775596e-05
2.992753869e-05
3.052325096e-05
3.112157343e-05
3.169460241e-05
3.218798168e-05
3.258417773e-05
3.290619599e-05
3.331397743e-05
3.376310018e-05
3.416777998e-05
3.446823776e-05
3.470149393e-05
3.487505376e-05
3.500092181e-05
3.507261926e-05
3.509209818e-05
3.506667717e-05
3.501484911e-05
3.497478457e-05
3.495147421e-05
3.491330794e-05
3.483996935e-05
3.475080645e-05
3.467325645e-05
3.459332246e-05
3.446667079e-05
3.42481677e-05
3.392250264e-05
3.352609249e-05
3.30855151e-05
3.26565211e-05
3.22354963e-05
3.18079031e-05
3.138544343e-05
3.097643763e-05
3.061826015e-05
3.025196805e-05
2.979965238e-05
2.925515909e-05
2.868581192e-05
2.809482606e-05
2.750688442e-05
2.690741958e-05
2.636418462e-05
2.585328404e-05
2.53484991e-05
2.477421522e-05
2.420201506e-05
2.362754955e-05
2.304042954e-05
2.247228358e-05
2.196136479e-05
2.147620836e-05
2.099817684e-05
2.051901736e-05
2.005590003e-05
1.963853921e-05
1.926080615e-05
1.893194612e-05
1.858891452e-05
1.831699279e-05
1.804138057e-05
1.784375246e-05
1.768189436e-05
1.755544799e-05
1.754221543e-05
1.76403066e-05
1.79016724e-05
1.82683531e-05
1.855168771e-05
1.849460337e-05
1.843024055e-05
1.837123816e-05
1.851150506e-05
)


100
(
1.393901876e-06
2.357897372e-06
3.435763825e-06
4.645654203e-06
5.9753144e-06
7.344853778e-06
8.741842345e-06
1.010829582e-05
1.146727417e-05
1.282023064e-05
1.410622144e-05
1.539004119e-05
1.661961912e-05
1.777682903e-05
1.891156958e-05
2.002061638e-05
2.107332859e-05
2.205694154e-05
2.302890013e-05
2.395525189e-05
2.484993315e-05
2.569941975e-05
2.650786477e-05
2.727425737e-05
2.802441371e-05
2.876280321e-05
2.945893455e-05
3.010118536e-05
3.07116138e-05
3.131466805e-05
3.18938095e-05
3.240909902e-05
3.283001157e-05
3.320750789e-05
3.357831826e-05
3.391291348e-05
3.41845187e-05
3.437420041e-05
3.45181106e-05
3.460774243e-05
3.467148117e-05
3.471649575e-05
3.473150745e-05
3.472174664e-05
3.468461757e-05
3.464800188e-05
3.46235408e-05
3.458260202e-05
3.448169045e-05
3.432556857e-05
3.410026076e-05
3.37788869e-05
3.339476538e-05
3.297089607e-05
3.24780611e-05
3.203053355e-05
3.156764096e-05
3.112897012e-05
3.072313e-05
3.030040801e-05
2.982137896e-05
2.933425213e-05
2.877821285e-05
2.818761905e-05
2.75388249e-05
2.684376912e-05
2.624842091e-05
2.565181354e-05
2.507495767e-05
2.448819305e-05
2.389056623e-05
2.33030675e-05
2.270418749e-05
2.20966615e-05
2.150927206e-05
2.095864002e-05
2.042425677e-05
1.991641345e-05
1.941596372e-05
1.891682054e-05
1.845523863e-05
1.80819707e-05
1.773813777e-05
1.738512975e-05
1.704160459e-05
1.675291909e-05
1.651603672e-05
1.628304544e-05
1.610642201e-05
1.596785884e-05
1.587253511e-05
1.583926835e-05
1.592501248e-05
1.61545326e-05
1.652505136e-05
1.669902031e-05
1.672112314e-05
1.671908617e-05
1.675280244e-05
1.705766004e-05
)


100
(
1.291626933e-06
2.141233387e-06
3.124823065e-06
4.233811517e-06
5.455800004e-06
6.74604685e-06
8.042083185e-06
9.356120015e-06
1.063185794e-05
1.194411799e-05
1.321758255e-05
1.44317745e-05
1.566589375e-05
1.683846041e-05
1.794964562e-05
1.905121059e-05
2.012803097e-05
2.115854432e-05
2.212689069e-05
2.308432543e-05
2.400828375e-05
2.490141741e-05
2.575626147e-05
2.656824234e-05
2.734338054e-05
2.809784162e-05
2.884077493e-05
2.95476889e-05
3.020157004e-05
3.081423459e-05
3.139557104e-05
3.193659886e-05
3.240736766e-05
3.278599125e-05
3.311012294e-05
3.338410965e-05
3.360972117e-05
3.379598237e-05
3.392762411e-05
3.402937366e-05
3.411136485e-05
3.416986854e-05
3.421647518e-05
3.425020284e-05
3.424122498e-05
3.420391913e-05
3.412654142e-05
3.399781903e-05
3.379201913e-05
3.348833409e-05
3.307228737e-05
3.264604554e-05
3.219429839e-05
3.173127263e-05
3.125949692e-05
3.078683491e-05
3.027431521e-05
2.983649367e-05
2.935166863e-05
2.884127774e-05
2.828434355e-05
2.762155674e-05
2.693194605e-05
2.630109967e-05
2.5654888e-05
2.497274965e-05
2.429273659e-05
2.366743569e-05
2.307349052e-05
2.248006295e-05
2.187433241e-05
2.12612667e-05
2.066074721e-05
2.007540287e-05
1.952015451e-05
1.899225001e-05
1.847388302e-05
1.7997235e-05
1.753238376e-05
1.709681388e-05
1.672551449e-05
1.63780351e-05
1.60102739e-05
1.567176873e-05
1.542792834e-05
1.520111397e-05
1.493770008e-05
1.473609012e-05
1.460058312e-05
1.448807612e-05
1.44136798e-05
1.439712709e-05
1.449929834e-05
1.47181836e-05
1.499008105e-05
1.512182401e-05
1.520198334e-05
1.522301851e-05
1.528809916e-05
1.582624467e-05
)


100
(
1.18944112e-06
1.948630516e-06
2.838336475e-06
3.8492079e-06
4.973735457e-06
6.171877758e-06
7.381083348e-06
8.619031388e-06
9.850343022e-06
1.106827736e-05
1.231918614e-05
1.352520086e-05
1.468933489e-05
1.586555912e-05
1.699152396e-05
1.806356377e-05
1.913309329e-05
2.01818822e-05
2.119135816e-05
2.215069979e-05
2.309427961e-05
2.401589015e-05
2.490601832e-05
2.576541006e-05
2.657733542e-05
2.736026428e-05
2.811200203e-05
2.884242524e-05
2.953517547e-05
3.016340614e-05
3.073628622e-05
3.125142961e-05
3.170529679e-05
3.209071657e-05
3.239902883e-05
3.264025701e-05
3.286650915e-05
3.304752046e-05
3.320634034e-05
3.333367019e-05
3.342570436e-05
3.350293529e-05
3.356456859e-05
3.358532015e-05
3.357269762e-05
3.349266633e-05
3.330403036e-05
3.303122341e-05
3.268958495e-05
3.227383344e-05
3.183027854e-05
3.132870673e-05
3.078788289e-05
3.033870269e-05
2.987582701e-05
2.937407046e-05
2.886888088e-05
2.830965149e-05
2.767564366e-05
2.709875672e-05
2.647564858e-05
2.583129035e-05
2.507104105e-05
2.42929506e-05
2.36804629e-05
2.302307453e-05
2.238700562e-05
2.175989732e-05
2.113781688e-05
2.052380161e-05
1.990000576e-05
1.928135938e-05
1.871127149e-05
1.820574047e-05
1.7730291e-05
1.727202819e-05
1.68016064e-05
1.633494231e-05
1.590399189e-05
1.551371312e-05
1.515141262e-05
1.484433454e-05
1.453327919e-05
1.427792562e-05
1.402846694e-05
1.377029848e-05
1.357243537e-05
1.342091547e-05
1.330344965e-05
1.31945859e-05
1.312973228e-05
1.31346438e-05
1.322510442e-05
1.339031258e-05
1.360500325e-05
1.375872719e-05
1.3881595e-05
1.391807795e-05
1.400238902e-05
1.459828187e-05
)


100
(
1.087323861e-06
1.770175608e-06
2.574189722e-06
3.491549097e-06
4.530144879e-06
5.624946971e-06
6.76221285e-06
7.900445488e-06
9.08119549e-06
1.024498941e-05
1.141974731e-05
1.260571747e-05
1.375050239e-05
1.486707473e-05
1.599359803e-05
1.707969062e-05
1.811857157e-05
1.915593217e-05
2.018171064e-05
2.117405582e-05
2.212904728e-05
2.305640357e-05
2.397494555e-05
2.485917596e-05
2.571561266e-05
2.652646724e-05
2.729497755e-05
2.802532423e-05
2.871074057e-05
2.934209407e-05
2.990320725e-05
3.03766552e-05
3.081898788e-05
3.119235913e-05
3.151512386e-05
3.178509104e-05
3.199152699e-05
3.219111769e-05
3.237094531e-05
3.251960819e-05
3.263705726e-05
3.272064037e-05
3.273691673e-05
3.272040654e-05
3.262092709e-05
3.243426243e-05
3.215701714e-05
3.179534081e-05
3.127883394e-05
3.083995723e-05
3.036907216e-05
2.988686227e-05
2.936898733e-05
2.883993453e-05
2.828151689e-05
2.777553627e-05
2.721217986e-05
2.661869105e-05
2.599444156e-05
2.521288964e-05
2.451996195e-05
2.389073046e-05
2.317992029e-05
2.24522772e-05
2.174342525e-05
2.108049062e-05
2.047149022e-05
1.987863125e-05
1.92810354e-05
1.868078625e-05
1.810533716e-05
1.756133566e-05
1.704934036e-05
1.658011861e-05
1.611881471e-05
1.565985505e-05
1.521647177e-05
1.483231363e-05
1.447832864e-05
1.415347082e-05
1.382126468e-05
1.351377345e-05
1.324325695e-05
1.30041755e-05
1.279433495e-05
1.258337861e-05
1.241179177e-05
1.227159734e-05
1.21586096e-05
1.20661522e-05
1.199836783e-05
1.199016584e-05
1.204967943e-05
1.219636785e-05
1.240694616e-05
1.256028924e-05
1.272304765e-05
1.278249758e-05
1.287792829e-05
1.35132566e-05
)


100
(
1.006382094e-06
1.606373579e-06
2.331427801e-06
3.167124649e-06
4.114429987e-06
5.113109976e-06
6.170077108e-06
7.235445789e-06
8.328694664e-06
9.448130879e-06
1.055121488e-05
1.168154684e-05
1.280784688e-05
1.38970163e-05
1.497008569e-05
1.60527753e-05
1.710430346e-05
1.811579466e-05
1.912119687e-05
2.012891002e-05
2.110791227e-05
2.20585021e-05
2.296468583e-05
2.387738352e-05
2.4747988e-05
2.558472552e-05
2.637136597e-05
2.708411254e-05
2.775875019e-05
2.837080035e-05
2.891862582e-05
2.940115481e-05
2.979680517e-05
3.016160602e-05
3.050313293e-05
3.080172413e-05
3.105435166e-05
3.126459729e-05
3.142451566e-05
3.158727986e-05
3.170581184e-05
3.175793797e-05
3.17394305e-05
3.162270403e-05
3.137207703e-05
3.107115133e-05
3.072171314e-05
3.031470638e-05
2.985266535e-05
2.931237439e-05
2.873148037e-05
2.827503652e-05
2.776451117e-05
2.721811296e-05
2.664567753e-05
2.60572003e-05
2.535975722e-05
2.474890641e-05
2.410709969e-05
2.339854882e-05
2.262472358e-05
2.185285385e-05
2.124612572e-05
2.05805988e-05
1.995050635e-05
1.93418382e-05
1.873727789e-05
1.81412797e-05
1.754474648e-05
1.696998293e-05
1.642835833e-05
1.591946959e-05
1.548832046e-05
1.507224615e-05
1.465812505e-05
1.425479149e-05
1.387958395e-05
1.354273806e-05
1.320089937e-05
1.286706128e-05
1.25841146e-05
1.234187572e-05
1.213582354e-05
1.189843041e-05
1.168096932e-05
1.15018014e-05
1.136299614e-05
1.124397061e-05
1.11392178e-05
1.104954168e-05
1.099697782e-05
1.100052059e-05
1.10476247e-05
1.116712539e-05
1.135216972e-05
1.150890516e-05
1.167879715e-05
1.178010295e-05
1.189791961e-05
1.262980389e-05
)


100
(
9.398264131e-07
1.457714938e-06
2.110682602e-06
2.870085257e-06
3.727313654e-06
4.647552828e-06
5.60626201e-06
6.605266652e-06
7.607588239e-06
8.666883238e-06
9.728757515e-06
1.07683161e-05
1.185818182e-05
1.293176228e-05
1.397039825e-05
1.500222453e-05
1.604660322e-05
1.706675479e-05
1.805745972e-05
1.903057922e-05
2.00241018e-05
2.098848083e-05
2.192770141e-05
2.282277888e-05
2.369605012e-05
2.453454682e-05
2.53202662e-05
2.604143744e-05
2.669145932e-05
2.726324735e-05
2.780432029e-05
2.828417987e-05
2.871667298e-05
2.908246732e-05
2.938537659e-05
2.971617108e-05
3.000548705e-05
3.02364501e-05
3.042365126e-05
3.055128688e-05
3.058203643e-05
3.057826511e-05
3.047962607e-05
3.028625024e-05
3.00062645e-05
2.959532975e-05
2.905680148e-05
2.865881789e-05
2.821790538e-05
2.770637925e-05
2.715512014e-05
2.657209142e-05
2.596720642e-05
2.54294062e-05
2.48639417e-05
2.426841248e-05
2.358075631e-05
2.277468891e-05
2.211856067e-05
2.149079166e-05
2.075829673e-05
2.005854915e-05
1.938803381e-05
1.876215812e-05
1.815890623e-05
1.759398184e-05
1.702837724e-05
1.646397275e-05
1.593808661e-05
1.543656952e-05
1.496467916e-05
1.452812887e-05
1.410472731e-05
1.369169408e-05
1.330144168e-05
1.293151705e-05
1.262544211e-05
1.234401277e-05
1.205732347e-05
1.176750891e-05
1.151059818e-05
1.127298683e-05
1.107323358e-05
1.088396984e-05
1.07033545e-05
1.055479835e-05
1.042198701e-05
1.030768798e-05
1.021338193e-05
1.012563961e-05
1.007512441e-05
1.006676101e-05
1.011065732e-05
1.019143052e-05
1.036295264e-05
1.057387459e-05
1.075426623e-05
1.087694647e-05
1.102455728e-05
1.183370593e-05
)


100
(
8.733281705e-07
1.328099897e-06
1.912963989e-06
2.596855294e-06
3.369425147e-06
4.211734363e-06
5.083326599e-06
6.003771395e-06
6.944596305e-06
7.904784722e-06
8.918628891e-06
9.924205906e-06
1.091067288e-05
1.195517944e-05
1.298190509e-05
1.397638394e-05
1.496665348e-05
1.597785981e-05
1.697078404e-05
1.794300681e-05
1.88838575e-05
1.986051367e-05
2.080353625e-05
2.171699442e-05
2.258110408e-05
2.337875371e-05
2.41579064e-05