/*--------------------------------*- C++ -*----------------------------------*\
| =========                 |                                                 |
| \\      /  F ield         | OpenFOAM: The Open Source CFD Toolbox           |
|  \\    /   O peration     | Version:  2.3.1                                 |
|   \\  /    A nd           | Web:      www.OpenFOAM.org                      |
|    \\/     M anipulation  |                                                 |
\*---------------------------------------------------------------------------*/
FoamFile
{
    version     2.0;
    format      ascii;
    class       dictionary;
    location    "constant";
    object      CH3OCH3;
}
// * * * * * * * * * * * * * * * * * * * * * * * * * * * * * * * * * * * * * //

CH3OCH3_table
100
(

100
(
0.000871035613
0.001794154414
0.002721117831
0.00363982988
0.004559531098
0.005536227053
0.006492675134
0.007467300296
0.008443064859
0.009468298112
0.01045027839
0.01153807425
0.01257217778
0.01358914301
0.01466586442
0.0156943038
0.01668914625
0.0177541645
0.01878156967
0.01977518694
0.02082565215
0.02187683076
0.02290131935
0.02392945286
0.02501193576
0.02606879902
0.02709981676
0.02814457314
0.02921710141
0.03026586026
0.03129187049
0.03235954931
0.03344276803
0.03450374825
0.03554159797
0.03657889165
0.03763956775
0.03867671914
0.03969106403
0.04070542331
0.04174452989
0.04276163979
0.04375665497
0.04475503302
0.04578089952
0.0467858636
0.0477699553
0.04873605813
0.04972837812
0.05070158819
0.05165717199
0.05260655613
0.05358324131
0.05454383352
0.05548764898
0.05644123656
0.05741379699
0.05836834129
0.05930401262
0.06023568522
0.06117370996
0.0620925654
0.06299151124
0.0638874451
0.06478114344
0.06565472401
0.06650770452
0.06736523534
0.06820817794
0.0690303329
0.06984134088
0.07064875858
0.07143514189
0.0722038151
0.07297055888
0.0737158767
0.07444333073
0.07516406676
0.07586242128
0.07654555959
0.07721285994
0.07785688982
0.07848711341
0.07909238515
0.07967898447
0.08024071141
0.08078040489
0.08129410132
0.08178242699
0.08224337221
0.08267617796
0.08307917193
0.08345008485
0.0837874992
0.08408883837
0.08435366575
0.08457500055
0.08475277506
0.08488222479
0.08490061087
)


100
(
0.0008070110084
0.001657266691
0.002508887615
0.003360056883
0.004229922421
0.00514648445
0.006030763803
0.006972551463
0.007882089196
0.008859024839
0.009813415791
0.01080093645
0.01181425872
0.01278470489
0.01377541702
0.01478939471
0.01575804067
0.01670673878
0.01772499274
0.0187058165
0.01965846314
0.02065814837
0.02167179534
0.02265852341
0.02362597179
0.02466735889
0.02568645927
0.0266811347
0.02764194928
0.02868822869
0.02970332049
0.03069807957
0.03167900503
0.03272184056
0.03374818194
0.03475363679
0.03572239801
0.03671503825
0.03773385029
0.03871668316
0.039669008
0.04061778334
0.04161020691
0.0425731364
0.04351587711
0.04444262566
0.04541732936
0.04637273006
0.04730606423
0.04820812686
0.04913174161
0.0500754324
0.05098853012
0.05187822415
0.05277737672
0.05370052093
0.05460143815
0.05548500855
0.05637742864
0.05728008679
0.05818327302
0.05899663358
0.05985767659
0.0607732311
0.06162165679
0.06238846851
0.06320974772
0.06411220374
0.06484718637
0.06560470626
0.06641352227
0.06720793177
0.06787698116
0.06862098094
0.06939010305
0.07004127341
0.07071099165
0.07144051619
0.072062469
0.07269522222
0.07335149205
0.07392946839
0.07452372395
0.0750866715
0.07563135716
0.07615971641
0.07666428721
0.0771392519
0.07758714891
0.07801998806
0.07841248325
0.07877161743
0.07908675345
0.07938932023
0.07963469689
0.07988176408
0.08008277987
0.08034681271
0.08162631238
0.08276618464
)


100
(
0.0007430527528
0.00152719844
0.002306675262
0.003090480053
0.003923328685
0.004769951302
0.005624075933
0.006487216243
0.007372375306
0.008258997324
0.009193462647
0.01010921189
0.01106478362
0.0120174824
0.01293541883
0.01388572035
0.01484449384
0.01576560276
0.01666427073
0.01763948428
0.01858445257
0.019501911
0.02044344747
0.02142255274
0.02237470823
0.02330501976
0.02427685748
0.02526280983
0.0262247781
0.02715781232
0.02811310877
0.02910371398
0.03006628001
0.03100967253
0.03196246161
0.03295377364
0.03392710205
0.03487563828
0.03579106244
0.03673582097
0.03769759455
0.03862507169
0.039527127
0.04040773274
0.04135020652
0.04226337608
0.0431569129
0.04403277264
0.04493528149
0.04584635412
0.04673721195
0.0476068787
0.04844155204
0.04934259894
0.05021898886
0.05108598972
0.05186541555
0.05276142828
0.05361910329
0.05446798585
0.05523389296
0.05611590484
0.05686791653
0.05764314468
0.05848790604
0.05932340183
0.06004609477
0.06076944815
0.06161834097
0.06233810047
0.06304391148
0.06374107566
0.0645010619
0.06517671098
0.06581832892
0.0664596881
0.06712478318
0.0677282179
0.0683182476
0.06893696639
0.06950215329
0.07007842751
0.07056142326
0.07110765604
0.0715949095
0.07203739233
0.07250144759
0.07290778087
0.07328268146
0.07363678926
0.07395909845
0.0742550285
0.07449347412
0.07471112622
0.07489153501
0.07503941256
0.0751751525
0.07594498784
0.07785961077
0.07948316092
)


100
(
0.0006791602304
0.001404320183
0.00211379337
0.002854187083
0.003625711429
0.004405175478
0.005225278903
0.006015813076
0.006870640401
0.007710356996
0.008582702999
0.009469244366
0.01033333014
0.01125639192
0.0121560233
0.01302264024
0.0139306638
0.01484129476
0.01571907916
0.01656848638
0.01750637731
0.01841693455
0.01930189338
0.0201824834
0.02112709443
0.0220457293
0.0229430353
0.02384252357
0.02479304953
0.02572399409
0.02663230311
0.02751323187
0.02845722889
0.02939173033
0.03030355057
0.03119921087
0.03211547831
0.03305618481
0.03397737535
0.03487217464
0.03573395312
0.03661560492
0.03752898153
0.03841190958
0.03927786609
0.04008208766
0.04098509856
0.04185473544
0.04271643782
0.04346961947
0.04436633925
0.04523352533
0.04608541792
0.04682350419
0.04766654308
0.04853004058
0.04936153492
0.05005159651
0.05086848446
0.0517248865
0.05247983985
0.05317892038
0.05398914847
0.05472019171
0.05544331181
0.05618336787
0.05695898759
0.05767178404
0.0583670154
0.05904383946
0.05975434926
0.0604325376
0.06108842081
0.06170638047
0.06231544015
0.06293915384
0.06357436195
0.06410297666
0.0646214065
0.06523256611
0.06573678893
0.06620871417
0.0667016759
0.06716348096
0.06758622188
0.06797615541
0.06835618394
0.06871211058
0.06904707254
0.06933745311
0.06958354656
0.06981360793
0.07001916108
0.07014966875
0.07024936965
0.07031807916
0.07040462735
0.07183491641
0.07395665444
0.07586822703
)


100
(
0.0006153327796
0.001293412189
0.001946014094
0.002626238773
0.003340485983
0.00408121318
0.004838044663
0.005601136819
0.00637784733
0.007193700743
0.007985725921
0.00884177149
0.009678792588
0.01050535032
0.01138307037
0.01223310949
0.01305293706
0.01391726509
0.01478511634
0.01562503146
0.01644045642
0.01732802212
0.01820602976
0.01905975132
0.01988978802
0.02078688965
0.02167418744
0.02254049676
0.0233886038
0.02428046419
0.02518078812
0.02606145216
0.0269180055
0.02775922022
0.02867434325
0.02956240737
0.03043684077
0.03125084302
0.03216318691
0.03305701976
0.03392512078
0.03474821503
0.03554375352
0.0364268202
0.0372868144
0.03809637006
0.03878416738
0.03967407283
0.0405253293
0.04130747254
0.04199694937
0.04284291184
0.04368891353
0.04445231976
0.045151334
0.04595058551
0.04678981814
0.04749628994
0.04819584381
0.04893791013
0.04971177863
0.0504199918
0.05110024853
0.05179904732
0.0525189619
0.05321494846
0.05389515821
0.05452699309
0.05521158146
0.05588022864
0.05651706124
0.05712065019
0.05770434844
0.05833154106
0.05895833148
0.0594874135
0.0599909112
0.06056408206
0.06109332858
0.06156734187
0.06201130525
0.06246423138
0.06292671627
0.06333240462
0.0636951602
0.06406806751
0.06436225392
0.06464906431
0.06492812248
0.06517599743
0.06539613434
0.06553867321
0.06570199184
0.06576967216
0.06579898264
0.06579500746
0.06597174064
0.067921322
0.07014257027
0.07221612526
)


100
(
0.0005515488061
0.001185848505
0.001785584373
0.002410331524
0.003067937855
0.003769069971
0.004462188137
0.005195286651
0.005912889701
0.006686760049
0.007456896578
0.008223885902
0.009037956468
0.009827891515
0.01062014165
0.01145011501
0.01225452522
0.01303233293
0.01385117832
0.01468110533
0.01548860083
0.01627387889
0.01710477818
0.01795091665
0.01877351085
0.01957380765
0.02040022744
0.02125674162
0.02209936797
0.0229261556
0.02374154248
0.02461821966
0.02547551743
0.02630888219
0.02707083608
0.02795537909
0.02881387213
0.02966557406
0.03035645777
0.03123865702
0.03209774322
0.03293251527
0.03365133469
0.03441737876
0.03527329894
0.03611474744
0.03679604168
0.03745211575
0.03832410417
0.03912770442
0.03982050746
0.04049890637
0.04128467087
0.04205245459
0.04275761351
0.04344136163
0.04417836511
0.04488031665
0.04560733096
0.04631061898
0.04697395744
0.04763965945
0.04834936248
0.04903136211
0.04966953825
0.05027489256
0.05091550123
0.05157041042
0.05217839099
0.05277195697
0.05333375977
0.0539333082
0.05451408483
0.05507448852
0.05554798326
0.05612302233
0.05662357918
0.05710270635
0.0575420255
0.0579987677
0.0584760639
0.05889318302
0.05920708526
0.05960295708
0.05992366256
0.06022755118
0.06050280178
0.06075792504
0.06098528242
0.06119868025
0.06135441655
0.0614720952
0.06156133608
0.06157126303
0.06155237976
0.06148846002
0.06203769347
0.06414313618
0.06642806713
0.06858355447
)


100
(
0.0005008877374
0.001083228513
0.001633587428
0.00220537236
0.00282634245
0.003469328489
0.00412404883
0.004801033696
0.005492929777
0.006188733087
0.00693678437
0.007663208607
0.008408066021
0.009175919829
0.009921567418
0.0106769491
0.01146239741
0.01222521837
0.01296497408
0.01373686468
0.01453339238
0.01530990252
0.01606486362
0.01683396149
0.01764805288
0.01844001118
0.01920934779
0.02001010898
0.02084223762
0.02165524277
0.02243059317
0.02317730948
0.02402639561
0.02485237569
0.02561983053
0.02632846446
0.02718398195
0.02802178252
0.02876897878
0.02942799696
0.03026918721
0.03109745581
0.03184730599
0.03251713048
0.03325340978
0.03409921899
0.0347985792
0.03547455612
0.03611312604
0.03693088942
0.03761790572
0.03829693963
0.03895043535
0.03963595574
0.04035811396
0.04105505059
0.04173512614
0.04238179478
0.0430357984
0.04372653733
0.04440482395
0.04504423398
0.0456537272
0.04623233512
0.04689052657
0.04750355113
0.04808721734
0.0486710629
0.04919897003
0.04978194748
0.0503571498
0.05088914636
0.05135976448
0.05186891118
0.05237904738
0.05283112764
0.05330840215
0.05374311891
0.05422012861
0.05462780593
0.05496244211
0.05534682721
0.05569323029
0.05601573418
0.05631355927
0.05658294337
0.05681403539
0.05703666824
0.05724096986
0.05739997718
0.05750071553
0.05759224639
0.05761027463
0.05758489561
0.05750704037
0.05738159957
0.05829284304
0.06049839673
0.06268259439
0.06493022031
)


100
(
0.0004588645828
0.0009853780867
0.001488979594
0.00201814408
0.002594262984
0.00318184385
0.003803723196
0.004418491813
0.005082936007
0.005740600475
0.006425965564
0.007132023134
0.00781632796
0.008535198781
0.009259294389
0.00996320169
0.0106792212
0.01142390886
0.01214802625
0.01285374382
0.01357691027
0.01434077512
0.01508492337
0.01580753463
0.01651247538
0.01729271948
0.01805253569
0.01879161446
0.01957603318
0.02037868871
0.02116775701
0.02183894424
0.02257412927
0.0233932966
0.02418956555
0.02486012467
0.02554886468
0.02637857177
0.02717142091
0.02782640491
0.02846750739
0.0292606259
0.03003508327
0.03070506752
0.03134911701
0.03206409441
0.03279112383
0.03345394253
0.03410269442
0.03474220643
0.03541754541
0.03611476021
0.03679325261
0.03745893206
0.03807399418
0.03866369039
0.03935094092
0.04000986816
0.04062839275
0.04122454532
0.04180587834
0.04245268374
0.04305673302
0.04364069512
0.04422300037
0.04476590466
0.04530246243
0.04588459259
0.04645057129
0.04692389453
0.04737729504
0.04789072843
0.04836730039
0.04884087272
0.04929141921
0.04970626246
0.05018281799
0.05056822791
0.05090719288
0.05128143399
0.05164246676
0.05197709531
0.05229330365
0.05258647053
0.05284847932
0.05306452554
0.0532876667
0.05348031147
0.05364160487
0.05374052122
0.05380771194
0.05384130519
0.05383684685
0.0537702838
0.0536404697
0.05350132241
0.05472648216
0.056906663
0.05907619343
0.06125761254
)


100
(
0.0004168811034
0.0008947016812
0.001356363725
0.001845644322
0.00237387103
0.002922359659
0.003496104641
0.004078646312
0.004683966306
0.005317402757
0.00593962213
0.006610204747
0.007274819871
0.0079184287
0.008607792712
0.009290649485
0.009955563136
0.010627837
0.01133296797
0.01202393364
0.01269720942
0.01336804612
0.0140993319
0.01481244243
0.01550392634
0.01616809418
0.01689136557
0.01762231085
0.01833410482
0.0191024187
0.01988046071
0.02060989568
0.02121488703
0.02193319036
0.02272373972
0.02343812963
0.0240656191
0.02473194534
0.02554239997
0.02621592444
0.02685453116
0.02746879944
0.02821054967
0.02888194726
0.02952191597
0.03014023247
0.0307780349
0.03145557269
0.03212383851
0.03277681837
0.03340575029
0.03399219271
0.03460450712
0.03526251547
0.0359101608
0.03649829828
0.03707273991
0.03762407975
0.03823787933
0.03883372651
0.03939922697
0.03997402108
0.04051322017
0.04105438241
0.04162851144
0.04218265019
0.04267809838
0.04313527744
0.04362435023
0.04413227831
0.04458897293
0.04506485037
0.04545979893
0.04590788134
0.04637735039
0.04672873737
0.04705661639
0.04743020127
0.04779104245
0.04812610011
0.04844286627
0.0487439785
0.0490216738
0.04925833879
0.04949034757
0.0497146747
0.04990066462
0.05005974075
0.05013942758
0.0502161884
0.05025482002
0.05026243843
0.05018872749
0.05006658192
0.04991787893
0.04982544056
0.05127217298
0.05341258979
0.05556405707
0.05772986253
)


100
(
0.0003749385568
0.0008133226833
0.001235720978
0.001682317686
0.00216424658
0.002680294366
0.003200731993
0.003753958366
0.004305482373
0.004905173252
0.005505011019
0.006097349623
0.00674226564
0.00736661733
0.007971411396
0.008627827896
0.009271571229
0.009896458788
0.0105248519
0.01119603476
0.01185524144
0.01249841399
0.01311699188
0.01381495954
0.01449832205
0.01516209557
0.01579852412
0.01645247217
0.01715636682
0.01784209344
0.01859549945
0.01934987655
0.01997634308
0.02056134507
0.02125630731
0.02201071859
0.02263379616
0.0232370061
0.02388372109
0.02460091935
0.02522449759
0.02583659056
0.02642019159
0.02706416399
0.02772426681
0.02836083661
0.02898146875
0.02956676465
0.03014056011
0.0307819331
0.03140847939
0.03201208099
0.03258033245
0.03312973787
0.03369033644
0.03431203406
0.03487897067
0.03543192121
0.03598128492
0.03649777758
0.0370207845
0.03758700724
0.03813579182
0.03861786048
0.03907384572
0.03956524106
0.04007660465
0.04053131087
0.04099263858
0.04142852244
0.04184599125
0.04231804413
0.04273490627
0.04307449071
0.04340604174
0.04378356403
0.04413257352
0.04445923672
0.0447732297
0.04507259795
0.04534881485
0.0455930456
0.04584592114
0.04608437228
0.04628285872
0.04645222031
0.04658427815
0.0466741625
0.04676657184
0.04680040586
0.04681473765
0.04674742289
0.0466752902
0.04649613914
0.04629935963
0.04629467379
0.0479754151
0.05005522692
0.05218409664
0.05436875747
)


100
(
0.000333031979
0.0007357803402
0.001121724641
0.001528654404
0.001975798813
0.002449531358
0.002933080101
0.00344241154
0.00396668145
0.004504108285
0.005080679344
0.005646455564
0.006217643112
0.006823848487
0.007409822042
0.007976126215
0.008597330149
0.009203519524
0.009794255746
0.01037629604
0.01101726903
0.01164834706
0.01226270302
0.01285274638
0.01349351277
0.01414945606
0.01478693682
0.01539734042
0.01599139189
0.01665822223
0.01731390809
0.01805263519
0.01873300394
0.0193101326
0.01987225285
0.02054239741
0.02119652018
0.02179265296
0.02237016874
0.02296676768
0.02359535886
0.02422579272
0.0248388807
0.02543136152
0.02597436657
0.02657028257
0.02718516432
0.02778638645
0.02834059121
0.02887793719
0.02940505367
0.03000743629
0.03058210861
0.03113060486
0.031658955
0.03218270701
0.03268001022
0.03324286173
0.0337886027
0.03431627372
0.03478932714
0.03522614227
0.03571696782
0.03623083282
0.03667734503
0.03710479327
0.03755778359
0.03797580079
0.03844544704
0.03889868252
0.0392386468
0.03955910721
0.03996677947
0.04031290875
0.04065122711
0.04096326913
0.04127365256
0.04156512855
0.04183529881
0.04209085363
0.04235061583
0.04258628844
0.04279871811
0.04298514758
0.04313264108
0.04323798987
0.04337694875
0.04344971395
0.04347379337
0.04348213158
0.04342800483
0.04335086271
0.0432045993
0.04299734187
0.04275547298
0.0430531776
0.04486722877
0.04690216453
0.04899359233
0.05113353472
)


100
(
0.0002981291025
0.0006629793179
0.001014550551
0.001384824573
0.001799904309
0.002230217875
0.002685234602
0.003143195717
0.003640629452
0.004140889749
0.00466677163
0.005211049916
0.00574281288
0.006289028457
0.006857751789
0.007406860935
0.007933382712
0.008519117942
0.009092531312
0.00965263412
0.01019201423
0.01080322296
0.01140658135
0.01199362011
0.0125587562
0.01313958028
0.01376878125
0.01438015142
0.01496577574
0.01553643531
0.01612401178
0.01676248745
0.01748157671
0.01805429424
0.01861277968
0.01914976613
0.01975143546
0.02034293254
0.02093779262
0.02151451796
0.02206236819
0.02263698165
0.02323646121
0.02382343934
0.02438850243
0.0249109368
0.02541271948
0.02597428794
0.02655825772
0.02708599878
0.02760134603
0.02810416646
0.02858973852
0.02912705666
0.02966696621
0.03019147752
0.03070163855
0.03113793874
0.03157678479
0.03210297901
0.03259533962
0.03303609659
0.03345337554
0.03386417612
0.03430188206
0.03476534639
0.03520912295
0.0355641591
0.03587933172
0.03633415248
0.0366767298
0.03700145661
0.03732532663
0.03763478706
0.03793302367
0.03821161706
0.03848613333
0.03877012243
0.03902855655
0.03926111238
0.03946731635
0.03965000033
0.03980753277
0.03993873917
0.04008892068
0.04018890095
0.04027055584
0.04027078196
0.04030027886
0.04024680282
0.04016697767
0.04003529568
0.03984423025
0.03960875833
0.03932489396
0.04002430956
0.04192457722
0.04386657513
0.04590962467
0.04804824082
)


100
(
0.0002712597813
0.0005950438537
0.0009139228297
0.001257075927
0.001634097211
0.00202885319
0.002449137922
0.002877136802
0.00332730644
0.00380206247
0.004276090099
0.004786167576
0.005297861519
0.005795553448
0.006312962611
0.006845571134
0.007360668183
0.007852074172
0.008401164132
0.00894648324
0.009477920355
0.009992722189
0.0105578438
0.01113502486
0.01169599978
0.01223718288
0.01276637976
0.01335773683
0.01394302068
0.01450675181
0.01505425633
0.01558831347
0.0161771551
0.01680026799
0.01734643927
0.01788765051
0.01842998608
0.01895189189
0.01953686121
0.02010355444
0.02065572222
0.02117156706
0.02166473852
0.02221380832
0.02277485799
0.02331249573
0.02381563889
0.02430203026
0.02477138926
0.0252832524
0.02578872032
0.0263054972
0.02680644804
0.02727678293
0.02767848399
0.02818717987
0.02869461922
0.02915859119
0.02957725859
0.02998297554
0.03037461488
0.03083558018
0.03129108369
0.03172838187
0.03208948644
0.03239886528
0.03284566494
0.03322177839
0.03353492775
0.03383457299
0.03414769031
0.03446449393
0.03477728879
0.03507338916
0.03536015209
0.03563713931
0.03587982373
0.03609283081
0.03629492219
0.03647211603
0.03663501747
0.03680859839
0.03695903649
0.03707391865
0.03714747025
0.03718147458
0.0372458667
0.03726083293
0.03720105346
0.0371040604
0.03697255535
0.03682750164
0.03660661954
0.03631499396
0.03608048027
0.03717328366
0.03901500807
0.04089181277
0.04287078945
0.04495802531
)


100
(
0.0002444203029
0.0005337507092
0.0008242729674
0.001136720645
0.001478391078
0.001845607234
0.002224518208
0.002626879625
0.003032623698
0.003476716959
0.003925918793
0.004373268357
0.004862991485
0.005341577218
0.005804797108
0.006292641709
0.006792699734
0.007277786495
0.007738731975
0.008250292796
0.008770976385
0.009276744722
0.009767998612
0.01028427803
0.01083578655
0.01137200479
0.01188967442
0.01239585992
0.01291894844
0.01347922814
0.0140198026
0.01454444586
0.01505666391
0.01555845787
0.01611959268
0.0166684421
0.01720304469
0.0177190244
0.01819412085
0.01869527777
0.01923966057
0.01977061453
0.02025839939
0.02072862551
0.02118942258
0.02170263039
0.02220903938
0.02269075524
0.02315659996
0.02362436016
0.02404904855
0.0245199121
0.02501003567
0.02549375161
0.02591368483
0.02630564868
0.02668218995
0.02716984093
0.02758274509
0.02799015024
0.02841960767
0.02877784194
0.02913896317
0.02957524647
0.029969073
0.03027007639
0.03055426737
0.03086569201
0.0311961658
0.03150732884
0.03179997559
0.03208011563
0.03236126189
0.03262262334
0.03286362057
0.03307539399
0.03326327525
0.03347825572
0.03366960287
0.03385010755
0.03399734904
0.03411038353
0.03418572294
0.0342400039
0.03432847501
0.03438774758
0.03436176453
0.0342927399
0.03419023515
0.03411345881
0.03396755437
0.03378741892
0.03349990126
0.03322229497
0.03306540286
0.03434657114
0.03611887188
0.0379378522
0.03982710304
0.04190955529
)


100
(
0.0002176052253
0.0004784106385
0.0007412780869
0.001024660712
0.001336404821
0.001672848241
0.00201920245
0.002388831052
0.00277042807
0.003163648714
0.003589741222
0.004013065236
0.00443919524
0.004898175027
0.00534542465
0.005775800371
0.006233799532
0.006704903106
0.007161488925
0.007598113601
0.008071266298
0.008569199611
0.009050735553
0.009519186785
0.009984738781
0.01050967673
0.01102070167
0.0115169684
0.01200076699
0.01247266313
0.01298539025
0.01350037017
0.01400994941
0.01450497968
0.01497936828
0.01544929036
0.01597397059
0.01648551039
0.01697870877
0.01743082553
0.01786684543
0.01834939803
0.01885913594
0.01932288195
0.0197713805
0.02020746898
0.02062977106
0.0210936206
0.02156684777
0.02202704154
0.02246947638
0.02285692998
0.02322068016
0.02368743769
0.02414410677
0.02453056318
0.02490580377
0.02526306385
0.02562794587
0.02606165825
0.02647773333
0.02687481273
0.02715948429
0.02742578703
0.02783088407
0.02813645994
0.02842907845
0.02871582206
0.02898434657
0.02925671294
0.02951160678
0.02974916983
0.02998248862
0.03023448924
0.03046130833
0.03066908691
0.03085674682
0.03102514442
0.03117386508
0.03128327772
0.03135890742
0.03148637773
0.03156922536
0.03163601387
0.03163490144
0.03158683476
0.03156480211
0.03149721974
0.03140928884
0.03125445896
0.03109805813
0.03083464734
0.03058381551
0.03020264096
0.03014166322
0.03155707755
0.03325254392
0.03499846186
0.03681542431
0.03880901354
)


100
(
0.0001908093401
0.0004269805919
0.0006644208656
0.0009203237174
0.00120757432
0.00151063508
0.001832413071
0.002162469727
0.002520406445
0.002883851068
0.003266180406
0.003667437093
0.004064031152
0.004466370451
0.004895973818
0.005314196689
0.005714888503
0.006141546082
0.006586833032
0.007017920941
0.007433781361
0.007866585499
0.008342488752
0.008801463351
0.009247283307
0.009687792291
0.01015794322
0.01064440574
0.01111816019
0.01157816694
0.01202891311
0.01247074748
0.01296685929
0.01345142892
0.01392532479
0.01437193118
0.01478808745
0.01525257804
0.01574191308
0.0162110938
0.01664343383
0.01706057449
0.01746402786
0.01791785642
0.0183560599
0.01879433514
0.01922451956
0.01963838815
0.01999029699
0.02042783649
0.0208655752
0.0212813939
0.02164232606
0.02199047221
0.02234296089
0.02275020939
0.02313774436
0.02353108712
0.0239040083
0.02418533425
0.02453317494
0.02493184081
0.0252463003
0.02551377134
0.02576218149
0.02602866627
0.02631168797
0.02659192683
0.02685696556
0.02710735461
0.02736299542
0.0275986796
0.02780254534
0.0279834031
0.02815479699
0.02830647195
0.02844080562
0.0286070818
0.02875121249
0.02887279789
0.02894959059
0.02899653786
0.02902045736
0.02902754176
0.02905690828
0.02900373278
0.02891628624
0.02880175937
0.02866169921
0.02854089311
0.02831853056
0.02806473103
0.02776778182
0.02741790153
0.02746592987
0.02883494518
0.03048390706
0.032129213
0.03386885569
0.03579577221
)


100
(
0.0001699257081
0.0003796402795
0.0005934111296
0.0008263246003
0.001087236254
0.001361076353
0.001656747161
0.001960302277
0.002282436655
0.002623498378
0.002967397986
0.003334656564
0.003710562764
0.004079806366
0.004458226558
0.004860404531
0.005252027062
0.005626009148
0.006020076913
0.006442465709
0.006851374015
0.007247669603
0.007638832086
0.008091024924
0.008527248434
0.008952475142
0.009370485518
0.009781936121
0.01023981535
0.01069350099
0.01113777444
0.01156778293
0.01197056083
0.01240350679
0.01286612231
0.01332002677
0.01374124344
0.01413870141
0.01452654664
0.01497351265
0.01541714373
0.01583072209
0.01622686258
0.01661239959
0.01698955964
0.01739742109
0.01781990561
0.01823055613
0.01860703935
0.01893954522
0.01926611097
0.01968289286
0.020062349
0.02040795994
0.0207394343
0.02109601215
0.02140850934
0.02179027478
0.02215983822
0.02247348956
0.02273008209
0.0229786533
0.02332287558
0.02358802834
0.02386048722
0.02411425687
0.0243550662
0.02459950716
0.02482731438
0.02504228337
0.02523702011
0.0254101859
0.02560779648
0.02578900975
0.02595423553
0.02610859761
0.02624193377
0.02635826167
0.02641657123
0.02645670906
0.02653390665
0.02660378837
0.02665810307
0.02661266478
0.02653413063
0.02641780378
0.02633852883
0.02623824703
0.02607883474
0.02590112272
0.02568989624
0.02541417861
0.02507998919
0.02469233353
0.02497237334
0.02623860529
0.02779560091
0.02939403884
0.03105602289
0.03294008465
)


100
(
0.0001530582099
0.0003365421542
0.0005285660625
0.0007402665859
0.0009754085938
0.001227395502
0.001491730861
0.001773166818
0.002060807804
0.002376220072
0.002698331413
0.003018534179
0.003370405111
0.003721810396
0.004064100979
0.004418220663
0.004795011892
0.005160978836
0.005512467675
0.005873280558
0.006275463587
0.006663937812
0.007040721247
0.007412331045
0.007815678976
0.008230292928
0.008634885528
0.009028561753
0.009422032047
0.009819871417
0.01025044937
0.01067271253
0.01108181847
0.01146069595
0.01182410458
0.0122572804
0.01269033046
0.01308959448
0.0134681069
0.01383608405
0.01419174593
0.01459624932
0.01499849959
0.01539495238
0.01577687564
0.01611507705
0.016414496
0.01681846154
0.0172102327
0.01755590526
0.01786991523
0.01817450803
0.01847878529
0.01884031251
0.0191995338
0.01954717074
0.01984486264
0.02008457191
0.0204162563
0.02075761449
0.02101409423
0.02124955743
0.02148011943
0.02171894562
0.0219528811
0.02219970975
0.02243465296
0.02265256834
0.02287869794
0.02308378702
0.02326365675
0.02342213481
0.02356827517
0.02369812659
0.02381389523
0.02390245967
0.02402985739
0.0241424888
0.02422619694
0.02426818044
0.02429632666
0.02426770121
0.02426157715
0.02424953605
0.02416609985
0.02406116442
0.02393803664
0.02378897561
0.02361178558
0.02339510946
0.02317557501
0.02288559298
0.02252685802
0.02217889621
0.02245360293
0.02380029425
0.025276823
0.02678499788
0.02839033508
0.03019115275
)


100
(
0.0001362067906
0.000298564435
0.0004705501578
0.0006608905654
0.0008721571812
0.0011026304
0.001341108114
0.001597613405
0.001863923436
0.002141166596
0.002442751289
0.002744107375
0.003043553916
0.003376235975
0.003704419673
0.004021584511
0.004349819861
0.004703101552
0.005046049512
0.005377525332
0.005706293523
0.006086917141
0.006454863534
0.006813616405
0.007165971714
0.007517203139
0.00790835933
0.00829663556
0.008675642443
0.009045979012
0.009384701751
0.009783671223
0.01018477396
0.01057572178
0.01093170088
0.01127580803
0.01162829697
0.01204049375
0.01241514389
0.01277643493
0.01312247537
0.0134725263
0.0137909688
0.01417611645
0.01455026834
0.01491592687
0.01521800562
0.01550222748
0.01579528969
0.01617002119
0.01648269138
0.01677846325
0.0171017893
0.01738163476
0.01765960403
0.01800312771
0.01833451459
0.01857245277
0.0187933598
0.01901976271
0.01929419922
0.01954074568
0.0197741676
0.01999436982
0.02020737985
0.02042478684
0.02062768553
0.02081507185
0.02097853256
0.02112634509
0.02128582514
0.02144211429
0.02158273472
0.0217143544
0.02182507649
0.02191172086
0.02197020168
0.02200526307
0.0220285545
0.02208194795
0.02211599746
0.02211252585
0.02205166374
0.02195791104
0.02187640789
0.0217952333
0.02164600881
0.0214478841
0.0212219701
0.0210281757
0.02074509462
0.02046582867
0.02013220941
0.01974852067
0.02018469842
0.021518055
0.02290072555
0.02432043756
0.02586158322
0.02759091145
)


100
(
0.000119367622
0.000264111867
0.000417489357
0.0005880936209
0.0007802066292
0.0009867213152
0.001205708388
0.001432765698
0.001679397582
0.001933404517
0.002199509165
0.002482312958
0.002763531303
0.003044293731
0.00335528425
0.00366146781
0.003955454326
0.004256465963
0.004587715058
0.004911905105
0.005226763012
0.005536764271
0.005878367675
0.00622656773
0.006566985854
0.006898868382
0.007230341804
0.007574231071
0.007941093315
0.008300761656
0.008646949563
0.008965558284
0.009298514647
0.009678393194
0.01004755971
0.01038579023
0.01071146426
0.01102936797
0.01137044723
0.0117216002
0.01207900533
0.0124232659
0.01275127131
0.0130271026
0.01333128603
0.01368599265
0.01402525496
0.0143049518
0.01457467776
0.01483349836
0.01510456516
0.01543619111
0.01575403738
0.01606377202
0.0162844764
0.01647756806
0.01678726807
0.0170655743
0.01728147968
0.01748618922
0.01769423235
0.01789949434
0.01809701685
0.01828805973
0.01849278894
0.01868328067
0.01888280527
0.01905605604
0.01921182854
0.01935176173
0.01948005886
0.01959181444
0.01968997839
0.01976755761
0.01983593083
0.0199225623
0.01998901554
0.02003023742
0.0200633252
0.02006278016
0.01999261103
0.01996070849
0.01989717102
0.01980606325
0.01970127877
0.01956664814
0.01941090278
0.01923837187
0.01901579134
0.01878729111
0.0184965983
0.01822140111
0.01782830665
0.01754961643
0.01805697657
0.01934994757
0.02064640952
0.02198210132
0.02344507415
0.02508242014
)


100
(
0.0001025370811
0.0002326176327
0.0003692263312
0.0005218857179
0.0006953509269
0.0008794968845
0.00107978145
0.001286134172
0.001506066191
0.001740803884
0.001979712148
0.002233190369
0.002497454347
0.002758171189
0.003020062592
0.003310295284
0.003594658033
0.003868921199
0.004142486817
0.004455092185
0.004759608066
0.005057152558
0.005350348322
0.005650614799
0.005977384986
0.006303770947
0.006622245857
0.006930251389
0.007219469664
0.007565275638
0.007905700554
0.008232457425
0.008533090436
0.008828422421
0.009155493833
0.009501869541
0.009822541109
0.01013149553
0.01043482301
0.01073362343
0.01104204581
0.01137731101
0.01170249553
0.01200339581
0.01225928386
0.01250343413
0.0128055027
0.01311113049
0.01337697916
0.01364429137
0.01391908099
0.01413339227