/*--------------------------------*- C++ -*----------------------------------*\
| =========                 |                                                 |
| \\      /  F ield         | OpenFOAM: The Open Source CFD Toolbox           |
|  \\    /   O peration     | Version:  2.3.1                                 |
|   \\  /    A nd           | Web:      www.OpenFOAM.org                      |
|    \\/     M anipulation  |                                                 |
\*---------------------------------------------------------------------------*/
FoamFile
{
    version     2.0;
    format      ascii;
    class       dictionary;
    location    "constant";
    object      DPSE1;
}
// * * * * * * * * * * * * * * * * * * * * * * * * * * * * * * * * * * * * * //

DPSE1_table
100
(

100
(
0.1707222047
0.1683925387
0.1630664597
0.1507279868
0.1522526623
0.1537140406
0.1340064429
0.1484132759
0.1361984592
0.1394974273
0.1474819671
0.1275829493
0.1396619205
0.1389541737
0.1246986552
0.1366065285
0.1436908909
0.1184836449
0.1306591973
0.1421941995
0.1245308352
0.1221601324
0.1339101363
0.1364436881
0.1145842065
0.1262009141
0.137813629
0.1351922575
0.1127278161
0.1236225164
0.1350030001
0.13025621
0.1158972863
0.1273679909
0.1388442222
0.1401710221
0.1198633224
0.115718305
0.1269381713
0.1299211331
0.1154401251
0.1079740886
0.1189153698
0.1234576826
0.1151861515
0.108549984
0.1199533113
0.130199444
0.1152035778
0.1002279595
0.09912321186
0.1062041458
0.09734596932
0.08815372411
0.08769556361
0.09279250847
0.09063780284
0.08851393118
0.09288506776
0.09746857067
0.09366723794
0.07665752284
0.07562037508
0.08318388197
0.07936200697
0.05823131455
0.05826821945
0.06425656727
0.04902026898
0.03293490773
0.0341318972
0.03276357132
0.005038518598
0.001772682651
0.004673771543
-0.00831138971
-0.0350443415
-0.03413690528
-0.04437966436
-0.07834940809
-0.07608548242
-0.1023237386
-0.1227235909
-0.1199210994
-0.1752787355
-0.1740538911
-0.200753085
-0.2311096785
-0.2393193682
-0.2772490557
-0.2874955065
-0.3129785991
-0.3188942098
-0.3360263668
-0.3336370083
-0.3417936365
-0.3269791569
-0.2663122026
0.1415844943
0.5388832683
)


100
(
0.1687802768
0.1622931957
0.1578898696
0.1462077299
0.1549348932
0.146607663
0.144542048
0.139741562
0.1403658687
0.1283473303
0.1389271348
0.122982615
0.1258526249
0.1313026493
0.1181366672
0.1193983303
0.128708634
0.1188152807
0.1101320085
0.1215692807
0.1184676588
0.1098223792
0.1097084124
0.1163460514
0.110993551
0.1046710764
0.1095960597
0.1135447574
0.1080299994
0.1015557197
0.1027946957
0.1055811443
0.1035932573
0.100990579
0.1025838098
0.1084599638
0.1039286888
0.09918214324
0.09395567418
0.09364389738
0.09178945878
0.0897933422
0.08736458357
0.08296888016
0.08408316902
0.08538544046
0.08644262023
0.08716560592
0.08161495553
0.07999385043
0.07808308436
0.07408283859
0.06262687353
0.06272952267
0.06432836914
0.06310260389
0.05188085177
0.05652355595
0.06177871414
0.06345274599
0.05243104008
0.05730316562
0.05175881816
0.04435692982
0.04426605865
0.04677654991
0.03850080749
0.02443747895
0.02871781054
0.02355757923
0.0113465638
-0.002353140772
-0.001353500692
-0.008998133348
-0.0246065104
-0.02574915193
-0.02527277649
-0.03920730513
-0.05398866236
-0.05712666633
-0.06853119247
-0.07367792559
-0.08650344367
-0.09160168774
-0.09706511508
-0.1113357913
-0.1164314101
-0.123413772
-0.1354547779
-0.1380325695
-0.1428579595
-0.1439887951
-0.1471480518
-0.1433417386
-0.144643917
-0.1376334324
-0.123982617
0.02021584943
0.3325162584
0.5199397928
)


100
(
0.1651116758
0.1554672525
0.1480641902
0.1531922363
0.1527671722
0.1316654151
0.1465871058
0.1227998561
0.1341227156
0.1186626975
0.1173718085
0.1167127311
0.09842057145
0.1075235332
0.1065826685
0.0914083823
0.09383394486
0.1015112807
0.08922159475
0.07701448945
0.0876079881
0.08491950789
0.07428258313
0.06751134507
0.07788802839
0.07003018807
0.06204377521
0.05811076137
0.06840289793
0.06065830548
0.05261705229
0.04459383386
0.05142784468
0.04707453788
0.04290475125
0.0388112305
0.04189065341
0.04336115939
0.03659290533
0.03004878457
0.02406979761
0.02252840481
0.01926615486
0.01652472392
0.01429567389
0.007797090899
0.007255114506
0.007549648123
0.008421370078
-0.002265756514
0.001067299187
-0.002055436415
-0.004375475603
-0.01803176311
-0.0190266914
-0.01941573166
-0.02153315031
-0.04087425623
-0.04301998269
-0.03953097156
-0.04724295386
-0.05317205426
-0.04922498018
-0.06008105843
-0.07036844731
-0.0646252265
-0.06412811669
-0.07971932764
-0.08574539647
-0.08683353639
-0.09196677015
-0.1009802301
-0.09426058432
-0.1056773159
-0.1199625464
-0.1180899297
-0.1153124789
-0.1317859899
-0.133702255
-0.1314148519
-0.1391742597
-0.1372805092
-0.1428960095
-0.1514467233
-0.1367599189
-0.1484498136
-0.1462569665
-0.1385446437
-0.1414348726
-0.129685573
-0.1330871507
-0.1240353313
-0.1224453558
-0.1198168786
-0.1228099903
-0.1179310829
-0.1054324129
0.134645043
0.2301263133
0.2995787661
)


100
(
0.1616061264
0.1658902285
0.1580575342
0.1618079168
0.1437234465
0.1380195033
0.1341421479
0.1282960395
0.1183676788
0.1223900773
0.09991838453
0.1084189652
0.09832124771
0.08337435754
0.09320248023
0.08756411231
0.07143640345
0.07341508277
0.08076074132
0.06701185576
0.05334273158
0.05956367522
0.05947733731
0.04752789775
0.03565271798
0.04191020451
0.03890590737
0.02963745418
0.02056974365
0.0244127543
0.02494989112
0.01540353565
0.006234599818
-0.0001898235625
0.004800395683
-0.0001554747168
-0.004540077424
-0.01563515577
-0.006725513114
-0.007041357567
-0.01433965252
-0.02308835181
-0.03264523295
-0.0248833302
-0.02922846169
-0.03835514463
-0.0610555458
-0.05181246004
-0.04893783854
-0.057828169
-0.07955318316
-0.07399285325
-0.064537115
-0.07748787071
-0.09844544114
-0.1007576424
-0.08707504477
-0.1084018854
-0.131102163
-0.1411303501
-0.1346931784
-0.1499489135
-0.1528458989
-0.1536521354
-0.1609812322
-0.1686091067
-0.1640578919
-0.1656280352
-0.1785912087
-0.1780495072
-0.1738838752
-0.1746001994
-0.1836724104
-0.1799682032
-0.1825680301
-0.1913964522
-0.2009355362
-0.2088549591
-0.1979603651
-0.2064099245
-0.2150533749
-0.2146320079
-0.2137708006
-0.2183246868
-0.2219480427
-0.2170112918
-0.2215140553
-0.2232161752
-0.2168028159
-0.2217166334
-0.2163369212
-0.2203459158
-0.2197778971
-0.2285027735
-0.236026264
-0.2439491738
-0.2004170185
0.05025285207
0.09688666058
0.1574507412
)


100
(
0.1582532112
0.1720165172
0.1686077091
0.1556305409
0.1369929312
0.1486961282
0.12416397
0.1366232746
0.1135074065
0.1178292573
0.1084796088
0.09370471596
0.1037347605
0.08604224246
0.0750689038
0.08431896321
0.07599426955
0.05962342116
0.06000469422
0.06884507295
0.05435290623
0.03998874987
0.04052300166
0.04524619652
0.03248143963
0.01986049673
0.01717761106
0.02119084144
0.0119740037
0.003424941891
-0.00332646272
0.005345072225
-0.001241722861
-0.01013844161
-0.02829627217
-0.0201563452
-0.01846062462
-0.02293939612
-0.05201748396
-0.04462618668
-0.03622628666
-0.03547621205
-0.06120901957
-0.07295511835
-0.06588946134
-0.05363233227
-0.08291471844
-0.1133989378
-0.1050012972
-0.08780454557
-0.1115251673
-0.1359166472
-0.137654534
-0.1257583331
-0.1408298086
-0.1630403478
-0.1714935064
-0.1606965465
-0.1699152102
-0.1895859421
-0.1989849168
-0.1959933141
-0.2047937717
-0.2064683358
-0.2093697912
-0.2194902635
-0.227786508
-0.2249470293
-0.2232701039
-0.2244930057
-0.2327428246
-0.2362605195
-0.2370686794
-0.2326720061
-0.2370982264
-0.2531924706
-0.2454303962
-0.2508718351
-0.2594408892
-0.2587843383
-0.2668775763
-0.2691932924
-0.2723240783
-0.2790846318
-0.2804429807
-0.2829031323
-0.2864626471
-0.2846587259
-0.2980379956
-0.2945421689
-0.2935660349
-0.3066695134
-0.3116042882
-0.3267126237
-0.3377000904
-0.3546500908
-0.2150034196
-0.03792627004
0.006943043894
0.05862282414
)


100
(
0.158243028
0.1655535777
0.1633754605
0.1495186679
0.149363071
0.1447262686
0.1336293054
0.1305349872
0.1278020282
0.1101714445
0.1212796426
0.1014412857
0.09495297393
0.1007833893
0.08198536275
0.07378426767
0.08296818117
0.07428464705
0.05817675609
0.05600966222
0.06511130257
0.05393707065
0.03958673687
0.0331160437
0.04104458934
0.02981935753
0.01573593345
0.01315655441
0.02171013703
0.01766577828
0.004635658444
-0.0105467775
-0.002136472908
0.004307045867
-0.01282202455
-0.0382911308
-0.03102116693
-0.01523164516
-0.03400364192
-0.06808654813
-0.06298091905
-0.05271989286
-0.05170262265
-0.08251293198
-0.09528773703
-0.08084399766
-0.07203656524
-0.1035750374
-0.1357166903
-0.1234824583
-0.1140508664
-0.1347508034
-0.1593108234
-0.1644059441
-0.1530497677
-0.1621260493
-0.1801299709
-0.1807773728
-0.1754959979
-0.1751375822
-0.1841797897
-0.1894277452
-0.1960333948
-0.2077733581
-0.2138940792
-0.2191395782
-0.2232758894
-0.2248509502
-0.2372515262
-0.2419541387
-0.2431727531
-0.244675747
-0.2538518863
-0.2600828444
-0.2549712141
-0.2571337617
-0.2619002573
-0.2600264522
-0.2678183395
-0.2701962782
-0.2730674893
-0.2761508791
-0.2858903749
-0.2929914193
-0.2972928846
-0.3011108141
-0.3054212934
-0.307727821
-0.3193830374
-0.3207026864
-0.3329155044
-0.3348363516
-0.354282941
-0.3689956407
-0.3877022843
-0.3995673952
-0.194033822
-0.09421902734
-0.06181896642
-0.01141161674
)


100
(
0.1603082677
0.159615785
0.1578942124
0.1540496204
0.1618001312
0.1402507935
0.1497574553
0.125947909
0.1380934234
0.1216684241
0.1167039208
0.1205022633
0.09969431101
0.09993934735
0.1020386907
0.08417258192
0.07736117747
0.08691407595
0.07983998333
0.06433110231
0.05786441829
0.06615258833
0.05902830614
0.04343929614
0.02808786474
0.03624381922
0.03374337036
0.01967713743
0.01892658723
0.02629728136
0.03363989825
0.002789322905
-0.01067621738
-0.002842333146
0.01655414554
-0.01692052213
-0.04150919616
-0.03401994761
-0.002334432137
-0.03522982504
-0.0702257193
-0.06812505824
-0.04479556303
-0.05560999101
-0.08733186607
-0.1018850044
-0.08253531069
-0.07289298661
-0.105706513
-0.1296446431
-0.1253099514
-0.1115089601
-0.1230032203
-0.1346687503
-0.141426611
-0.1471608804
-0.1477285218
-0.1470222354
-0.1518898027
-0.1577879691
-0.1621263067
-0.1580866002
-0.1655999764
-0.1734203392
-0.1799984366
-0.1848644859
-0.1951875157
-0.20122172
-0.2043555136
-0.2123031415
-0.2225214439
-0.2272404822
-0.2308708197
-0.2358963808
-0.2408484889
-0.2381553932
-0.248416794
-0.247630829
-0.2537203181
-0.2515310668
-0.2626451429
-0.2685570761
-0.2690003256
-0.2734672576
-0.2763025743
-0.2864083939
-0.2925162859
-0.2972830963
-0.2962334561
-0.3162602674
-0.327487617
-0.3380726711
-0.3559977457
-0.3700099944
-0.3954677491
-0.3999362696
-0.1911017166
-0.131289959
-0.1075078684
-0.06933435657
)


100
(
0.1592123709
0.1574690481
0.1595326451
0.1658215601
0.1582544147
0.1486028735
0.1499437022
0.1401236403
0.1335239712
0.1394406909
0.1170682792
0.1225763314
0.1189514716
0.09912961882
0.1042364307
0.1043234883
0.08728388766
0.0799996363
0.08893385578
0.08334240922
0.06628395786
0.0528003851
0.06117527668
0.06135407397
0.04693409442
0.02977402001
0.03306332301
0.03027171944
0.01539210339
0.01700242282
0.02965534972
0.03937600067
-0.003227126761
-0.01496467543
0.0017462691
0.01566462544
-0.0233208585
-0.04822496661
-0.02387473737
-0.006675241577
-0.03886922107
-0.07506907177
-0.06399442201
-0.05284224644
-0.06310233279
-0.09634340901
-0.1007881506
-0.08664274238
-0.07206403356
-0.09550531928
-0.09907939117
-0.1078666816
-0.1068390735
-0.103100784
-0.1090234191
-0.1200212992
-0.1315669889
-0.1392404833
-0.1375037359
-0.1430090642
-0.147080438
-0.1512275317
-0.1560033739
-0.1560252498
-0.1617151337
-0.1667305534
-0.1776564214
-0.187884357
-0.1886437865
-0.1919381171
-0.1987845315
-0.2077463107
-0.2150296571
-0.2216139888
-0.2261666511
-0.2361906191
-0.2418215524
-0.2406989358
-0.2532674532
-0.2603058879
-0.2604580164
-0.2665912004
-0.2616948946
-0.2740787364
-0.2821316196
-0.2881967416
-0.2884949505
-0.299630853
-0.3084295995
-0.31770585
-0.3385873056
-0.3488503961
-0.3734646779
-0.3937038897
-0.4083047651
-0.394537198
-0.1976383897
-0.1716740426
-0.1389762137
-0.116480415
)


100
(
0.1561699255
0.1654953507
0.1685954557
0.1683597661
0.1524059738
0.16209124
0.1441638952
0.1556073831
0.1317379558
0.139104673
0.133481766
0.1145598743
0.1258706718
0.1164916051
0.09740054142
0.1053097141
0.1040063253
0.08539075966
0.07327530938
0.08159050359
0.08067582285
0.06479938351
0.04533001263
0.05471028779
0.06439040837
0.04991817299
0.03228844687
0.02468291187
0.01902243809
0.003742838902
0.006665521758
0.03913868366
0.02679546477
-0.01748733416
-0.02917604615
0.005492291589
0.0008601899755
-0.03977393472
-0.06189194897
-0.03486413092
-0.0244355425
-0.05441590163
-0.08565468463
-0.08134065041
-0.06807381068
-0.07373897652
-0.08680795284
-0.09181624038
-0.09632498894
-0.0858361319
-0.08540802267
-0.09454542435
-0.1073462385
-0.1196888029
-0.1216324993
-0.1101974131
-0.1212697717
-0.132584043
-0.1418232704
-0.1505012335
-0.1543908771
-0.1619383801
-0.1654832856
-0.1750674605
-0.1857275959
-0.1862426488
-0.1811787591
-0.1899574792
-0.2004645071
-0.2084779925
-0.2127810261
-0.2176933782
-0.2270915509
-0.2410165002
-0.2480331285
-0.2510021878
-0.2670431933
-0.2763432955
-0.2787024779
-0.286766237
-0.2827520373
-0.292884542
-0.3036137084
-0.3115595955
-0.3131606575
-0.313253224
-0.3279127152
-0.343273258
-0.350187686
-0.3660341943
-0.3746810663
-0.4012654078
-0.4129553763
-0.4417601405
-0.4851280818
-0.3972001692
-0.2224906985
-0.2072314092
-0.1777185561
-0.151575162
)


100
(
0.1532748709
0.1688632526
0.1708781304
0.16369023
0.1594605119
0.162217097
0.1498927314
0.1510601404
0.1463409751
0.1307271057
0.1426300926
0.1271876423
0.115371026
0.126598959
0.1127815243
0.09130744479
0.09862502139
0.09733055655
0.07959262693
0.06372229855
0.07358226076
0.07977631242
0.06349480084
0.04317293719
0.04345892537
0.0561704375
0.04811372587
0.02992571788
0.01216038335
0.0008188090544
-0.0153199475
-0.003201445229
0.02939689521
0.006248081887
-0.03997622287
-0.03773164207
-0.01759332538
-0.0237071277
-0.06680334788
-0.07444627571
-0.06192917381
-0.04746406501
-0.07065536821
-0.0789850105
-0.09203716198
-0.08831480103
-0.08219196709
-0.08901639083
-0.1001192361
-0.113154743
-0.1270493422
-0.1122787457
-0.1109954908
-0.1243496309
-0.1365960827
-0.1437676741
-0.1548666228
-0.1490564452
-0.1575705626
-0.1670627152
-0.184141509
-0.1991023153
-0.1980277905
-0.1955980079
-0.2059502084
-0.2154370865
-0.2229196809
-0.2284365737
-0.2300273864
-0.2380915172
-0.255947831
-0.2698050012
-0.2644983906
-0.2743489721
-0.2968275564
-0.3084372822
-0.3150984091
-0.3259031259
-0.3246830407
-0.3317030723
-0.345722739
-0.3578563374
-0.3695374091
-0.3589626893
-0.3723832618
-0.3918392796
-0.4034097973
-0.4149431478
-0.4338401835
-0.4441687104
-0.4696770326
-0.4932388378
-0.5123285387
-0.5585528297
-0.5723025965
-0.4032825546
-0.2403629418
-0.2313151514
-0.2074014524
-0.1910203563
)


100
(
0.1523369127
0.1645298911
0.1668038754
0.1597454194
0.171098413
0.1566883963
0.1637328771
0.1443267851
0.1571330692
0.1390348432
0.1345018658
0.1436921631
0.1230451157
0.1151311657
0.1245967941
0.1067452483
0.08448701955
0.09361993918
0.09733949894
0.08004279392
0.05771247722
0.06686283665
0.08045453644
0.06371086314
0.04336047051
0.03250129069
0.04564969685
0.04836050003
0.02989130356
0.01208772559
-0.01726177997
-0.0347959614
0.001202768278
0.01228579495
-0.01308700969
-0.05970200492
-0.05038965911
-0.03982055687
-0.04205493992
-0.06728274085
-0.07720847497
-0.07440948415
-0.06185724702
-0.06468693996
-0.07671798629
-0.09471929867
-0.1123963697
-0.1078348583
-0.09587817382
-0.1096601377
-0.1232471495
-0.1351526622
-0.1413486591
-0.1402193785
-0.1404805323
-0.1548791393
-0.1638368044
-0.1840798288
-0.1992570554
-0.1904434328
-0.1881371297
-0.2048158204
-0.2202929413
-0.2274959593
-0.2304431125
-0.2349772238
-0.2455885952
-0.2632720095
-0.2825873978
-0.2736759444
-0.274661836
-0.2913513813
-0.3140147212
-0.3237129621
-0.3337197511
-0.3482291615
-0.3485722271
-0.3513344263
-0.3705457878
-0.3873195167
-0.4031916215
-0.4024303623
-0.4079526602
-0.4312767716
-0.4489570767
-0.4550868707
-0.4637645553
-0.4895858849
-0.5015440592
-0.529184766
-0.5557122997
-0.577554142
-0.625918846
-0.6512370033
-0.6260067533
-0.3876378058
-0.2475779709
-0.2474181957
-0.2290344375
-0.2224667566
)


100
(
0.1535249557
0.1602208218
0.1621269607
0.169557137
0.1714838116
0.1602697517
0.167034302
0.1569119253
0.1528232407
0.1580292492
0.1361037825
0.1411572728
0.1429537823
0.1209722377
0.1154507843
0.1278022514
0.1109202564
0.08862735537
0.09588669382
0.1052186196
0.08734313445
0.06542822019
0.06713235603
0.0815172211
0.07345595427
0.05360201618
0.03351973686
0.04379949327
0.05680671921
0.04145725692
0.02407197253
-0.01694196576
-0.02891325976
-0.002999022392
0.006783330826
-0.01788792717
-0.03800945383
-0.04768355629
-0.03401162298
-0.0306561176
-0.04002921886
-0.05574064936
-0.07487887311
-0.07345788477
-0.05800360923
-0.06270000849
-0.08051105986
-0.09793967201
-0.1095116099
-0.1039732626
-0.09349709913
-0.1100958271
-0.122863526
-0.1358986005
-0.1595528926
-0.1566563972
-0.1447727432
-0.1564554476
-0.1740544019
-0.1922199281
-0.1982232754
-0.1890394089
-0.1971005313
-0.2111229047
-0.2285907828
-0.252278431
-0.2454577996
-0.2443968074
-0.2627018721
-0.2808404135
-0.2953922003
-0.3010337017
-0.3185545282
-0.3269739317
-0.3248879958
-0.3231240456
-0.3406747278
-0.3595844846
-0.3820002327
-0.3931953085
-0.3932591611
-0.4109212319
-0.4322358335
-0.456137478
-0.4519972626
-0.4697366932
-0.4939055006
-0.4992353146
-0.5216249889
-0.5638310225
-0.5872943041
-0.6120950666
-0.6303921133
-0.637542701
-0.6667834957
-0.3419453002
-0.2621401747
-0.261934218
-0.2476228371
-0.2433704084
)


100
(
0.1529261529
0.1603469412
0.1680972951
0.1788369846
0.1686863531
0.1753486143
0.1646755586
0.1757706459
0.1553272206
0.1639719445
0.159388247
0.1380889762
0.1486511029
0.1467851017
0.1264953444
0.1249794304
0.1398371051
0.1240644423
0.1014159023
0.1051825479
0.1218724829
0.1043929615
0.08345661911
0.07670528372
0.091739935
0.09511136866
0.07606546715
0.05752564193
0.05312277994
0.06650586842
0.06782209981
0.05102410015
0.007594949936
-0.001830822678
0.01232868781
0.02774252536
0.01811659209
0.008959225409
-0.01233990162
-0.02011018169
-0.005944958219
-0.004750099863
-0.02084939089
-0.03870214128
-0.05614210041
-0.04531823235
-0.03239927841
-0.04102035123
-0.05704859639
-0.06765751056
-0.08562131465
-0.08743058151
-0.08122645712
-0.08263483973
-0.09820175032
-0.1189086095
-0.1398636492
-0.1204551176
-0.1124352568
-0.1281716139
-0.143770595
-0.1591000607
-0.1713816789
-0.1675287808
-0.166513768
-0.1879963499
-0.211342457
-0.2096318305
-0.212274441
-0.2388435048
-0.2562212171
-0.2649567442
-0.2606311632
-0.258780635
-0.264757818
-0.2891140226
-0.3138682172
-0.3292902661
-0.3240381345
-0.3272233453
-0.3537368289
-0.3772087796
-0.3939917852
-0.3885422996
-0.4166109605
-0.4415650953
-0.4484721537
-0.4737659713
-0.528526473
-0.5270829877
-0.5689840801
-0.5694911342
-0.6219951301
-0.6638247322
-0.6042824267
-0.2984671565
-0.2821870117
-0.2734521545
-0.2641253144
-0.2662215173
)


100
(
0.1503850401
0.1661872858
0.1760927155
0.1767184427
0.1728247451
0.183248866
0.1718425289
0.1782297754
0.1760308271
0.1630401481
0.1768530419
0.1623358782
0.1471961578
0.1606035099
0.1581695552
0.1374636691
0.1373011987
0.1545006772
0.141218163
0.1195234143
0.1187430458
0.1361909605
0.1271049037
0.1075046325
0.09003320324
0.1059087022
0.1196087931
0.105121548
0.08844089144
0.07481241284
0.08139497787
0.09353697069
0.08248388496
0.05769273501
0.04807521365
0.03944404201
0.04982120429
0.06174701427
0.04999077318
0.02926650969
0.008388436475
0.0130905129
0.03392803994
0.02457137166
0.007831623782
-0.00560571556
-0.01353848678
-0.01274131165
-0.004359713419
-0.01080592082
-0.02012637924
-0.04062235466
-0.06429651257
-0.05125920012
-0.02796350069
-0.04389263873
-0.06355231032
-0.07524157295
-0.08841419992
-0.07898191927
-0.07263939815
-0.08064090963
-0.1058602516
-0.1325435964
-0.1184724853
-0.1089607588
-0.1335891307
-0.158993802
-0.1717226931
-0.1788202502
-0.1755233322
-0.178729158
-0.181031362
-0.1945476466
-0.2158308383
-0.2392415725
-0.2424053452
-0.2420958753
-0.2438850662
-0.2710235826
-0.3009677614
-0.3051591624
-0.3039914848
-0.3300358301
-0.3607116154
-0.3652847542
-0.3898289988
-0.4260453453
-0.4269336885
-0.455367057
-0.4626338309
-0.5077642533
-0.5833926507
-0.6342144397
-0.4844590972
-0.2947706734
-0.2953369854
-0.2879800715
-0.2797516285
-0.2893289869
)


100
(
0.1479796976
0.1676631588
0.1750292002
0.1732463136
0.1843780353
0.1808344794
0.1879985401
0.1756701466
0.1911694466
0.1779824737
0.1732743788
0.1867081892
0.1682711599
0.1579677088
0.1731434213
0.170218552
0.1491522029
0.1477203743
0.1669513966
0.1579012849
0.1372829365
0.1293671484
0.147425025
0.1487469325
0.1302130592
0.1134900556
0.1162605267
0.130083541
0.1322282076
0.1169201573
0.1035821687
0.08736060714
0.09678067291
0.1087175467
0.09819842534
0.0829193464
0.06062007597
0.05916986409
0.08014210485
0.0857591328
0.06598531649
0.04635981617
0.03414588521
0.04522639023
0.0583101492
0.04780783723
0.03452806291
0.02423061626
-0.004785253252
0.002849749626
0.02277959155
0.02348139318
0.0004769467339
-0.02261471745
-0.03213118873
-0.01275209025
-0.0001635052395
-0.01781144806
-0.0229701145
-0.05619840537
-0.06149737085
-0.04052940561
-0.03979532563
-0.06461471401
-0.08422308171
-0.09807563171
-0.1035852835
-0.1163785769
-0.1189640691
-0.1207630175
-0.1186939456
-0.115178119
-0.1397153065
-0.1635117416
-0.1813875783
-0.1786248408
-0.1778400367
-0.1862198263
-0.2172606886
-0.2393342009
-0.2403150718
-0.2382879136
-0.2629281231
-0.2968296847
-0.2972378561
-0.3169583266
-0.3531667233
-0.3726908592
-0.3857850123
-0.3946529322
-0.4208071789
-0.4462909849
-0.4497220059
-0.4705143976
-0.4151071877
-0.3088103608
-0.3065770968
-0.3036030379
-0.2934989631
-0.3108648278
)


100
(
0.1473309745
0.1646837567
0.1719338126
0.1773807052
0.1887083059
0.1810066416
0.1940257659
0.1867488631
0.187376536
0.1967908418
0.1780007331
0.1821883978
0.1920522971
0.173647886
0.1660237568
0.1834507227
0.1810076677
0.1594436621
0.1550685187
0.1748217111
0.1719454732
0.1521791343
0.1347702119
0.1525813377
0.1665566025
0.1484659877
0.1332072978
0.119518874
0.1330744849
0.1440260051
0.1340149114
0.1196281328
0.09937695523
0.09576834124
0.1112068435
0.1236021351
0.1070850166
0.08577864532
0.06434575621
0.08008191235
0.09945983027
0.09222332725
0.07333881851
0.06398955707
0.04874563459
0.04993225133
0.05933862715
0.06032607403
0.04803933285
0.02269853148
-0.003153655817
0.0242451958
0.04519550734
0.02334813024
0.00328288864
-0.002303161534
-0.01815607764
-0.007509284714
0.01266035138
-0.003596836898
-0.03664215416
-0.06642810169
-0.03875288474
-0.02827306743
-0.06114567239
-0.08071252476
-0.08916797786
-0.08610892366
-0.08558074211
-0.08824588859
-0.09480657156
-0.1226295433
-0.1433857383
-0.1510416332
-0.1509825573
-0.1513064236
-0.1627540417
-0.1900968536
-0.2173517782
-0.2213272986
-0.2126248428
-0.2386217234
-0.264781363
-0.2722213588
-0.2830366106
-0.3503709944
-0.371649479
-0.3678018784
-0.4044464207
-0.4180827439
-0.4584559262
-0.5560263899
-0.5051623107
-0.5511140493
-0.3842704158
-0.321163078
-0.3196000045
-0.3133559742
-0.3034822804
-0.3231258955
)


100
(
0.1478264206
0.161262824
0.1704566659
0.184990216
0.1851283679
0.1919154053
0.1896269102
0.2016968623
0.1867338438
0.1963824244
0.1971860546
0.178536668
0.190136533
0.1974772285
0.1780573324
0.1714290425
0.1905992068
0.1893820634
0.1686484514
0.1587677654
0.178462947
0.1837964087
0.1645435989
0.1482015898
0.1526869022
0.1669908205
0.1632375216
0.1491178311
0.133467835
0.1235721758
0.1344025431
0.1484400022
0.1372082136
0.1155994521
0.09070665727
0.1053302967
0.1298540573
0.1245612535
0.1036199695
0.08454941491
0.07369947306
0.0879090441
0.1000050378
0.08975565898
0.07953434369
0.06011503435
0.0317218538
0.0447625792
0.0773618513
0.06211947681
0.03652357477
0.01343491393
0.01109751555
0.02593699257
0.03610329799
0.02343872862
0.005343325482
-0.03040641668
-0.03034197993
0.009889591754
-0.005774917938
-0.03837028007
-0.05894004443
-0.07233822873
-0.08508664148
-0.07614261257
-0.07486633106
-0.07791114851
-0.07602227034
-0.08352135356
-0.1118172227
-0.1400673483
-0.1434047928
-0.1480412351
-0.15112859
-0.1732332274
-0.1953821187
-0.2109216313
-0.2107709598
-0.216901085
-0.2327078211
-0.2812978467
-0.2874404315
-0.2831626318
-0.3339966136
-0.3577066822
-0.3677874194
-0.3873765666
-0.3884845061
-0.4559087058
-0.4650746994
-0.5425113815
-0.6024098456
-0.579115757
-0.4005063083
-0.3242592068
-0.3280288482
-0.3193444706
-0.3083981669
-0.3305968575
)


100
(
0.146770936
0.1632828088
0.176045637
0.1853169861
0.1824499674
0.1989807688
0.1913749957
0.201657826
0.202238965
0.1900200745
0.2056318588
0.2006801436
0.1827904805
0.1986583621
0.2045629578
0.1843485502
0.1761131805
0.1967930762
0.1992208934
0.179241069
0.1618098836
0.1807718835
0.1963957047
0.1778306936
0.1627280959
0.151327802
0.1650505353
0.1761529893
0.1597556609
0.14700516
0.1202349458
0.1288963621
0.1501597781
0.1553082516
0.1321520075
0.1076964777
0.09712902489
0.121501772
0.1362216869
0.121714079
0.1047687205
0.09437622968
0.07129786579
0.08158379721
0.09898300611
0.1007344154
0.07648714894
0.04741484938
0.03164532122
0.06370996525
0.07630353096
0.04984710511
0.03627338653
0.02082614905
0.007694647965
0.0191927395
0.04410618186
0.01065516628
-0.02709644488
-0.0430666508
-0.01921620155
-0.01750633659
-0.05196183864
-0.06711060835
-0.06848755644
-0.06857295631
-0.07005117316
-0.0739925773
-0.09355797279
-0.1276885324
-0.1442261871
-0.1333531095
-0.134596323
-0.1392549354
-0.1599421618
-0.1872785871
-0.2119796488
-0.2266481911
-0.2342751527
-0.2392537393
-0.2668324292
-0.2743695299
-0.2984217824
-0.3347846281
-0.3681128812
-0.3304066839
-0.3565177083
-0.4222626244
-0.4805395308
-0.4662591273
-0.5072573551
-0.4659980448
-0.5248413089
-0.563072133
-0.4202712466
-0.3216214572
-0.3279059664
-0.3237565755
-0.3124979549
-0.334666148
)


100
(
0.144747406
0.1666894689
0.179728596
0.1824124138
0.1909391089
0.1956425459
0.2034117478
0.1973923734
0.2134226116
0.2038731472
0.2001166912
0.218262776
0.2067758219
0.1908531991
0.2088076054
0.2146949009
0.1940936354
0.1831845428
0.2037544514
0.2125862333
0.1933815151
0.1772003045
0.1846521195
0.1995512115
0.1948760133
0.180985504
0.1653804209
0.1597462175
0.1729352647
0.180580374
0.1674297582
0.1414975377
0.1254789199
0.1489997372
0.1750648996
0.1537428587
0.1301020426
0.1145082179
0.1163956357
0.1292390263
0.1409785104
0.1278396372
0.1191998786
0.08674274939
0.07225678841
0.09573350874
0.1274138192
0.09880800802
0.06965391615
0.0535518836
0.05198476854
0.06670731929
0.07669570378
0.07122458012
0.03872596363
-0.00290159055
0.01611457893
0.04869513753
0.02205945312
-0.0157697128
-0.03013522129
-0.0410603638
-0.04494614925
-0.04576930291
-0.03949672343
-0.0443965163
-0.0437905997
-0.06385029425
-0.09483301264
-0.1143581446
-0.1194652685
-0.1267576637
-0.131451277
-0.1559552529
-0.1883191502
-0.1861580482
-0.1821726226
-0.2022928135
-0.2245121391
-0.2557720621
-0.2913262729
-0.2752841724
-0.3039360167
-0.3567844634
-0.3532195113
-0.3788179998
-0.4334105347
-0.4437678102
-0.4924039581
-0.5102553686
-0.5845698362
-0.5619079851
-0.6396915725
-0.6217197197
-0.406434617
-0.3231236955
-0.3304594369
-0.327430306
-0.318957552
-0.3376956285
)


100
(
0.1428530928
0.165249113
0.1773134599
0.1816936897
0.1984023456
0.1927309799
0.2096664205
0.2065228901
0.2091412379
0.2221652675
0.2089830571
0.2111077498
0.2296498292
0.2142530272
0.1998507492
0.2196937153
0.2269223294
0.2075541995
0.1913275208
0.2120201636
0.228960773
0.2107353796
0.1962173436
0.1898948213
0.2044647221
0.2142576355
0.1989514354
0.1850189072
0.1616253316
0.1750246054
0.2033728734
0.1927449663
0.1679583087
0.1417881995
0.1505092715
0.1750392214
0.1814739457
0.1578924847
0.1454247168
0.129813427
0.1235898131
0.1355810317
0.1610364346
0.1484731479
0.115809978
0.08155267349
0.09675373093
0.1224340547
0.1278906596
0.1003225235
0.09657459076
0.06508883148
0.06353270749
0.08798020555
0.1008041076
0.0617240361
0.01940448843
0.02099824385
0.03355955429
0.02995890524
0.002429868279
-0.004335396518
-0.008550657505
-0.009155096006
-0.01056577071
-0.01346239089
-0.04075775219
-0.07375797035
-0.09074469864
-0.07682443346
-0.07499352564
-0.08131228538
-0.106256069
-0.1364626312
-0.1545908573
-0.1735417643
-0.1829358266
-0.1998042474
-0.2103960061
-0.2222261627
-0.2462536456
-0.2770955377
-0.3162912698
-0.3215927053
-0.3172251839
-0.383153381
-0.408888498
-0.4491918701
-0.4344617022
-0.5119436443
-0.5180753261
-0.5562006139
-0.6146994677
-0.5651019641
-0.389988147
-0.3338457359
-0.3380003938
-0.334568575
-0.3271413699
-0.3404251098
)


100
(
0.1439898799
0.1630453802
0.1747416149
0.1882300653
0.1958903341
0.2022637532
0.2067257482
0.2200629641
0.2110240413
0.221959321
0.2291440585
0.2147537794
0.2226313862
0.2404489404
0.2244775091
0.2092277162
0.230639363
0.2418872986
0.2237214868
0.2083214056
0.2202246992
0.2366173263
0.2306094586
0.2178638003
0.2037646555
0.2059083437
0.2200891701
0.2247937399
0.2103807515
0.1838860151
0.1798775507
0.208090595
0.2216620521
0.1972728618
0.1735004775
0.1617451884
0.1754999144
0.1896815088
0.189232552
0.1791448193
0.1613800218
0.1261314308
0.1337904464
0.1718912814
0.1799258664
0.1474380667
0.1171268332
0.1055289672
0.1198162802
0.1368594869
0.1468040235
0.1406869673
0.09260254708
0.05622781777
0.09783966546
0.1219039795
0.08747839345
0.05583693188
0.04044559854
0.03038729413
0.02913479624
0.02323884523
0.02819702139
0.03269669574
0.03408193209
0.008242843809
-0.02394479452
-0.03442890148
-0.04015045245
-0.04724352718
-0.04976436252
-0.0671406817
-0.1088657204
-0.1096713506
-0.09917014564
-0.115500164
-0.1473006055
-0.1647315748
-0.2000860694
-0.2284716557
-0.2153620511
-0.2784423877
-0.3003427196
-0.2901984467
-0.3361987394
-0.3817903533
-0.3743978276
-0.4015158615
-0.4413060126
-0.462096886
-0.5007375713
-0.5917281256
-0.5664439328
-0.5609211657
-0.3843553877
-0.3479493441
-0.3486574704
-0.3440430945
-0.3373665833
-0.3468309006
)

