/*--------------------------------*- C++ -*----------------------------------*\
| =========                 |                                                 |
| \\      /  F ield         | OpenFOAM: The Open Source CFD Toolbox           |
|  \\    /   O peration     | Version:  2.3.1                                 |
|   \\  /    A nd           | Web:      www.OpenFOAM.org                      |
|    \\/     M anipulation  |                                                 |
\*---------------------------------------------------------------------------*/
FoamFile
{
    version     2.0;
    format      ascii;
    class       dictionary;
    location    "constant";
    object      DPSI14;
}
// * * * * * * * * * * * * * * * * * * * * * * * * * * * * * * * * * * * * * //

DPSI14_table
100
(

100
(
2.896911719e-14
-8.958007865e-14
-9.150732147e-14
-8.563930329e-14
-6.164380223e-14
-4.951781568e-14
-4.152054305e-14
-3.218782755e-14
-2.816654744e-14
-2.431867635e-14
-2.209223844e-14
-2.074790583e-14
-2.108287793e-14
-2.223115754e-14
-2.209176722e-14
-2.272715208e-14
-2.406361244e-14
-2.400688251e-14
-2.347082628e-14
-2.443322921e-14
-2.375998623e-14
-2.241497812e-14
-2.215425863e-14
-2.217021046e-14
-2.070546103e-14
-1.927804537e-14
-1.913861573e-14
-1.870553314e-14
-1.74761685e-14
-1.614053441e-14
-1.582779575e-14
-1.47783476e-14
-1.34257271e-14
-1.228473049e-14
-1.176483683e-14
-1.12277444e-14
-1.030944177e-14
-9.578651379e-15
-9.0791102e-15
-8.610865018e-15
-7.761657894e-15
-7.134863574e-15
-6.631841289e-15
-6.129959872e-15
-5.370881385e-15
-4.839112021e-15
-4.44297993e-15
-4.200717219e-15
-3.71181392e-15
-3.437647051e-15
-3.297387925e-15
-3.183402793e-15
-2.884279022e-15
-2.68125972e-15
-2.555528711e-15
-2.37381633e-15
-2.164354266e-15
-2.125758426e-15
-2.384041052e-15
-3.182034258e-15
-4.292041193e-15
-3.907341395e-15
-2.866826932e-15
-2.854207377e-15
-3.44884131e-15
-3.131377807e-15
-2.489804267e-15
-2.733319773e-15
-2.981341228e-15
-2.521155695e-15
-2.214520359e-15
-2.483787458e-15
-2.391962785e-15
-2.068894117e-15
-2.76141401e-15
-3.194909795e-15
-2.156109567e-15
-2.420308407e-15
-2.689996896e-15
-1.785295955e-15
-2.259077855e-15
-1.955644515e-15
-1.737244312e-15
-2.313412195e-15
-1.558327044e-15
-1.886188689e-15
-2.035584753e-15
-1.650406456e-15
-2.244584178e-15
-1.844458916e-15
-2.217592412e-15
-2.238623468e-15
-2.928357519e-15
-3.082653761e-15
-3.953536313e-15
-3.965701266e-15
-4.456147287e-15
-4.158625851e-15
-1.087294765e-15
-1.358316247e-16
)


100
(
2.896470362e-14
-7.330999519e-14
-7.282209137e-14
-6.869084805e-14
-5.795412301e-14
-5.471194783e-14
-5.041703838e-14
-4.855121768e-14
-4.571029653e-14
-4.464040774e-14
-4.303392173e-14
-4.034400007e-14
-3.939026652e-14
-3.871070397e-14
-3.694087083e-14
-3.60140224e-14
-3.547711238e-14
-3.351355238e-14
-3.223827899e-14
-3.138298271e-14
-2.95090342e-14
-2.766661907e-14
-2.638633575e-14
-2.520446625e-14
-2.321206753e-14
-2.169731682e-14
-2.070213454e-14
-1.961721716e-14
-1.812044599e-14
-1.691590935e-14
-1.611299492e-14
-1.491666699e-14
-1.363717481e-14
-1.264501632e-14
-1.199496636e-14
-1.13581508e-14
-1.049994247e-14
-9.819317966e-15
-9.400572862e-15
-9.00177329e-15
-8.368687765e-15
-7.900422707e-15
-7.610852332e-15
-7.403175489e-15
-6.888780331e-15
-6.409751528e-15
-6.035857758e-15
-5.837328895e-15
-5.465106758e-15
-5.12577114e-15
-4.937241094e-15
-4.954204858e-15
-5.090101902e-15
-5.092388801e-15
-5.116281109e-15
-5.141521574e-15
-5.321325018e-15
-5.262501245e-15
-5.303858877e-15
-5.644014137e-15
-6.777780701e-15
-8.010641014e-15
-8.116868341e-15
-7.30096597e-15
-6.782627557e-15
-6.883474108e-15
-6.735728431e-15
-6.348625255e-15
-6.103464171e-15
-5.955550827e-15
-5.627897218e-15
-5.302443576e-15
-5.131802796e-15
-4.93219334e-15
-5.097647112e-15
-6.362131704e-15
-8.088500883e-15
-7.660758107e-15
-7.347657902e-15
-7.596411305e-15
-7.445388789e-15
-8.696289268e-15
-8.105884409e-15
-1.03355195e-14
-1.049214384e-14
-1.031908219e-14
-1.18999221e-14
-1.227063143e-14
-1.330104857e-14
-1.581312583e-14
-1.835047289e-14
-2.082136862e-14
-2.441688948e-14
-3.175493703e-14
-3.39843464e-14
-3.882186863e-14
-4.46479532e-14
-2.80389325e-14
-9.483052541e-15
-2.355061263e-15
)


100
(
2.897477799e-14
-3.779537622e-14
-3.988442794e-14
-4.142568075e-14
-4.905523905e-14
-5.483152434e-14
-5.578843943e-14
-5.990656394e-14
-5.915757798e-14
-5.904248558e-14
-5.849543528e-14
-5.445157096e-14
-5.157002379e-14
-4.872962636e-14
-4.518479907e-14
-4.248658766e-14
-4.012638195e-14
-3.682127909e-14
-3.476568309e-14
-3.271733304e-14
-3.024564705e-14
-2.832863024e-14
-2.65954568e-14
-2.492337335e-14
-2.30496289e-14
-2.180780683e-14
-2.052982976e-14
-1.948846095e-14
-1.832429714e-14
-1.753371797e-14
-1.656351536e-14
-1.585422212e-14
-1.514125744e-14
-1.465630352e-14
-1.422463585e-14
-1.40438095e-14
-1.387080488e-14
-1.357711342e-14
-1.332146218e-14
-1.315518645e-14
-1.332385839e-14
-1.360804235e-14
-1.381046612e-14
-1.42049468e-14
-1.472125234e-14
-1.567898179e-14
-1.593900828e-14
-1.619701384e-14
-1.640763322e-14
-1.728008287e-14
-1.729156275e-14
-1.741704874e-14
-1.752268285e-14
-1.80257936e-14
-1.783568337e-14
-1.75048154e-14
-1.733861499e-14
-1.768723645e-14
-1.717171032e-14
-1.603286145e-14
-1.528185921e-14
-1.615698474e-14
-1.749224972e-14
-1.738446581e-14
-1.611651843e-14
-1.536438128e-14
-1.519759728e-14
-1.464485267e-14
-1.441175074e-14
-1.551072694e-14
-1.682282574e-14
-1.820086445e-14
-2.03538914e-14
-2.317376337e-14
-2.326985088e-14
-2.506355485e-14
-3.189695633e-14
-3.112703991e-14
-3.011111358e-14
-3.82568099e-14
-3.878999747e-14
-3.940180295e-14
-4.503108893e-14
-4.514594213e-14
-4.809287618e-14
-5.362266473e-14
-6.081648744e-14
-7.029692139e-14
-7.795946287e-14
-9.157783524e-14
-1.070524821e-13
-1.221067654e-13
-1.420493252e-13
-1.596288501e-13
-1.879747455e-13
-2.210570471e-13
-2.456750771e-13
-1.291404644e-13
-5.436456744e-14
-1.911250058e-14
)


100
(
2.898818272e-14
-4.301801423e-15
-1.813969566e-14
-2.732443828e-14
-3.927789478e-14
-4.472441865e-14
-4.829418892e-14
-4.952095979e-14
-5.02997148e-14
-4.852246798e-14
-4.77864616e-14
-4.472635243e-14
-4.150291215e-14
-3.86256547e-14
-3.559361129e-14
-3.312348252e-14
-3.136935196e-14
-2.962349455e-14
-2.806415036e-14
-2.716014931e-14
-2.636310183e-14
-2.556546275e-14
-2.494146991e-14
-2.453475314e-14
-2.453455275e-14
-2.429423111e-14
-2.408374668e-14
-2.416367736e-14
-2.484266521e-14
-2.527533126e-14
-2.527417042e-14
-2.524040703e-14
-2.55667448e-14
-2.664471072e-14
-2.685596832e-14
-2.742350547e-14
-2.839418642e-14
-3.060497935e-14
-3.146383529e-14
-3.244022575e-14
-3.352936937e-14
-3.478200251e-14
-3.613042857e-14
-3.60934173e-14
-3.641622782e-14
-3.748180248e-14
-3.981542635e-14
-3.951219883e-14
-3.933212087e-14
-3.993862304e-14
-4.121910304e-14
-4.069532598e-14
-3.978287055e-14
-3.964847304e-14
-3.964155596e-14
-3.862384167e-14
-3.726800212e-14
-3.767290929e-14
-3.792299047e-14
-3.706290265e-14
-3.460923887e-14
-3.262399195e-14
-3.294157712e-14
-3.542111118e-14
-3.778339428e-14
-3.978700181e-14
-4.216694219e-14
-4.488740985e-14
-4.730415371e-14
-5.006328666e-14
-5.29126272e-14
-5.599457229e-14
-6.132861456e-14
-7.248836502e-14
-8.496976548e-14
-8.399705694e-14
-8.310542633e-14
-9.494988609e-14
-1.005133077e-13
-1.041327591e-13
-1.112898817e-13
-1.187263121e-13
-1.36473158e-13
-1.532937404e-13
-1.711602549e-13
-1.88879635e-13
-2.055476976e-13
-2.351328616e-13
-2.711526554e-13
-3.236842245e-13
-3.489592136e-13
-3.923556146e-13
-4.507363685e-13
-5.134581385e-13
-6.052242186e-13
-7.126525477e-13
-7.347543274e-13
-3.640016093e-13
-1.78610168e-13
-7.454881372e-14
)


100
(
2.900443276e-14
1.123485592e-14
-6.431582979e-15
-1.916866005e-14
-2.970693504e-14
-3.611224876e-14
-4.014122986e-14
-4.145973333e-14
-4.254328697e-14
-4.212576652e-14
-4.124122785e-14
-3.972421166e-14
-3.762797009e-14
-3.569861511e-14
-3.388112152e-14
-3.249691279e-14
-3.176573755e-14
-3.176935581e-14
-3.199822198e-14
-3.218365168e-14
-3.272804829e-14
-3.397683373e-14
-3.519035291e-14
-3.604254946e-14
-3.745484889e-14
-3.97749623e-14
-4.207403096e-14
-4.339935611e-14
-4.510887841e-14
-4.757204443e-14
-5.08447311e-14
-5.202968189e-14
-5.332092117e-14
-5.48570972e-14
-5.825537311e-14
-5.827681497e-14
-5.866284356e-14
-5.965800636e-14
-6.480313708e-14
-6.561066913e-14
-6.615872343e-14
-6.66265147e-14
-6.90823081e-14
-6.955795446e-14
-6.789875058e-14
-6.609855691e-14
-6.831395403e-14
-7.037832574e-14
-6.83300181e-14
-6.626974903e-14
-6.705970075e-14
-6.778642733e-14
-6.697045932e-14
-6.581886799e-14
-6.607239563e-14
-6.654244245e-14
-6.658329956e-14
-6.821356792e-14
-7.226462631e-14
-7.795455315e-14
-8.35761263e-14
-8.749078407e-14
-8.997690789e-14
-9.370819758e-14
-9.861429992e-14
-1.039591747e-13
-1.087053605e-13
-1.129222436e-13
-1.163931251e-13
-1.193598838e-13
-1.245768527e-13
-1.326849453e-13
-1.431167085e-13
-1.551240632e-13
-1.72750945e-13
-1.923034709e-13
-1.938271433e-13
-2.069017005e-13
-2.269273017e-13
-2.480488748e-13
-2.802945787e-13
-3.142916803e-13
-3.443605696e-13
-3.800040946e-13
-4.252772366e-13
-4.779253323e-13
-5.224616318e-13
-5.753643806e-13
-6.828761555e-13
-7.47338442e-13
-8.081742941e-13
-9.352822687e-13
-1.039341428e-12
-1.209249868e-12
-1.398055636e-12
-1.630453654e-12
-1.393377604e-12
-7.693501342e-13
-4.248997989e-13
-1.940523522e-13
)


100
(
2.923619164e-14
1.517740402e-14
1.04720525e-15
-1.136840835e-14
-2.232604822e-14
-2.996166845e-14
-3.433087352e-14
-3.70599571e-14
-3.872477233e-14
-3.950740413e-14
-4.001189005e-14
-4.003671846e-14
-3.969567821e-14
-3.925334491e-14
-3.894593505e-14
-3.917783997e-14
-3.971253314e-14
-4.124394901e-14
-4.415401282e-14
-4.707745812e-14
-4.91412398e-14
-5.189614022e-14
-5.596911009e-14
-6.045609698e-14
-6.305203089e-14
-6.719179273e-14
-7.307652926e-14
-7.766047658e-14
-7.969952155e-14
-8.210824979e-14
-8.645621564e-14
-9.231256208e-14
-9.336594927e-14
-9.368915096e-14
-9.662122584e-14
-1.008263393e-13
-9.892875613e-14
-9.609314034e-14
-9.816651597e-14
-1.027120202e-13
-1.013802133e-13
-9.965517499e-14
-9.9439249e-14
-1.018722452e-13
-1.015657165e-13
-9.80222915e-14
-9.724251217e-14
-1.003509246e-13
-1.037867943e-13
-1.019371869e-13
-1.020901335e-13
-1.047269604e-13
-1.092577021e-13
-1.145653969e-13
-1.197049085e-13
-1.270946793e-13
-1.350878454e-13
-1.423904674e-13
-1.494221986e-13
-1.570430804e-13
-1.666011748e-13
-1.757573478e-13
-1.836932723e-13
-1.920849339e-13
-1.975788412e-13
-2.030469542e-13
-2.10802979e-13
-2.24024762e-13
-2.438768548e-13
-2.613312922e-13
-2.790575828e-13
-2.972985785e-13
-3.146621047e-13
-3.255496621e-13
-3.346887468e-13
-3.636373519e-13
-4.044274763e-13
-4.424698204e-13
-4.89976585e-13
-5.398023302e-13
-5.88679631e-13
-6.408925365e-13
-7.077073607e-13
-7.842453575e-13
-8.61515993e-13
-9.431987191e-13
-1.045278803e-12
-1.146068429e-12
-1.286761159e-12
-1.406593809e-12
-1.525789225e-12
-1.677058044e-12
-1.87498089e-12
-2.138638184e-12
-2.476294756e-12
-2.840105568e-12
-2.111765859e-12
-1.354963775e-12
-8.374623411e-13
-3.977029718e-13
)


100
(
2.959036272e-14
2.05065376e-14
8.375017764e-15
-4.808777786e-15
-1.668043716e-14
-2.431484434e-14
-3.075713672e-14
-3.421909395e-14
-3.773534556e-14
-4.014859341e-14
-4.227043217e-14
-4.417592629e-14
-4.619113079e-14
-4.787895793e-14
-4.944499806e-14
-5.183066393e-14
-5.483974302e-14
-5.78109098e-14
-6.297313038e-14
-6.981062363e-14
-7.68144713e-14
-8.110085447e-14
-8.649526369e-14
-9.379031934e-14
-1.02463703e-13
-1.056263102e-13
-1.105422283e-13
-1.184800691e-13
-1.233632507e-13
-1.250398861e-13
-1.251117792e-13
-1.334275642e-13
-1.373514307e-13
-1.359516001e-13
-1.325270419e-13
-1.384605784e-13
-1.416470001e-13
-1.377588266e-13
-1.310564709e-13
-1.354684018e-13
-1.398943017e-13
-1.3766831e-13
-1.335687324e-13
-1.347759036e-13
-1.386578529e-13
-1.401337302e-13
-1.394178637e-13
-1.424833849e-13
-1.527200282e-13
-1.644850939e-13
-1.749904213e-13
-1.838870691e-13
-1.956616803e-13
-2.080067224e-13
-2.222787439e-13
-2.376131186e-13
-2.474213523e-13
-2.555431564e-13
-2.625451967e-13
-2.686896983e-13
-2.771932162e-13
-2.850043167e-13
-2.979612229e-13
-3.157850521e-13
-3.409333762e-13
-3.721329409e-13
-4.028872327e-13
-4.306115346e-13
-4.605980937e-13
-4.962570068e-13
-5.329818747e-13
-5.628684207e-13
-5.926576958e-13
-6.306600607e-13
-6.774340398e-13
-7.248363087e-13
-7.846052432e-13
-8.49095058e-13
-9.145129713e-13
-9.724487817e-13
-1.05182929e-12
-1.141443594e-12
-1.234553215e-12
-1.336432811e-12
-1.445747131e-12
-1.570190104e-12
-1.712849312e-12
-1.85208838e-12
-1.97676988e-12
-2.162296183e-12
-2.372273289e-12
-2.610730175e-12
-2.944514442e-12
-3.349348164e-12
-3.921230338e-12
-4.389954353e-12
-2.973955232e-12
-2.066626013e-12
-1.402420095e-12
-7.101154172e-13
)


100
(
2.972621963e-14
2.605142e-14
1.449034754e-14
3.831144295e-16
-1.097320989e-14
-2.004666278e-14
-2.761293378e-14
-3.330327128e-14
-3.79975756e-14
-4.265606235e-14
-4.729270834e-14
-5.126503828e-14
-5.552831992e-14
-6.132643525e-14
-6.570123722e-14
-7.02889966e-14
-7.655692604e-14
-8.265255203e-14
-9.013468316e-14
-9.889896548e-14
-1.103417007e-13
-1.224686674e-13
-1.279097667e-13
-1.33908265e-13
-1.426387565e-13
-1.520587043e-13
-1.546023427e-13
-1.584306888e-13
-1.669081479e-13
-1.70500648e-13
-1.69787818e-13
-1.687122779e-13
-1.798564116e-13
-1.815664224e-13
-1.75961209e-13
-1.725273774e-13
-1.797401911e-13
-1.829078373e-13
-1.748251438e-13
-1.720046942e-13
-1.784200621e-13
-1.864798109e-13
-1.857953918e-13
-1.878807552e-13
-1.94698382e-13
-2.080320934e-13
-2.208191234e-13
-2.334284551e-13
-2.481792724e-13
-2.706066144e-13
-2.908712911e-13
-3.126616632e-13
-3.289381728e-13
-3.399033223e-13
-3.520153513e-13
-3.664534997e-13
-3.811253898e-13
-3.99247842e-13
-4.125242681e-13
-4.26780397e-13
-4.462307854e-13
-4.74224391e-13
-5.133846899e-13
-5.54097141e-13
-5.978271923e-13
-6.44981821e-13
-6.927758725e-13
-7.37633483e-13
-7.757386417e-13
-8.184141953e-13
-8.777258528e-13
-9.508308687e-13
-1.034786361e-12
-1.105987808e-12
-1.173307447e-12
-1.248844804e-12
-1.319124892e-12
-1.384637773e-12
-1.472861593e-12
-1.571761811e-12
-1.674281839e-12
-1.776565111e-12
-1.870479144e-12
-2.007166787e-12
-2.161619039e-12
-2.339606068e-12
-2.510865137e-12
-2.772989828e-12
-2.934060648e-12
-3.157292868e-12
-3.539896874e-12
-3.998674587e-12
-4.603342039e-12
-5.362234127e-12
-6.181332922e-12
-6.698689369e-12
-4.30264275e-12
-3.006559883e-12
-2.084734021e-12
-1.151450666e-12
)


100
(
2.972784302e-14
3.124766891e-14
1.886004435e-14
5.855802525e-15
-5.044686199e-15
-1.656972053e-14
-2.451841266e-14
-3.288736808e-14
-3.964748528e-14
-4.628391696e-14
-5.348555028e-14
-6.204634553e-14
-6.83950348e-14
-7.683840641e-14
-8.85526337e-14
-9.642489899e-14
-1.053909838e-13
-1.171930569e-13
-1.301075795e-13
-1.385391906e-13
-1.485756224e-13
-1.625806162e-13
-1.786861139e-13
-1.828653663e-13
-1.857617289e-13
-1.941707833e-13
-2.020957108e-13
-2.052914479e-13
-2.074045236e-13
-2.151808296e-13
-2.169827691e-13
-2.096744376e-13
-2.155289845e-13
-2.281608162e-13
-2.293669293e-13
-2.187526307e-13
-2.206518964e-13
-2.312650955e-13
-2.372859927e-13
-2.334274765e-13
-2.385062687e-13
-2.54977434e-13
-2.770623538e-13
-2.94238877e-13
-3.094789019e-13
-3.300128879e-13
-3.528863972e-13
-3.775938639e-13
-4.036457398e-13
-4.199251216e-13
-4.388626145e-13
-4.602205644e-13
-4.808899582e-13
-5.025114454e-13
-5.227975699e-13
-5.366411723e-13
-5.668636286e-13
-6.05781207e-13
-6.544688148e-13
-7.139526454e-13
-7.690081325e-13
-8.179398579e-13
-8.681016202e-13
-9.252255664e-13
-9.821083279e-13
-1.031348823e-12
-1.080543766e-12
-1.148483156e-12
-1.228632867e-12
-1.321139898e-12
-1.417149273e-12
-1.507661327e-12
-1.601283199e-12
-1.688285457e-12
-1.76637556e-12
-1.844429517e-12
-1.956946637e-12
-2.075605616e-12
-2.189203605e-12
-2.305404278e-12
-2.421555012e-12
-2.584877332e-12
-2.770749739e-12
-2.982428437e-12
-3.204373374e-12
-3.475521067e-12
-3.829777148e-12
-4.1845385e-12
-4.552870078e-12
-5.055317948e-12
-5.683707537e-12
-6.52651592e-12
-7.433045313e-12
-8.771028745e-12
-1.006142695e-11
-1.011832442e-11
-6.360362615e-12
-4.491279729e-12
-3.060529784e-12
-1.784473523e-12
)


100
(
2.97324128e-14
3.388568651e-14
2.332134844e-14
1.195663574e-14
-4.104078184e-16
-1.224955094e-14
-2.227415483e-14
-3.19507183e-14
-4.185963291e-14
-5.176282426e-14
-6.103327195e-14
-7.33212584e-14
-8.666501628e-14
-9.665746535e-14
-1.113494417e-13
-1.308929096e-13
-1.427704642e-13
-1.565676847e-13
-1.716620029e-13
-1.895733252e-13
-1.970026299e-13
-2.046072626e-13
-2.190453461e-13
-2.347256903e-13
-2.40690426e-13
-2.407037731e-13
-2.464378947e-13
-2.531665279e-13
-2.581483033e-13
-2.600016598e-13
-2.671921068e-13
-2.662473718e-13
-2.594863488e-13
-2.716987588e-13
-2.895660831e-13
-2.907077157e-13
-2.899893007e-13
-3.000028965e-13
-3.240575747e-13
-3.423820222e-13
-3.602828247e-13
-3.80855744e-13
-4.148034363e-13
-4.488434024e-13
-4.899566171e-13
-5.175982304e-13
-5.375534407e-13
-5.594575616e-13
-5.84451803e-13
-6.107008399e-13
-6.425650442e-13
-6.603399123e-13
-6.883919403e-13
-7.283479497e-13
-7.761379158e-13
-8.334136182e-13
-9.107548007e-13
-9.737785292e-13
-1.052043728e-12
-1.135860643e-12
-1.222330743e-12
-1.304369411e-12
-1.360141908e-12
-1.40863246e-12
-1.480780683e-12
-1.565165621e-12
-1.658716154e-12
-1.762318005e-12
-1.854626374e-12
-1.952542439e-12
-2.060592787e-12
-2.160858917e-12
-2.229301042e-12
-2.343457618e-12
-2.49990709e-12
-2.66366931e-12
-2.816046017e-12
-2.977235771e-12
-3.146466472e-12
-3.362652073e-12
-3.634279521e-12
-3.94830645e-12
-4.257677172e-12
-4.535174976e-12
-5.002814514e-12
-5.45449459e-12
-6.031840063e-12
-6.531267033e-12
-7.290302294e-12
-8.165928364e-12
-9.261261806e-12
-1.05766123e-11
-1.224960649e-11
-1.439368479e-11
-1.647448378e-11
-1.446401842e-11
-9.062880071e-12
-6.61885418e-12
-4.565345964e-12
-2.680266888e-12
)


100
(
2.90655479e-14
3.543104292e-14
2.828641329e-14
1.778658523e-14
3.68780652e-15
-7.488620931e-15
-2.018686035e-14
-3.158366022e-14
-4.373131445e-14
-5.778855975e-14
-7.161119197e-14
-8.520924281e-14
-1.051643736e-13
-1.241446413e-13
-1.38097311e-13
-1.6006755e-13
-1.871259112e-13
-2.003486143e-13
-2.124606954e-13
-2.308430109e-13
-2.527984497e-13
-2.581374102e-13
-2.606462504e-13
-2.749661792e-13
-2.902861448e-13
-3.009009537e-13
-2.997243761e-13
-3.015455136e-13
-3.091223974e-13
-3.146886931e-13
-3.273010344e-13
-3.358727455e-13
-3.227699444e-13
-3.361905117e-13
-3.59751849e-13
-3.94416958e-13
-4.112849374e-13
-4.324108848e-13
-4.5985026e-13
-4.991655297e-13
-5.409519527e-13
-5.776188834e-13
-6.061603013e-13
-6.422988908e-13
-6.83426585e-13
-7.28253696e-13
-7.748453619e-13
-8.013968928e-13
-8.194803033e-13
-8.606419531e-13
-9.073050886e-13
-9.652891845e-13
-1.041935296e-12
-1.116324658e-12
-1.196498204e-12
-1.295169697e-12
-1.390866448e-12
-1.505654759e-12
-1.61183774e-12
-1.671458862e-12
-1.743667754e-12
-1.843356177e-12
-1.948024111e-12
-2.053986309e-12
-2.156392994e-12
-2.254498573e-12
-2.360427203e-12
-2.474838523e-12
-2.584828412e-12
-2.633188285e-12
-2.736133353e-12
-2.892877259e-12
-3.094694561e-12
-3.310441602e-12
-3.532386724e-12
-3.789384672e-12
-4.060167528e-12
-4.354769565e-12
-4.732589269e-12
-5.156769428e-12
-5.583613806e-12
-6.018087723e-12
-6.568726093e-12
-7.174206742e-12
-7.879079683e-12
-8.570780128e-12
-9.518043256e-12
-1.048523642e-11
-1.163685579e-11
-1.319717505e-11
-1.49532581e-11
-1.704600845e-11
-1.991828734e-11
-2.306391983e-11
-2.612733851e-11
-1.973598932e-11
-1.268063261e-11
-9.584169498e-12
-6.720778031e-12
-4.147093895e-12
)


100
(
2.761574823e-14
3.736312562e-14
3.287360566e-14
2.14216877e-14
8.972394183e-15
-3.368617678e-15
-1.704440367e-14
-3.137151379e-14
-4.60771026e-14
-6.252630299e-14
-8.367519664e-14
-1.012465693e-13
-1.212977875e-13
-1.498810407e-13
-1.738231217e-13
-1.896613771e-13
-2.165899292e-13
-2.481485222e-13
-2.610678409e-13
-2.694079143e-13
-2.887546703e-13
-3.101762873e-13
-3.181551387e-13
-3.188809834e-13
-3.298328184e-13
-3.462773413e-13
-3.640386644e-13
-3.662399663e-13
-3.663933244e-13
-3.786050233e-13
-3.917244647e-13
-4.197522616e-13
-4.402179576e-13
-4.495154451e-13
-4.789651926e-13
-5.276047243e-13
-5.784721009e-13
-6.334798447e-13
-6.663013605e-13
-7.035773001e-13
-7.460675276e-13
-7.963688928e-13
-8.533049343e-13
-8.906207683e-13
-9.16785397e-13
-9.625662176e-13
-1.023974428e-12
-1.092530659e-12
-1.171979846e-12
-1.241918899e-12
-1.315310212e-12
-1.41489773e-12
-1.523578844e-12
-1.647575309e-12
-1.803387057e-12
-1.893279771e-12
-1.960267394e-12
-2.059791442e-12
-2.167708731e-12
-2.280664367e-12
-2.399736762e-12
-2.487704073e-12
-2.607845855e-12
-2.746399509e-12
-2.895103674e-12
-3.047466599e-12
-3.114699967e-12
-3.205526178e-12
-3.352584927e-12
-3.536887301e-12
-3.761771968e-12
-4.011080638e-12
-4.324519813e-12
-4.652111221e-12
-4.972023027e-12
-5.325253019e-12
-5.855655666e-12
-6.492085516e-12
-7.079591031e-12
-7.632830556e-12
-8.2590334e-12
-9.048390812e-12
-9.974422312e-12
-1.093992416e-11
-1.186906225e-11
-1.323810386e-11
-1.458509144e-11
-1.603733903e-11
-1.816151297e-11
-2.073865882e-11
-2.359185365e-11
-2.666691145e-11
-3.067256089e-11
-3.52842151e-11
-3.863058547e-11
-2.650619301e-11
-1.859105222e-11
-1.394155129e-11
-9.940169907e-12
-5.655971734e-12
)


100
(
2.683251807e-14
3.903483573e-14
3.529059625e-14
2.476576518e-14
1.449133869e-14
2.631062389e-16
-1.353502593e-14
-2.986267595e-14
-4.905551268e-14
-6.743157844e-14
-9.080759516e-14
-1.203026011e-13
-1.405652935e-13
-1.66946579e-13
-2.028963227e-13
-2.287157503e-13
-2.430807993e-13
-2.721309981e-13
-3.058391718e-13
-3.198265333e-13
-3.224560147e-13
-3.424850622e-13
-3.647488076e-13
-3.790009374e-13
-3.801368288e-13
-3.879344857e-13
-4.09022275e-13
-4.328321094e-13
-4.535806134e-13
-4.63410896e-13
-4.812084899e-13
-5.144435735e-13
-5.743210621e-13
-6.230671826e-13
-6.634057638e-13
-7.058617787e-13
-7.660965339e-13
-8.294970812e-13
-9.086088131e-13
-9.713959942e-13
-1.00234418e-12
-1.041124516e-12
-1.100696593e-12
-1.166479574e-12
-1.245892136e-12
-1.301567949e-12
-1.364775695e-12
-1.468508627e-12
-1.599683726e-12
-1.7318518e-12
-1.894435499e-12
-2.017408077e-12
-2.109659979e-12
-2.211029653e-12
-2.341273144e-12
-2.47442399e-12
-2.613674069e-12
-2.655655409e-12
-2.748763818e-12
-2.899972823e-12
-3.044242416e-12
-3.219520786e-12
-3.386129928e-12
-3.488985404e-12
-3.613241646e-12
-3.804854598e-12
-4.02379498e-12
-4.24453866e-12
-4.508788799e-12
-4.880304804e-12
-5.254433543e-12
-5.631888401e-12
-5.987850893e-12
-6.404547379e-12
-6.939357171e-12
-7.623139865e-12
-8.38203387e-12
-9.18883303e-12
-9.992372747e-12
-1.081155224e-11
-1.194661732e-11
-1.321474181e-11
-1.441140991e-11
-1.57996783e-11
-1.750372645e-11
-1.939489441e-11
-2.10698342e-11
-2.362832797e-11
-2.711040868e-11
-3.034324056e-11
-3.456623665e-11
-3.911457948e-11
-4.537349302e-11
-5.158176333e-11
-5.316011769e-11
-3.645560626e-11
-2.7603222e-11
-2.086165059e-11
-1.517493867e-11
-9.689361282e-12
)


100
(
2.682911251e-14
4.008201475e-14
3.673283025e-14
2.943145179e-14
1.902961037e-14
4.954301288e-15
-1.021540427e-14
-2.738342866e-14
-4.890192563e-14
-7.393330782e-14
-9.594435016e-14
-1.283332146e-13
-1.632042302e-13
-1.856009732e-13
-2.161261737e-13
-2.572994117e-13
-2.834580559e-13
-2.948964033e-13
-3.243337801e-13
-3.592937599e-13
-3.772704682e-13
-3.792227507e-13
-3.970166395e-13
-4.224525348e-13
-4.495302995e-13
-4.549616779e-13
-4.641505348e-13
-4.952931366e-13
-5.35410252e-13
-5.850047307e-13
-6.235011716e-13
-6.597275512e-13
-7.15436219e-13
-7.905152121e-13
-8.659493971e-13
-9.495858458e-13
-1.00406488e-12
-1.055454246e-12
-1.132714962e-12
-1.224173205e-12
-1.321397817e-12
-1.382323097e-12
-1.417783989e-12
-1.504274988e-12
-1.613974269e-12
-1.740478759e-12
-1.891183997e-12
-2.027518345e-12
-2.149561538e-12
-2.298326704e-12
-2.445301129e-12
-2.61725712e-12
-2.783201766e-12
-2.83151009e-12
-2.850532104e-12
-2.988832627e-12
-3.148765268e-12
-3.317137638e-12
-3.502165014e-12
-3.619924917e-12
-3.746681024e-12
-3.92003503e-12
-4.173381623e-12
-4.440357221e-12
-4.570650787e-12
-4.807478439e-12
-5.211587571e-12
-5.676700467e-12
-6.173162676e-12
-6.637439776e-12
-7.090403764e-12
-7.615007768e-12
-8.217507702e-12
-8.901730933e-12
-9.719001532e-12
-1.063160586e-11
-1.149680201e-11
-1.243070156e-11
-1.365992666e-11
-1.522683386e-11
-1.684339222e-11
-1.835779696e-11
-2.000069225e-11
-2.224035464e-11
-2.47548118e-11
-2.705268334e-11
-2.97521621e-11
-3.343766508e-11
-3.723834428e-11
-4.195787387e-11
-4.734425308e-11
-5.392639988e-11
-6.297806247e-11
-7.178657161e-11
-7.119993082e-11
-5.126538786e-11
-3.993362384e-11
-3.102850536e-11
-2.315519062e-11
-1.355430208e-11
)


100
(
2.68300422e-14
4.036820358e-14
3.915912447e-14
3.369467174e-14
2.254399393e-14
1.041979062e-14
-6.137322975e-15
-2.529610737e-14
-4.632116976e-14
-7.57453546e-14
-1.05222741e-13
-1.311538642e-13
-1.721197763e-13
-2.103625816e-13
-2.323185869e-13
-2.651470033e-13
-3.098581443e-13
-3.37958943e-13
-3.470847101e-13
-3.759443177e-13
-4.137784255e-13
-4.411704386e-13
-4.453950006e-13
-4.623179126e-13
-4.960124768e-13
-5.343631339e-13
-5.653220525e-13
-5.921314474e-13
-6.355757829e-13
-7.042584496e-13
-7.840968706e-13
-8.79706368e-13
-9.388862076e-13
-9.943135857e-13
-1.077100488e-12
-1.176653904e-12
-1.296468563e-12
-1.380827401e-12
-1.427738026e-12
-1.500263846e-12
-1.62183314e-12
-1.756297523e-12
-1.902330871e-12
-2.010410762e-12
-2.128631783e-12
-2.290123493e-12
-2.463157846e-12
-2.636882052e-12
-2.868761706e-12
-2.982511974e-12
-3.048234278e-12
-3.151590326e-12
-3.301683298e-12
-3.44871698e-12
-3.5808383e-12
-3.665428356e-12
-3.797289511e-12
-4.032204606e-12
-4.234958156e-12
-4.532671982e-12
-4.747868338e-12
-4.861084518e-12
-5.096093519e-12
-5.47165394e-12
-5.917805321e-12
-6.418644092e-12
-6.931696082e-12
-7.492034005e-12
-8.093970693e-12
-8.711890643e-12
-9.311664479e-12
-1.001424654e-11
-1.102555341e-11
-1.216003218e-11
-1.324884857e-11
-1.430702249e-11
-1.553571084e-11
-1.694151745e-11
-1.868961848e-11
-2.071033523e-11
-2.262472232e-11
-2.471536154e-11
-2.760801673e-11
-3.061906617e-11
-3.344220997e-11
-3.689862785e-11
-4.135522456e-11
-4.611658862e-11
-5.125356717e-11
-5.668697618e-11
-6.438727355e-11
-7.23040493e-11
-8.32261251e-11
-9.447469699e-11
-9.166500809e-11
-7.045758315e-11
-5.578099835e-11
-4.439929665e-11
-3.394443787e-11
-1.703125291e-11
)


100
(
2.562061377e-14
4.054046284e-14
4.143179573e-14
3.636619757e-14
2.66836536e-14
1.529593095e-14
-7.772575856e-16
-2.175264795e-14
-4.519717705e-14
-7.233326906e-14
-1.109425861e-13
-1.4268052e-13
-1.730923188e-13
-2.196941954e-13
-2.592984871e-13
-2.792843683e-13
-3.133195192e-13
-3.618453799e-13
-3.948182818e-13
-4.044352428e-13
-4.325848293e-13
-4.765805905e-13
-5.215713347e-13
-5.341096808e-13
-5.536341428e-13
-6.057540238e-13
-6.677682298e-13
-7.464617521e-13
-8.026985696e-13
-8.658521507e-13
-9.595093282e-13
-1.069933429e-12
-1.203765393e-12
-1.309230801e-12
-1.371762497e-12
-1.434283753e-12
-1.554600417e-12
-1.696730134e-12
-1.857997322e-12
-1.947303552e-12
-2.034561277e-12
-2.193361053e-12
-2.400061612e-12
-2.605181042e-12
-2.837464832e-12
-3.012054135e-12
-3.1370384e-12
-3.280386545e-12
-3.446278392e-12
-3.631505772e-12
-3.809880267e-12
-3.821526684e-12
-3.875344425e-12
-4.088564834e-12
-4.3325015e-12
-4.531578485e-12
-4.826179985e-12
-5.014807788e-12
-5.201986992e-12
-5.519351375e-12
-5.890606866e-12
-6.304929478e-12
-6.533369024e-12
-6.958536535e-12
-7.642582216e-12
-8.346458871e-12
-9.058754447e-12
-9.717476878e-12
-1.041405665e-11
-1.126205194e-11
-1.229732403e-11
-1.355415878e-11
-1.479142325e-11
-1.611541622e-11
-1.746824625e-11
-1.891091223e-11
-2.071408819e-11
-2.288954324e-11
-2.523303339e-11
-2.766772449e-11
-3.023632533e-11
-3.337353448e-11
-3.694298362e-11
-4.055989787e-11
-4.475829899e-11
-5.082670858e-11
-5.676986122e-11
-6.251178539e-11
-6.992706281e-11
-7.747815992e-11
-8.728189411e-11
-1.032599374e-10
-1.130185082e-10
-1.266347238e-10
-1.150529212e-10
-9.253988307e-11
-7.521031728e-11
-6.098022419e-11
-4.762404007e-11
-2.522842126e-11
)


100
(
2.35788546e-14
4.0622837e-14
4.293016958e-14
3.80290626e-14
3.127727719e-14
1.942497108e-14
4.570207909e-15
-1.57627141e-14
-4.395712441e-14
-7.091568343e-14
-1.062584882e-13
-1.532463031e-13
-1.834721791e-13
-2.164810429e-13
-2.679599069e-13
-3.091055881e-13
-3.278561416e-13
-3.63479175e-13
-4.163545533e-13
-4.595641229e-13
-4.731930604e-13
-5.022186865e-13
-5.587623141e-13
-6.197652392e-13
-6.67748691e-13
-7.114085992e-13
-7.83139256e-13
-8.816225615e-13
-9.953511618e-13
-1.118893562e-12
-1.209412903e-12
-1.297507586e-12
-1.429795261e-12
-1.591041816e-12
-1.770202382e-12
-1.849201604e-12
-1.904709388e-12
-2.042257393e-12
-2.236682176e-12
-2.45309957e-12
-2.692341812e-12
-2.858203251e-12
-3.017560883e-12
-3.231884055e-12
-3.441288737e-12
-3.69718871e-12
-3.987100051e-12
-4.059705464e-12
-4.050264254e-12
-4.203465721e-12
-4.399982918e-12
-4.621367426e-12
-4.855794845e-12
-5.040589945e-12
-5.255476792e-12
-5.557227508e-12
-5.914724755e-12
-6.377327222e-12
-6.659897121e-12
-6.816192002e-12
-7.281221986e-12
-7.90846187e-12
-8.569607821e-12
-9.296424873e-12
-1.005599051e-11
-1.077726194e-11
-1.160549363e-11
-1.253010997e-11
-1.346594055e-11
-1.462262864e-11
-1.618622718e-11
-1.789672591e-11
-1.94333265e-11
-2.101855839e-11
-2.294735113e-11
-2.540181883e-11
-2.782177607e-11
-3.041587636e-11
-3.31009995e-11
-3.625981023e-11
-4.031473967e-11
-4.504974055e-11
-4.902466125e-11
-5.326656127e-11
-5.97961718e-11
-6.719582345e-11
-7.474556118e-11
-8.308675704e-11
-9.249717519e-11
-1.041171228e-10
-1.160794096e-10
-1.34004749e-10
-1.507740568e-10
-1.661150905e-10
-1.490368656e-10
-1.172583638e-10
-9.728285456e-11
-8.064073477e-11
-6.436071023e-11
-3.357427036e-11
)


100
(
2.274911184e-14
4.028515429e-14
4.305883285e-14
4.027716351e-14
3.50778424e-14
2.404745211e-14
9.346651194e-15
-9.714737991e-15
-3.7051572e-14
-7.161563624e-14
-1.006925868e-13
-1.435836422e-13
-1.954674031e-13
-2.232320166e-13
-2.581032677e-13
-3.142862694e-13
-3.602145569e-13
-3.797255292e-13
-4.167317541e-13
-4.772706609e-13
-5.384610226e-13
-5.630600005e-13