/*--------------------------------*- C++ -*----------------------------------*\
| =========                 |                                                 |
| \\      /  F ield         | OpenFOAM: The Open Source CFD Toolbox           |
|  \\    /   O peration     | Version:  2.3.1                                 |
|   \\  /    A nd           | Web:      www.OpenFOAM.org                      |
|    \\/     M anipulation  |                                                 |
\*---------------------------------------------------------------------------*/
FoamFile
{
    version     2.0;
    format      ascii;
    class       dictionary;
    location    "constant";
    object      DPSI32;
}
// * * * * * * * * * * * * * * * * * * * * * * * * * * * * * * * * * * * * * //

DPSI32_table
100
(

100
(
-2.375214963e-07
-1.949755329e-07
-1.308549866e-07
-9.866866581e-08
-7.960291161e-08
-6.54218832e-08
-5.552395034e-08
-4.77522362e-08
-4.121854335e-08
-3.648036651e-08
-3.083765953e-08
-2.561366381e-08
-2.346646993e-08
-1.920090018e-08
-1.585007374e-08
-1.483762031e-08
-1.140201276e-08
-8.324951922e-09
-8.015177846e-09
-5.6820004e-09
-2.690175585e-09
-1.891005451e-09
-1.073972716e-09
1.730339263e-09
3.744835803e-09
3.691367564e-09
4.778042111e-09
7.422975367e-09
8.847057378e-09
8.682921181e-09
1.0137969e-08
1.251828351e-08
1.325114523e-08
1.30039025e-08
1.366921422e-08
1.622508885e-08
1.775919429e-08
1.739045835e-08
1.789530965e-08
2.012924792e-08
2.147456211e-08
2.107211884e-08
2.143201824e-08
2.328591079e-08
2.433730308e-08
2.389175539e-08
2.360378554e-08
2.600785215e-08
2.812564335e-08
2.762154324e-08
2.765699096e-08
2.961931088e-08
3.105151927e-08
3.057345095e-08
3.08703495e-08
3.221061096e-08
3.272261381e-08
3.216023725e-08
3.250987751e-08
3.433235276e-08
3.517744433e-08
3.451665739e-08
3.503294763e-08
3.672770592e-08
3.718598352e-08
3.641701335e-08
3.75958535e-08
3.912687758e-08
3.870943743e-08
3.869177236e-08
4.011382294e-08
4.061768246e-08
4.001820359e-08
4.129102371e-08
4.209220607e-08
4.148557018e-08
4.256470912e-08
4.307340184e-08
4.294805603e-08
4.375476017e-08
4.354932053e-08
4.418933102e-08
4.4528265e-08
4.468464415e-08
4.49309603e-08
4.515285493e-08
4.5413579e-08
4.538773534e-08
4.576227507e-08
4.557209506e-08
4.548235571e-08
4.565563406e-08
4.587138934e-08
4.6038827e-08
4.602958226e-08
4.65041477e-08
4.758247325e-08
4.894040027e-08
5.785053875e-08
6.500856178e-08
)


100
(
-2.344485017e-07
-1.944623852e-07
-1.322361295e-07
-1.003527455e-07
-8.203766174e-08
-6.73215873e-08
-5.75829091e-08
-5.000639391e-08
-4.351088669e-08
-3.874944322e-08
-3.334979634e-08
-2.82735751e-08
-2.498180258e-08
-2.14162718e-08
-1.81839545e-08
-1.616943571e-08
-1.359563078e-08
-1.088530105e-08
-9.335350878e-09
-7.593140888e-09
-5.351431033e-09
-3.648849384e-09
-2.44158885e-09
-7.683641951e-10
1.259482132e-09
2.582688458e-09
3.466494917e-09
4.769053617e-09
6.530587103e-09
7.771306099e-09
8.610336731e-09
9.842410446e-09
1.138035227e-08
1.244846766e-08
1.291631933e-08
1.360623761e-08
1.490480455e-08
1.636055751e-08
1.7195866e-08
1.778032074e-08
1.87367389e-08
2.0094654e-08
2.102780648e-08
2.147702559e-08
2.209497984e-08
2.323702616e-08
2.407622879e-08
2.432186395e-08
2.469946261e-08
2.573404234e-08
2.736535649e-08
2.835647059e-08
2.870641459e-08
2.944096115e-08
3.080132218e-08
3.169213194e-08
3.186447354e-08
3.227267694e-08
3.307482711e-08
3.39665642e-08
3.301879817e-08
3.268586505e-08
3.587060345e-08
3.752275825e-08
3.482182134e-08
3.423466162e-08
3.924104848e-08
3.908940287e-08
3.553964247e-08
3.790793906e-08
4.139163672e-08
3.843708971e-08
3.716377634e-08
4.349452583e-08
4.298746977e-08
3.729896665e-08
4.211711976e-08
4.459682323e-08
3.84802754e-08
4.300083787e-08
4.354422934e-08
3.992052286e-08
4.588716652e-08
4.061546264e-08
4.111754781e-08
4.573963917e-08
4.028317166e-08
4.429699171e-08
4.318759139e-08
4.257537928e-08
4.451071609e-08
4.55490153e-08
4.72021871e-08
4.892215048e-08
5.046541804e-08
5.373599515e-08
7.127376602e-08
1.241951979e-07
1.501249092e-07
1.347204128e-07
)


100
(
-2.309424232e-07
-1.937424377e-07
-1.33540089e-07
-1.025360564e-07
-8.416141856e-08
-6.969523841e-08
-5.945573173e-08
-5.197427969e-08
-4.560707174e-08
-4.07056485e-08
-3.587681728e-08
-3.081072208e-08
-2.713254622e-08
-2.350854923e-08
-2.024190383e-08
-1.795718272e-08
-1.567190184e-08
-1.307624615e-08
-1.115126697e-08
-9.529414604e-09
-7.560645809e-09
-5.730694073e-09
-4.217675521e-09
-2.71602302e-09
-1.059136905e-09
5.498246075e-10
1.939666164e-09
3.150192082e-09
4.331599513e-09
5.611699111e-09
6.99896975e-09
8.236611646e-09
9.291631104e-09
1.039742294e-08
1.16264079e-08
1.263595874e-08
1.331474377e-08
1.391903312e-08
1.496475097e-08
1.64322824e-08
1.745982971e-08
1.801221377e-08
1.857517613e-08
1.996044444e-08
2.13041747e-08
2.182536376e-08
2.218934522e-08
2.297927816e-08
2.416314319e-08
2.491013749e-08
2.513920633e-08
2.533175886e-08
2.714566342e-08
2.919471303e-08
2.958903869e-08
2.867086276e-08
3.020087626e-08
3.279078607e-08
3.286893882e-08
3.157891935e-08
3.278512116e-08
3.309112263e-08
3.181565504e-08
3.463356364e-08
3.71979692e-08
3.475449391e-08
3.25765154e-08
3.722751596e-08
3.834607246e-08
3.465548353e-08
3.450861342e-08
3.811003196e-08
3.875881404e-08
3.615571757e-08
3.84747575e-08
4.366257996e-08
4.089627422e-08
3.532343626e-08
3.93654028e-08
4.108152024e-08
4.080158389e-08
3.875028151e-08
4.218086647e-08
4.443931254e-08
3.783732666e-08
4.171048712e-08
4.285526907e-08
3.956868926e-08
4.239857666e-08
4.423660058e-08
4.414020475e-08
4.48132864e-08
4.80309911e-08
4.899318621e-08
5.059665045e-08
6.015662345e-08
1.104015705e-07
1.702958061e-07
1.749545723e-07
1.611299143e-07
)


100
(
-2.274222565e-07
-1.926257534e-07
-1.353471383e-07
-1.042354582e-07
-8.532661053e-08
-7.202376574e-08
-6.144957672e-08
-5.393449375e-08
-4.814635904e-08
-4.264875175e-08
-3.82245362e-08
-3.323752807e-08
-2.924917796e-08
-2.596406445e-08
-2.236388297e-08
-1.968117734e-08
-1.762619064e-08
-1.535181405e-08
-1.3061103e-08
-1.134944812e-08
-9.736349091e-09
-7.882117443e-09
-6.190227291e-09
-4.646801782e-09
-3.105535012e-09
-1.574296926e-09
-1.320395433e-10
1.31288901e-09
2.648199345e-09
3.763546303e-09
4.803416595e-09
6.152130031e-09
7.594649651e-09
8.698414627e-09
9.60511395e-09
1.064351694e-08
1.191278003e-08
1.294169224e-08
1.350934569e-08
1.392515882e-08
1.492519431e-08
1.662786327e-08
1.782418946e-08
1.821645615e-08
1.831125796e-08
1.987292035e-08
2.175374505e-08
2.204190987e-08
2.116032426e-08
2.252239739e-08
2.508504499e-08
2.535754202e-08
2.417206317e-08
2.538681143e-08
2.870444487e-08
2.908490531e-08
2.618648548e-08
2.69075234e-08
3.141660582e-08
3.138117926e-08
2.880548196e-08
3.057819573e-08
3.237040666e-08
3.154992079e-08
3.242327868e-08
3.438750802e-08
3.41181288e-08
3.250976868e-08
3.276721586e-08
3.511488518e-08
3.674633967e-08
3.624787053e-08
3.505891969e-08
3.452783956e-08
3.677407353e-08
4.037877555e-08
3.700997735e-08
3.245731873e-08
4.005712984e-08
4.144662395e-08
3.492526115e-08
3.806307092e-08
3.960880985e-08
3.699625403e-08
3.725238059e-08
3.927734887e-08
4.054737393e-08
4.069187175e-08
4.108067438e-08
4.09359562e-08
4.162047674e-08
4.37580545e-08
4.370837958e-08
4.54474853e-08
5.020678907e-08
6.040973015e-08
1.518047436e-07
2.102493302e-07
1.871102901e-07
1.81927532e-07
)


100
(
-2.248528439e-07
-1.91347412e-07
-1.357984289e-07
-1.050906447e-07
-8.723633993e-08
-7.399502588e-08
-6.357139145e-08
-5.566385486e-08
-5.004420788e-08
-4.46524443e-08
-4.019830996e-08
-3.61254073e-08
-3.142041124e-08
-2.796642866e-08
-2.490182229e-08
-2.165606575e-08
-1.929069244e-08
-1.739403066e-08
-1.532191051e-08
-1.324190312e-08
-1.157561374e-08
-1.004059704e-08
-8.33312569e-09
-6.649778762e-09
-5.063109816e-09
-3.549418425e-09
-2.118143771e-09
-8.014537479e-10
5.850373103e-10
1.994681551e-09
3.180347565e-09
4.136070261e-09
5.17001684e-09
6.681254885e-09
8.121449959e-09
8.959185574e-09
9.486592732e-09
1.084519964e-08
1.253771804e-08
1.323066795e-08
1.329306551e-08
1.370109251e-08
1.560210576e-08
1.726145752e-08
1.695487796e-08
1.579677634e-08
1.800733173e-08
2.118829528e-08
2.064104189e-08
1.886190506e-08
2.071341305e-08
2.416943581e-08
2.391111463e-08
2.227244022e-08
2.400574551e-08
2.734671067e-08
2.59686443e-08
2.333352215e-08
2.481772844e-08
2.79745679e-08
2.860117432e-08
2.766436726e-08
2.867868126e-08
3.101371346e-08
3.22137782e-08
3.208327406e-08
3.117534014e-08
3.189087671e-08
3.352870537e-08
3.344246659e-08
3.28409537e-08
3.271096733e-08
3.496179528e-08
3.713720651e-08
3.369233338e-08
2.995150789e-08
3.412812241e-08
3.701175652e-08
3.388366863e-08
3.187009622e-08
3.323219222e-08
3.707245555e-08
3.77464798e-08
3.553664274e-08
3.640480934e-08
3.557115541e-08
3.461641048e-08
3.705220642e-08
3.961526343e-08
3.915654216e-08
3.600239926e-08
3.928263201e-08
4.044245027e-08
4.025823064e-08
4.572682664e-08
6.909150911e-08
1.851360185e-07
2.401206628e-07
2.029066976e-07
1.983217068e-07
)


100
(
-2.220699092e-07
-1.899086819e-07
-1.359924661e-07
-1.05887154e-07
-8.911032304e-08
-7.57616667e-08
-6.559110795e-08
-5.772823704e-08
-5.181288472e-08
-4.72005949e-08
-4.20303869e-08
-3.806378667e-08
-3.417440691e-08
-3.002150599e-08
-2.694347175e-08
-2.41306163e-08
-2.121584879e-08
-1.905262093e-08
-1.734672014e-08
-1.547515482e-08
-1.353943944e-08
-1.190240483e-08
-1.044397225e-08
-8.821777299e-09
-7.095729339e-09
-5.404828095e-09
-3.894183525e-09
-2.624805805e-09
-1.504155166e-09
-2.490589487e-10
1.255059677e-09
2.587429759e-09
3.442596078e-09
4.186562606e-09
5.738689496e-09
7.391331819e-09
8.047613657e-09
7.863969674e-09
9.286887802e-09
1.169702133e-08
1.240235908e-08
1.174386123e-08
1.212695906e-08
1.471167702e-08
1.625846697e-08
1.449274265e-08
1.300583594e-08
1.654493421e-08
1.975322057e-08
1.818399356e-08
1.671511471e-08
1.899405319e-08
2.169009013e-08
2.143612469e-08
2.068511329e-08
2.193037218e-08
2.313871327e-08
2.370266208e-08
2.424779116e-08
2.397255548e-08
2.455204904e-08
2.694044023e-08
2.85944543e-08
2.793997326e-08
2.685392127e-08
2.79276025e-08
3.034324333e-08
3.063687659e-08
2.974535139e-08
2.934079606e-08
3.091490246e-08
3.29401793e-08
3.285002902e-08
3.069991692e-08
3.197376669e-08
3.266532273e-08
2.992006042e-08
2.898194122e-08
3.02341968e-08
3.407441895e-08
3.413494254e-08
2.871672843e-08
2.990810595e-08
3.293115256e-08
3.15915433e-08
3.307257819e-08
3.409496324e-08
3.277429984e-08
3.242059339e-08
3.467124602e-08
3.403554156e-08
3.381857692e-08
3.416691071e-08
3.450808558e-08
4.203502648e-08
9.743192358e-08
2.162982069e-07
2.486677889e-07
2.140865712e-07
2.103485164e-07
)


100
(
-2.186846255e-07
-1.881214926e-07
-1.359019968e-07
-1.074081246e-07
-9.054710444e-08
-7.729101739e-08
-6.73171652e-08
-5.976942889e-08
-5.339101045e-08
-4.891379078e-08
-4.452648154e-08
-3.986067611e-08
-3.632146818e-08
-3.256740694e-08
-2.890977976e-08
-2.618776135e-08
-2.362898827e-08
-2.099757108e-08
-1.90000639e-08
-1.747312857e-08
-1.578000679e-08
-1.396683525e-08
-1.235402596e-08
-1.094920221e-08
-9.345780961e-09
-7.469615624e-09
-5.670004029e-09
-4.182977151e-09
-3.127798791e-09
-2.323577701e-09
-1.220894138e-09
3.873281336e-10
1.774553781e-09
2.383450294e-09
2.940271495e-09
4.660263524e-09
6.389262532e-09
6.446483842e-09
6.018279555e-09
7.858580706e-09
1.044759789e-08
1.071485006e-08
9.813731451e-09
1.065213472e-08
1.34679627e-08
1.37062764e-08
1.182760027e-08
1.158523012e-08
1.466252886e-08
1.651141249e-08
1.54725278e-08
1.536392131e-08
1.663908123e-08
1.905002098e-08
2.048305795e-08
2.074677522e-08
2.059275976e-08
2.089512505e-08
2.245442704e-08
2.362552168e-08
2.318707526e-08
2.219451498e-08
2.186997926e-08
2.422388014e-08
2.628482556e-08
2.581136987e-08
2.576742101e-08
2.536264462e-08
2.666513772e-08
2.917673669e-08
2.888701256e-08
2.672987899e-08
2.700447174e-08
2.926000695e-08
2.884830046e-08
2.862761177e-08
2.854779421e-08
2.920822698e-08
2.935893092e-08
2.62485092e-08
2.684501387e-08
2.817386622e-08
2.704334999e-08
2.74568622e-08
2.802712375e-08
2.741623709e-08
2.888188053e-08
3.094985841e-08
2.911607707e-08
2.712168019e-08
2.893863013e-08
2.936073325e-08
2.806650064e-08
2.919793332e-08
3.445672806e-08
1.219829693e-07
2.448597337e-07
2.512941443e-07
2.209297404e-07
2.196275573e-07
)


100
(
-2.148638769e-07
-1.861126635e-07
-1.360439647e-07
-1.085240341e-07
-9.137133097e-08
-7.892461661e-08
-6.892348552e-08
-6.152871884e-08
-5.576326461e-08
-5.042273576e-08
-4.645677405e-08
-4.19796747e-08
-3.805318068e-08
-3.491884651e-08
-3.132566358e-08
-2.807651998e-08
-2.567298046e-08
-2.337045043e-08
-2.101254132e-08
-1.914063159e-08
-1.77475218e-08
-1.622307578e-08
-1.453484288e-08
-1.295009223e-08
-1.157875318e-08
-9.938871357e-09
-7.803439759e-09
-5.841158042e-09
-4.457803627e-09
-3.791634527e-09
-3.363539983e-09
-2.340618902e-09
-6.377633676e-10
6.880969146e-10
9.552579206e-10
1.509084033e-09
3.493286393e-09
5.022680461e-09
4.534403517e-09
4.157612999e-09
6.279253241e-09
8.6182854e-09
8.486895107e-09
7.806458616e-09
9.024383734e-09
1.08638492e-08
1.093461262e-08
1.027172133e-08
1.061297729e-08
1.222353287e-08
1.427051546e-08
1.539290551e-08
1.565791317e-08
1.52793028e-08
1.506624073e-08
1.726104245e-08
1.952762586e-08
1.944811574e-08
1.889567776e-08
1.892338393e-08
2.057374971e-08
2.163025922e-08
2.104062304e-08
2.103767896e-08
2.093577656e-08
2.122957685e-08
2.35860421e-08
2.522112618e-08
2.286881039e-08
2.03452176e-08
2.233374073e-08
2.466771584e-08
2.525969737e-08
2.553613304e-08
2.472787474e-08
2.642795868e-08
2.6020122e-08
2.190783403e-08
2.239340664e-08
2.483666817e-08
2.498445401e-08
2.448813132e-08
2.412894542e-08
2.344425926e-08
2.224814805e-08
2.286590863e-08
2.486711777e-08
2.662938386e-08
2.416631164e-08
2.031779897e-08
2.264664036e-08
2.424573707e-08
2.362291323e-08
2.429310827e-08
3.200197584e-08
1.459051776e-07
2.632508604e-07
2.475873313e-07
2.231449548e-07
2.22959089e-07
)


100
(
-2.112206223e-07
-1.84067111e-07
-1.359641979e-07
-1.089502991e-07
-9.23500822e-08
-8.02290627e-08
-7.065691583e-08
-6.301842991e-08
-5.749268413e-08
-5.211997352e-08
-4.792573597e-08
-4.440861551e-08
-3.990181036e-08
-3.657733737e-08
-3.380936377e-08
-3.04296553e-08
-2.752656651e-08
-2.540066537e-08
-2.334122755e-08
-2.124570348e-08
-1.944833945e-08
-1.812939777e-08
-1.675648623e-08
-1.515924846e-08
-1.365984081e-08
-1.226010339e-08
-1.054158037e-08
-8.211682973e-09
-6.110866017e-09
-4.936002897e-09
-4.714228141e-09
-4.620295918e-09
-3.600932919e-09
-1.846593154e-09
-7.913926796e-10
-7.153685193e-10
3.125412742e-11
2.121365733e-09
3.092335548e-09
2.507166372e-09
2.586709855e-09
4.488092897e-09
6.137575839e-09
6.174837025e-09
6.231784035e-09
7.064015938e-09
8.654534238e-09
9.864120397e-09
1.029930437e-08
1.041612157e-08
1.035848522e-08
1.116884036e-08
1.318845637e-08
1.454604177e-08
1.4082665e-08
1.330596576e-08
1.343103376e-08
1.517250939e-08
1.705228786e-08
1.73845424e-08
1.772307192e-08
1.770500831e-08
1.760020587e-08
1.891187845e-08
1.987497313e-08
1.875084059e-08
1.721301862e-08
1.8014866e-08
2.01302813e-08
2.017832382e-08
1.995107166e-08
1.914644336e-08
2.000250849e-08
2.345206714e-08
2.120121382e-08
1.706670893e-08
1.858147216e-08
2.121935344e-08
2.137572351e-08
2.092893672e-08
2.070518324e-08
2.026862619e-08
1.953684151e-08
1.995597998e-08
2.120455582e-08
2.080196217e-08
2.006089011e-08
1.887709361e-08
1.849477975e-08
1.967950877e-08
1.934123659e-08
1.802691785e-08
1.709078405e-08
2.049923227e-08
3.424492909e-08
1.64361103e-07
2.724240835e-07
2.402615066e-07
2.225725377e-07
2.243071301e-07
)


100
(
-2.081580734e-07
-1.819097867e-07
-1.351184139e-07
-1.087526337e-07
-9.35061565e-08
-8.132471401e-08
-7.206355641e-08
-6.465104344e-08
-5.901371865e-08
-5.45025331e-08
-4.921532523e-08
-4.579837278e-08
-4.259019672e-08
-3.825118353e-08
-3.5401008e-08
-3.297758479e-08
-2.989550866e-08
-2.721244714e-08
-2.530602981e-08
-2.355585433e-08
-2.165529358e-08
-1.981683761e-08
-1.854407131e-08
-1.733952226e-08
-1.579674902e-08
-1.441963009e-08
-1.29837387e-08
-1.12244333e-08
-8.842077725e-09
-6.691944713e-09
-5.785564985e-09
-5.900791783e-09
-6.002830901e-09
-4.974776394e-09
-3.281017095e-09
-2.552261731e-09
-2.500797715e-09
-1.537521254e-09
2.431013567e-10
1.038553538e-09
8.921446512e-10
1.198802947e-09
2.500302831e-09
4.219114707e-09
5.226803203e-09
5.662253097e-09
5.805612603e-09
6.116819484e-09
7.542059321e-09
9.02173038e-09
9.37097815e-09
9.097553727e-09
8.956165603e-09
9.761355388e-09
1.160886234e-08
1.244116385e-08
1.208081673e-08
1.216550475e-08
1.217863457e-08
1.274507743e-08
1.481233136e-08
1.625328632e-08
1.504710767e-08
1.330719111e-08
1.40024038e-08
1.610490516e-08
1.636239469e-08
1.600423025e-08
1.592602872e-08
1.537656309e-08
1.70114054e-08
1.7762271e-08
1.469899592e-08
1.295235267e-08
1.52996269e-08
1.729372582e-08
1.703240146e-08
1.689710541e-08
1.691882132e-08
1.657426305e-08
1.600512169e-08
1.705849493e-08
1.852804924e-08
1.79425802e-08
1.701095098e-08
1.595833922e-08
1.321825831e-08
1.385540159e-08
1.556201248e-08
1.49414466e-08
1.448981345e-08
1.437237684e-08
1.476407562e-08
1.951700119e-08
4.169986636e-08
1.855991366e-07
2.761135274e-07
2.277081305e-07
2.189974509e-07
2.230165428e-07
)


100
(
-2.050162441e-07
-1.796545582e-07
-1.340294701e-07
-1.090147078e-07
-9.427403984e-08
-8.226882053e-08
-7.317441323e-08
-6.638059556e-08
-6.033669212e-08
-5.595312062e-08
-5.162596806e-08
-4.699892858e-08
-4.399989424e-08
-4.090126974e-08
-3.698589136e-08
-3.452276632e-08
-3.243725132e-08
-2.965376403e-08
-2.709922258e-08
-2.538678829e-08
-2.389659294e-08
-2.210004303e-08
-2.035721339e-08
-1.897175267e-08
-1.781326366e-08
-1.647273103e-08
-1.519825552e-08
-1.376297699e-08
-1.204738816e-08
-9.842491709e-09
-7.762489234e-09
-7.001206216e-09
-7.372283002e-09
-7.510436037e-09
-6.455725603e-09
-5.026093326e-09
-4.352688628e-09
-4.002907351e-09
-3.057307182e-09
-1.590622558e-09
-3.835471792e-10
2.417214731e-10
5.86168629e-10
8.981411511e-10
1.908556897e-09
3.489006245e-09
4.45636408e-09
4.460783169e-09
4.221073074e-09
4.616935395e-09
6.238943698e-09
7.663096305e-09
7.778143661e-09
7.648136848e-09
7.719036621e-09
7.884932262e-09
9.158131974e-09
1.07192984e-08
1.092043363e-08
9.927718517e-09
8.809852118e-09
1.005608166e-08
1.243271782e-08
1.236515872e-08
1.131447316e-08
1.19622928e-08
1.25990109e-08
1.399435826e-08
1.517050153e-08
1.165291132e-08
8.149643751e-09
1.063666487e-08
1.269557997e-08
1.199359278e-08
1.201373285e-08
1.243180765e-08
1.286012977e-08
1.262001773e-08
1.275438262e-08
1.417150389e-08
1.496330129e-08
1.430134583e-08
1.351192716e-08
1.328502352e-08
1.219929633e-08
1.333249019e-08
1.299957527e-08
1.048270386e-08
1.063359826e-08
1.011031535e-08
9.793007695e-09
1.006061733e-08
1.274148071e-08
1.412300028e-08
6.214467964e-08
2.179066024e-07
2.678732154e-07
2.112051476e-07
2.135278734e-07
2.172544142e-07
)


100
(
-2.013230366e-07
-1.770710093e-07
-1.32846287e-07
-1.092642266e-07
-9.468819783e-08
-8.324730908e-08
-7.408160619e-08
-6.756834178e-08
-6.235293502e-08
-5.724534367e-08
-5.333953483e-08
-4.900746017e-08
-4.513176888e-08
-4.256837192e-08
-3.964396613e-08
-3.601567202e-08
-3.384008893e-08
-3.211914826e-08
-2.963564675e-08
-2.71416919e-08
-2.556475928e-08
-2.430958188e-08
-2.255888226e-08
-2.092090231e-08
-1.942664294e-08
-1.832984504e-08
-1.720975111e-08
-1.597394238e-08
-1.467483949e-08
-1.295653056e-08
-1.087721513e-08
-9.223082127e-09
-8.784791549e-09
-9.081108342e-09
-8.945880542e-09
-7.963238015e-09
-6.680456682e-09
-5.71764708e-09
-5.003244252e-09
-4.263055711e-09
-3.187200897e-09
-1.842165558e-09
-8.161488062e-10
-4.274333584e-10
-4.741932786e-10
-2.661147156e-10
9.640463179e-10
2.522368625e-09
2.989687298e-09
2.822536773e-09
2.947923226e-09
3.361340665e-09
4.509645912e-09
5.920760203e-09
6.587300131e-09
6.434515662e-09
5.204575272e-09
4.611122656e-09
6.695203893e-09
8.43801394e-09
7.757543744e-09
6.906998706e-09
7.097956571e-09
8.382377032e-09
1.035488318e-08
1.125934681e-08
9.004077535e-09
6.292300185e-09
8.842145418e-09
9.913563632e-09
7.275777582e-09
7.411782464e-09
8.193326413e-09
8.210865259e-09
8.021998849e-09
8.504512838e-09
1.017024157e-08
1.142202611e-08
1.128027351e-08
1.039211551e-08
9.528347335e-09
9.173470436e-09
9.007869307e-09
1.067401685e-08
1.097892044e-08
1.093092264e-08
8.225890019e-09
6.561252305e-09
7.422035763e-09
5.269404044e-09
5.863615189e-09
7.095657574e-09
9.162986668e-09
1.135549785e-08
9.51074597e-08
2.498077956e-07
2.4913321e-07
1.909028865e-07
2.091383158e-07
2.149129937e-07
)


100
(
-1.970537456e-07
-1.741921263e-07
-1.321449699e-07
-1.09035416e-07
-9.461519826e-08
-8.39219978e-08
-7.534329767e-08
-6.843010513e-08
-6.36562723e-08
-5.872739391e-08
-5.458758828e-08
-5.112425117e-08
-4.688581645e-08
-4.360911254e-08
-4.138535614e-08
-3.865494909e-08
-3.529467824e-08
-3.332041467e-08
-3.194108797e-08
-2.976212264e-08
-2.745419823e-08
-2.580059403e-08
-2.459796662e-08
-2.305958769e-08
-2.150936122e-08
-1.994479197e-08
-1.887607542e-08
-1.796769842e-08
-1.677260562e-08
-1.559725631e-08
-1.408784734e-08
-1.24283929e-08
-1.119842182e-08
-1.04977159e-08
-1.02567362e-08
-9.991321559e-09
-9.201894554e-09
-8.060467078e-09
-6.904532375e-09
-6.037003851e-09
-5.502285943e-09
-4.939644968e-09
-3.833976327e-09
-2.505008763e-09
-1.785684273e-09
-1.737653643e-09
-1.729380144e-09
-1.287814034e-09
-2.339937509e-10
9.103271176e-10
1.683903609e-09
2.042274022e-09
1.755715701e-09
1.109812103e-09
2.194140333e-09
4.159677568e-09
4.188807219e-09
2.976626798e-09
2.272796413e-09
2.813044136e-09
4.837377507e-09
6.877720097e-09
7.21485312e-09
5.514268642e-09
3.33668713e-09
5.317931637e-09
7.074654993e-09
4.669503366e-09
3.237344869e-09
3.998001383e-09
5.3402301e-09
6.485608712e-09
6.972109973e-09
6.873283014e-09
6.699122752e-09
6.352839376e-09
6.143186157e-09
6.044684209e-09
5.529551749e-09
5.47852441e-09
7.278679205e-09
8.464777742e-09
7.069837425e-09
5.828707474e-09
5.728245836e-09
7.514524283e-09
6.754684219e-09
3.793733449e-09
3.022707095e-09
2.410131352e-09
3.161772051e-09
4.489904868e-09
6.540014322e-09
2.021367251e-08
1.270476262e-07
2.569953371e-07
2.266765387e-07
1.764939632e-07
1.969668021e-07
2.020584566e-07
)


100
(
-1.930478751e-07
-1.714636624e-07
-1.308802704e-07
-1.081618306e-07
-9.484791819e-08
-8.429125101e-08
-7.610798566e-08
-6.935845479e-08
-6.455415763e-08
-6.070588175e-08
-5.567464287e-08
-5.232392149e-08
-4.925671448e-08
-4.510449062e-08
-4.228460336e-08
-4.040250148e-08
-3.790346408e-08
-3.480114453e-08
-3.29462109e-08
-3.1882327e-08
-3.000478875e-08
-2.782284687e-08
-2.604850494e-08
-2.490412687e-08
-2.360726973e-08
-2.209810569e-08
-2.067087261e-08
-1.940565925e-08
-1.85543589e-08
-1.763044813e-08
-1.648027285e-08
-1.526347591e-08
-1.389582647e-08
-1.290997112e-08
-1.220949185e-08
-1.150706381e-08
-1.095131324e-08
-1.032029885e-08
-9.436700407e-09
-8.345057738e-09
-7.360839963e-09
-6.81421378e-09
-6.472423024e-09
-5.837919956e-09
-4.703369787e-09
-3.599990554e-09
-3.048762384e-09
-2.791937134e-09
-2.554475404e-09
-2.385103199e-09
-1.668056314e-09
-3.458258901e-10
3.654754238e-10
-3.015274753e-10
-1.403328524e-09
-1.398159074e-09
5.23998002e-10
1.891464788e-09
1.875602963e-09
2.345230224e-09
2.033871191e-09
1.757057359e-09
3.445828112e-09
4.168148784e-09
1.513922467e-09
-6.91621762e-10
2.276060851e-10
2.105591908e-09
2.950234025e-09
3.032041032e-09
3.132705651e-09
3.579323149e-09
3.973801413e-09
3.870887103e-09
3.265078707e-09
2.452989311e-09
3.333962202e-09
4.49781284e-09
4.302422516e-09
4.34305249e-09
4.411819139e-09
2.755202758e-09
1.437346613e-09
4.536011043e-09
6.517582822e-09
2.997842696e-09
4.030914703e-10
1.222440963e-09
2.910520738e-09
3.032632341e-09
2.725866287e-09
4.16756035e-09
8.508316029e-09
2.727067328e-08
1.408516115e-07
2.500310919e-07
2.049532934e-07
1.635781349e-07
1.920751743e-07
2.046554313e-07
)


100
(
-1.893573413e-07
-1.68613499e-07
-1.292360725e-07
-1.073631818e-07
-9.476929619e-08
-8.453781396e-08
-7.657279052e-08
-7.059057488e-08
-6.51607938e-08
-6.155426449e-08
-5.789289612e-08
-5.332585336e-08
-5.029605262e-08
-4.739608309e-08
-4.361306456e-08
-4.114522722e-08
-3.959581062e-08
-3.733252686e-08
-3.454001849e-08
-3.275583682e-08
-3.188043761e-08
-3.030375648e-08
-2.82335515e-08
-2.628510113e-08
-2.522840186e-08
-2.423512886e-08
-2.269651046e-08
-2.137717409e-08
-2.007224913e-08
-1.917887817e-08
-1.844988246e-08
-1.747629694e-08
-1.651238528e-08
-1.546298128e-08
-1.438491082e-08
-1.353024332e-08
-1.272042769e-08
-1.199207855e-08
-1.150519342e-08
-1.088516288e-08
-9.969284263e-09
-8.957412639e-09
-8.185099829e-09
-7.723692753e-09
-7.269135171e-09
-6.604012281e-09
-5.714365378e-09
-4.723440843e-09
-3.981499119e-09
-3.839959924e-09
-4.363251393e-09
-4.650938947e-09
-3.369567877e-09
-1.922707845e-09
-2.159668395e-09
-2.802765407e-09
-2.638928917e-09
-1.762810414e-09
-3.318356693e-11
1.467104135e-09
1.270434053e-09
-1.094967327e-09
-3.046494226e-09
-1.195589149e-09
-1.217088361e-10
-1.274004364e-09
-1.101916016e-09
-4.613749518e-10
-8.796707321e-11
-8.369681653e-11
-1.344024114e-10
5.06153317e-10
1.878645408e-09
2.610258704e-09
2.247458131e-09
1.488705806e-09
1.166548796e-09
1.434919357e-09
1.137612534e-09
2.126496534e-12
1.290086032e-09
2.288800834e-09
2.067478717e-09
1.925652203e-09
-1.147229033e-09
-1.47451324e-09
5.89379455e-10
1.515676737e-09
2.119628282e-09
2.018812333e-09
3.075884956e-09
5.516545896e-09
7.472330624e-09
3.17877987e-08
1.485858462e-07
2.382520837e-07
1.856530972e-07
1.487607703e-07
1.747043477e-07
1.867704242e-07
)


100
(
-1.856976105e-07
-1.657213452e-07
-1.274289112e-07
-1.068190858e-07
-9.436773851e-08
-8.465001791e-08
-7.676755053e-08
-7.112827313e-08
-6.6554196e-08
-6.217785944e-08
-5.901976115e-08
-5.524153629e-08
-5.116790553e-08
-4.851007885e-08
-4.587461974e-08
-4.242556159e-08
-4.016973625e-08
-3.893061584e-08
-3.698915328e-08
-3.450334581e-08
-3.264647881e-08
-3.186557082e-08
-3.06382428e-08
-2.866316576e-08
-2.685902462e-08
-2.554115436e-08
-2.458156507e-08
-2.335833655e-08
-2.209878325e-08
-2.102786296e-08
-1.999018396e-08
-1.937020046e-08
-1.864730075e-08
-1.757423392e-08
-1.66785807e-08
-1.569574557e-08
-1.481660028e-08
-1.403362987e-08
-1.32229999e-08
-1.264869515e-08
-1.218289868e-08
-1.145493301e-08
-1.053102116e-08
-9.602754647e-09
-8.829886238e-09
-8.34971725e-09
-8.086473037e-09
-7.886479175e-09
-7.122352686e-09
-6.000282402e-09
-5.629624461e-09
-6.202976163e-09
-6.632890372e-09
-5.960071188e-09
-4.433670801e-09
-3.190216148e-09
-2.610691791e-09
-2.560888625e-09
-3.514489703e-09
-3.497888797e-09
-1.975420269e-09
-2.31500674e-09
-4.41119143e-09
-5.245763597e-09
-4.415739839e-09
-3.109107337e-09
-2.023173611e-09
-1.441929097e-09
-1.343400279e-09
-1.331056557e-09
-1.233467557e-09
-9.621979768e-10
-6.292208278e-10
-9.354272376e-10
-1.633970822e-09
-1.636572183e-09
-9.934558462e-11
9.981404716e-10
5.582692846e-10
-7.002552058e-10
-1.218688328e-09
-2.343817641e-10
-6.249286847e-10
-9.371753367e-10
-2.334729066e-09
-3.015138038e-09
-1.062456206e-09
2.743742376e-10
1.74359836e-09
1.706358552e-09
7.551797011e-10
6.060050289e-09
9.78005353e-09
4.29552813e-08
1.513411971e-07
2.197625076e-07
1.675812746e-07
1.321004241e-07
1.559827797e-07
1.668408881e-07
)


100
(
-1.81328922e-07
-1.624393071e-07
-1.258600634e-07
-1.05969318e-07
-9.362156168e-08
-8.44993629e-08
-7.732528206e-08
-7.134532205e-08
-6.73075012e-08
-6.31622121e-08
-5.961012576e-08
-5.669456546e-08
-5.286608536e-08
-4.927451199e-08
-4.701597924e-08
-4.46560477e-08
-4.151815371e-08
-3.935442549e-08
-3.841147888e-08
-3.687591977e-08
-3.462214025e-08
-3.253653675e-08
-3.182723889e-08
-3.10217621e-08
-2.910409893e-08
-2.745461157e-08
-2.58447851e-08
-2.496607237e-08
-2.425655468e-08
-2.308538851e-08
-2.209582961e-08
-2.103845256e-08
-2.018246914e-08
-1.956752672e-08
-1.870645929e-08
-1.77780894e-08
-1.695664045e-08
-1.60596301e-08
-1.526673115e-08
-1.452153478e-08
-1.370791067e-08
-1.309120829e-08
-1.254179793e-08
-1.192352027e-08
-1.119408492e-08
-1.032716637e-08
-9.651614587e-09
-9.595202929e-09
-9.887695732e-09
-9.667727335e-09
-8.553702478e-09
-7.5754758e-09
-7.366052749e-09
-7.140340149e-09
-6.530760014e-09
-5.85048462e-09
-4.801371544e-09
-3.896987274e-09
-4.683656515e-09
-6.572531623e-09
-7.283212074e-09
-5.878202294e-09
-5.085193685e-09
-5.285449028e-09
-4.743503948e-09
-4.165176488e-09
-3.836929153e-09
-3.72458747e-09
-3.642362505e-09
-3.485533041e-09
-3.413066006e-09
-2.750933931e-09
-1.969621447e-09
-2.100956929e-09
-2.484155169e-09
-2.000007826e-09
-7.610528616e-10
-1.706895695e-09
-3.622983305e-09
-2.45864982e-09
-4.365366001e-10
6.052305399e-10
-2.073826908e-09
-5.314685093e-09
-4.864895744e-09
-2.732227103e-09
-6.555867298e-10
3.966107409e-10
1.834622218e-09
3.085002409e-09
5.538969353e-09
9.086637181e-09
1.374371082e-08
5.190240654e-08
1.463615767e-07
1.976691826e-07
1.481643278e-07
1.169266378e-07
1.406756291e-07
1.531402587e-07
)


100
(
-1.765736268e-07
-1.589870467e-07
-1.242739176e-07
-1.048158581e-07
-9.313813879e-08
-8.402744812e-08
-7.727876295e-08
-7.159280045e-08
-6.762894316e-08
-6.451856216e-08
-6.013116898e-08
-5.72119321e-08
-5.469694172e-08
-5.081338365e-08
-4.76157138e-08
-4.57672293e-08
-4.367154395e-08
-4.087695506e-08
-3.873207266e-08
-3.80218493e-08
-3.691831609e-08
-3.479804108e-08
-3.287644392e-08
-3.172859665e-08
-3.094997428e-08
-2.956897624e-08
-2.805509142e-08
-2.681011873e-08
-2.567818056e-08
-2.485277089e-08
-2.401191256e-08
-2.302461227e-08
-2.211218538e-08
-2.103270903e-08
-2.046885383e-08
-1.991701886e-08
-1.881819118e-08
-1.79427934e-08
-1.721867384e-08
-1.623810486e-08
-1.542177719e-08
-1.478156629e-08
-1.409178384e-08
-1.364091318e-08
-1.328931557e-08
-1.273837558e-08
-1.2132461e-08
-1.152077436e-08
-1.121651002e-08
-1.136793304e-08
-1.114267687e-08
-1.01349286e-08
-8.85835497e-09
-7.816025868e-09
-7.234714377e-09
-7.482762503e-09
-8.163905664e-09
-7.783710388e-09
-6.898452271e-09
-7.550695039e-09
-8.67507664e-09
-8.497784282e-09
-7.585119083e-09
-6.740062173e-09
-5.822540398e-09
-5.008740941e-09
-4.686514296e-09
-4.565378997e-09
-4.443019815e-09
-4.126929468e-09
-3.835399788e-09
-4.088645777e-09
-4.55377028e-09
-4.514152103e-09
-3.964619494e-09
-2.693266053e-09