/*--------------------------------*- C++ -*----------------------------------*\
| =========                 |                                                 |
| \\      /  F ield         | OpenFOAM: The Open Source CFD Toolbox           |
|  \\    /   O peration     | Version:  2.3.1                                 |
|   \\  /    A nd           | Web:      www.OpenFOAM.org                      |
|    \\/     M anipulation  |                                                 |
\*---------------------------------------------------------------------------*/
FoamFile
{
    version     2.0;
    format      ascii;
    class       dictionary;
    location    "constant";
    object      DPSI37;
}
// * * * * * * * * * * * * * * * * * * * * * * * * * * * * * * * * * * * * * //

DPSI37_table
100
(

100
(
-1.165874455e-10
-4.665943256e-11
4.344071722e-11
6.887071374e-11
7.582546234e-11
7.446211374e-11
6.938643181e-11
6.445947188e-11
5.889372603e-11
5.438933237e-11
4.827353635e-11
4.249468265e-11
3.961930212e-11
3.511133608e-11
3.138373603e-11
2.979194035e-11
2.675083048e-11
2.395283197e-11
2.313276572e-11
2.12126283e-11
1.889229079e-11
1.79490469e-11
1.712013878e-11
1.52980951e-11
1.385461281e-11
1.350741678e-11
1.276797741e-11
1.142586321e-11
1.053359211e-11
1.028801614e-11
9.513494241e-12
8.412021022e-12
7.887247515e-12
7.723099352e-12
7.414893271e-12
6.754547968e-12
6.246858189e-12
6.100791373e-12
5.814690231e-12
5.221305867e-12
4.771469676e-12
4.650715332e-12
4.426098844e-12
3.96882196e-12
3.637947829e-12
3.563615968e-12
3.490453695e-12
3.17840951e-12
2.86798164e-12
2.811632948e-12
2.716071604e-12
2.448749209e-12
2.221520122e-12
2.174109984e-12
2.06209671e-12
1.869350155e-12
1.72833618e-12
1.627197085e-12
1.49287632e-12
1.380524574e-12
1.275900478e-12
1.162076896e-12
1.090988043e-12
1.046717688e-12
9.682318488e-13
8.721579198e-13
8.189015195e-13
7.737278691e-13
6.921619313e-13
6.287412022e-13
6.152154524e-13
5.712208361e-13
4.943916576e-13
4.708581144e-13
4.345098908e-13
3.628575348e-13
3.505970225e-13
3.202260039e-13
2.687041024e-13
2.530632304e-13
2.063697149e-13
1.869154004e-13
1.659726774e-13
1.368802501e-13
1.195205915e-13
9.891105152e-14
8.715940009e-14
7.167987375e-14
6.870939613e-14
5.989327814e-14
5.021348904e-14
4.037316084e-14
3.258980398e-14
2.562931519e-14
1.858109253e-14
1.248602115e-14
8.373293609e-15
5.887741275e-15
2.547070371e-15
8.348856344e-16
)


100
(
-1.599835456e-10
-8.789025095e-11
5.995864169e-12
4.297545692e-11
6.280734706e-11
5.530791063e-11
5.937942184e-11
6.139817705e-11
5.462737462e-11
5.728835061e-11
4.625444056e-11
4.144251096e-11
3.959349674e-11
3.323343236e-11
3.278141674e-11
3.225053205e-11
2.644401144e-11
2.715656162e-11
2.885411109e-11
2.389922939e-11
2.331137339e-11
2.450941817e-11
2.23436528e-11
1.914660835e-11
1.984782012e-11
2.008629432e-11
1.725269586e-11
1.549984059e-11
1.668465918e-11
1.703789139e-11
1.455022942e-11
1.32340352e-11
1.351091015e-11
1.327707911e-11
1.188809129e-11
1.095624978e-11
1.077444835e-11
1.117714675e-11
1.054834685e-11
9.4602891e-12
8.950212862e-12
9.079808478e-12
8.783458713e-12
7.968237519e-12
7.380454191e-12
7.207669461e-12
6.977699412e-12
6.364208876e-12
5.760933213e-12
5.441923352e-12
5.391651245e-12
5.10848481e-12
4.68277254e-12
4.435786384e-12
4.35834675e-12
4.103398039e-12
3.482204657e-12
2.500133611e-12
8.963427457e-13
-6.28787808e-13
9.211983488e-13
4.17054582e-12
3.768918914e-12
9.95118596e-13
1.086644726e-12
3.05390226e-12
2.286930224e-12
5.26485893e-13
1.441495113e-12
2.522233023e-12
1.253421285e-12
5.431868876e-13
1.521467809e-12
3.642732514e-13
-1.01333671e-12
1.584923949e-12
1.966856637e-12
-1.049544476e-13
1.605626234e-12
1.309698393e-12
2.224319886e-13
1.29137482e-12
-8.698227977e-14
6.972724587e-13
1.054337785e-12
-3.952288192e-13
6.733064667e-13
-2.262958341e-14
-3.338742275e-14
3.076148429e-13
-3.884072144e-13
-7.88610476e-13
-8.831549235e-13
-9.192454439e-13
-7.036109591e-13
-8.556821008e-14
1.045989917e-12
7.179556294e-12
7.274230272e-12
3.144229085e-12
)


100
(
-2.042386504e-10
-1.259733319e-10
-2.187382998e-11
2.935977941e-11
5.221103729e-11
5.083691676e-11
5.391156051e-11
5.659643482e-11
5.426585249e-11
5.466529479e-11
5.23145305e-11
4.522655855e-11
4.374730675e-11
3.872154462e-11
3.585911449e-11
3.633130791e-11
3.390697066e-11
3.078438481e-11
3.158751603e-11
3.116024597e-11
2.820802465e-11
2.734264529e-11
2.717040328e-11
2.559064053e-11
2.351144319e-11
2.273751647e-11
2.20479867e-11
2.064192914e-11
1.939139312e-11
1.874985598e-11
1.838117386e-11
1.741758335e-11
1.612226266e-11
1.510378597e-11
1.453373997e-11
1.394439615e-11
1.306571745e-11
1.208878159e-11
1.147529738e-11
1.134500833e-11
1.080529104e-11
9.856766249e-12
8.866685224e-12
8.831419306e-12
9.079547733e-12
8.519738669e-12
7.680838462e-12
7.215665194e-12
7.189459064e-12
6.656907385e-12
5.495258587e-12
4.040853934e-12
3.955571594e-12
4.470474819e-12
4.060334958e-12
2.868358457e-12
2.953835268e-12
3.478374569e-12
2.00938596e-12
-1.236821306e-12
-3.115714653e-12
-6.380730389e-13
3.433610998e-12
5.171233182e-12
3.466797553e-12
2.046528977e-12
2.498681698e-12
3.318475841e-12
2.887395597e-12
2.329061589e-12
2.565716736e-12
2.623165933e-12
2.206840497e-12
6.153226003e-13
-2.513032327e-12
-4.690898018e-12
-1.529489533e-12
1.762105606e-12
8.156311211e-13
4.491303932e-13
-7.881740421e-13
-1.07070195e-12
-2.402351494e-12
-2.801624762e-12
-6.177212016e-13
-2.327750751e-12
-2.854109094e-12
-3.089946735e-12
-5.613134842e-12
-7.128281164e-12
-7.091276854e-12
-8.592122919e-12
-1.234641576e-11
-1.157075514e-11
-1.026104934e-11
-1.175858377e-11
2.651156024e-11
6.54690632e-11
4.723032459e-11
2.829672665e-11
)


100
(
-2.409244846e-10
-1.591000409e-10
-3.725305295e-11
1.720133097e-11
3.642792672e-11
4.794890905e-11
5.289773363e-11
5.562180122e-11
5.847941567e-11
5.589312348e-11
5.553202365e-11
5.030179834e-11
4.737208887e-11
4.513989421e-11
4.056723665e-11
3.894643228e-11
3.805911251e-11
3.574257569e-11
3.345423132e-11
3.302863284e-11
3.224658749e-11
3.003593647e-11
2.824396656e-11
2.749423254e-11
2.655194665e-11
2.458621567e-11
2.273678505e-11
2.197217515e-11
2.149354425e-11
2.025207961e-11
1.844893942e-11
1.765966093e-11
1.749919106e-11
1.620462083e-11
1.447085948e-11
1.330095276e-11
1.323450253e-11
1.285712916e-11
1.162138126e-11
9.907378811e-12
8.819088136e-12
9.08199263e-12
8.531651458e-12
7.078093516e-12
5.019241307e-12
5.454954925e-12
6.841747379e-12
6.182688978e-12
3.700935335e-12
3.850765912e-12
5.711611893e-12
4.98398016e-12
3.23990628e-12
3.644500422e-12
6.090288102e-12
5.797430139e-12
2.662805666e-12
2.432218077e-12
5.639550074e-12
4.685535585e-12
8.754845701e-13
-6.693495416e-14
1.912096696e-12
4.017482202e-12
5.377752315e-12
5.227011478e-12
3.979724211e-12
2.157269967e-12
-1.885548785e-13
-1.614320917e-12
-2.440613118e-12
-4.114868481e-12
-5.699363429e-12
-4.978011016e-12
-4.057014279e-12
-6.893183581e-12
-6.379065348e-12
-3.406950425e-12
-6.73817499e-12
-7.185760533e-12
-4.950813475e-12
-8.159766992e-12
-7.517995875e-12
-6.770663226e-12
-1.15727537e-11
-1.520735824e-11
-1.764262171e-11
-1.872731169e-11
-2.150039017e-11
-2.700442079e-11
-2.918657423e-11
-3.043091786e-11
-3.588377749e-11
-4.420870578e-11
-5.140318541e-11
-4.739751179e-11
1.228210249e-10
2.301461835e-10
1.439808441e-10
1.073108786e-10
)


100
(
-2.593559621e-10
-1.800002108e-10
-5.840760618e-11
3.681099066e-13
3.029199055e-11
4.505374186e-11
5.160971077e-11
5.522278437e-11
5.81702328e-11
5.785239485e-11
5.724781681e-11
5.545800224e-11
5.059957285e-11
4.780037304e-11
4.48760662e-11
4.098986094e-11
3.893105608e-11
3.761561986e-11
3.550952474e-11
3.281716646e-11
3.171027887e-11
3.11917315e-11
2.912151443e-11
2.613703429e-11
2.491301844e-11
2.471064054e-11
2.281153841e-11
2.007124305e-11
1.897515638e-11
1.945414433e-11
1.862246061e-11
1.655039662e-11
1.375968213e-11
1.405305519e-11
1.445542362e-11
1.210222609e-11
8.1624752e-12
7.828096465e-12
9.268651971e-12
7.472822307e-12
6.289923984e-12
4.938485806e-12
6.976789107e-12
8.841819405e-12
6.547937206e-12
1.314103146e-12
3.574690809e-12
8.884369827e-12
6.339971883e-12
1.805406262e-12
3.189192133e-12
7.569488571e-12
6.011136331e-12
3.181961503e-12
4.721128036e-12
8.094093274e-12
4.758702164e-12
2.855493486e-13
1.542654593e-12
4.971602943e-12
5.120610068e-12
1.887972432e-12
-4.64974511e-13
-7.43211264e-13
-1.080661901e-12
-2.430033344e-12
-4.191999845e-12
-4.288261682e-12
-3.911615631e-12
-5.233147204e-12
-6.884783616e-12
-9.94510691e-12
-1.379722035e-11
-1.604359711e-11
-1.384902534e-11
-1.2307664e-11
-1.491369188e-11
-1.402254476e-11
-1.399506338e-11
-1.914900838e-11
-2.179530141e-11
-2.327019575e-11
-2.839035778e-11
-3.329064127e-11
-3.318774395e-11
-3.592314901e-11
-4.430937413e-11
-5.13074958e-11
-5.724682814e-11
-5.69607461e-11
-6.539700531e-11
-7.532134962e-11
-8.946725449e-11
-1.150867384e-10
-1.351893329e-10
-7.648488884e-11
3.375595256e-10
5.169577794e-10
3.242403956e-10
2.775224398e-10
)


100
(
-2.776970107e-10
-1.987701651e-10
-7.513795509e-11
-1.223028211e-11
2.366835097e-11
4.137165749e-11
4.986689252e-11
5.483840603e-11
5.743975196e-11
5.908810905e-11
5.746834686e-11
5.621593988e-11
5.349879767e-11
4.901679748e-11
4.594609253e-11
4.275311392e-11
3.835462286e-11
3.574859722e-11
3.475443162e-11
3.27174258e-11
2.918954894e-11
2.723569605e-11
2.716257837e-11
2.51068561e-11
2.05947594e-11
1.734110021e-11
1.763970913e-11
1.769960503e-11
1.568473747e-11
1.264670519e-11
1.328991198e-11
1.441208879e-11
1.262853027e-11
7.938939119e-12
9.620131351e-12
1.364584654e-11
1.174779556e-11
2.954649528e-12
2.400331973e-12
9.087421853e-12
7.330011601e-12
3.386321191e-12
2.220500017e-12
8.532965501e-12
1.120149784e-11
3.720163307e-12
-4.089935388e-12
4.081463869e-12
1.11990481e-11
4.637869838e-12
-6.010416503e-13
2.775240058e-12
6.727925792e-12
4.452939526e-12
1.73931302e-12
2.218266334e-12
5.221391461e-13
-3.315034664e-12
-5.942793872e-12
-9.333962955e-12
-9.811584847e-12
-5.791959841e-12
-3.707083771e-12
-6.40783134e-12
-9.788962177e-12
-9.654597701e-12
-6.867118902e-12
-7.237252148e-12
-9.98395119e-12
-1.345816216e-11
-1.537650074e-11
-1.700006979e-11
-2.171811784e-11
-2.958604047e-11
-3.213288314e-11
-2.778307262e-11
-2.998508064e-11
-3.804289118e-11
-4.280411813e-11
-4.231381765e-11
-4.687758997e-11
-6.174959421e-11
-6.456810718e-11
-6.443981416e-11
-7.349095297e-11
-7.508027033e-11
-7.973590502e-11
-1.092336941e-10
-1.224733748e-10
-1.039862286e-10
-1.297041371e-10
-1.595471805e-10
-1.909664608e-10
-2.433639647e-10
-2.805073308e-10
4.222413388e-11
7.438911717e-10
8.558110185e-10
6.166096051e-10
5.966413904e-10
)


100
(
-2.956454752e-10
-2.162816055e-10
-8.947580796e-11
-2.161377881e-11
1.616747297e-11
3.590830014e-11
4.675431384e-11
5.259315188e-11
5.503062772e-11
5.716875368e-11
5.715311824e-11
5.488014113e-11
5.31546511e-11
4.948528918e-11
4.465752799e-11
4.155324493e-11
3.782700923e-11
3.210791093e-11
2.878861091e-11
2.863766265e-11
2.68162544e-11
2.208024832e-11
1.831830505e-11
1.904614435e-11
1.750982525e-11
1.018496485e-11
6.716970154e-12
9.785129162e-12
1.225565318e-11
1.053109796e-11
5.53586634e-12
8.375117591e-12
1.294133226e-11
9.184573942e-12
3.058167684e-12
8.282010398e-12
1.56531745e-11
8.845334415e-12
-2.385438475e-12
1.554690635e-12
1.09253575e-11
6.913034156e-12
7.683779069e-13
1.50493321e-12
1.056413624e-11
7.093262338e-12
-3.322175804e-12
-7.380335069e-12
8.29567448e-13
4.541156361e-12
-3.140087031e-12
-6.162833659e-12
-7.802955317e-12
-5.236474965e-12
-4.843295236e-12
-7.566664464e-12
-1.078529779e-11
-1.287056283e-11
-1.173105869e-11
-1.227434621e-11
-1.621462703e-11
-2.018950238e-11
-2.39361249e-11
-1.998175634e-11
-1.56429766e-11
-1.982708283e-11
-2.446877992e-11
-3.143586704e-11
-3.200706376e-11
-2.765867994e-11
-3.093514056e-11
-3.920685609e-11
-4.187298109e-11
-3.970475094e-11
-4.618423034e-11
-5.488382245e-11
-6.260364499e-11
-6.653005246e-11
-7.096143131e-11
-8.439815437e-11
-9.15947257e-11
-1.019739264e-10
-1.187143928e-10
-1.262671297e-10
-1.316980683e-10
-1.462950469e-10
-1.608787076e-10
-1.90961677e-10
-2.217188138e-10
-2.11068445e-10
-2.229459335e-10
-2.899047687e-10
-3.73854963e-10
-4.702661886e-10
-5.287206557e-10
3.157396502e-10
1.422163e-09
1.340020951e-09
1.106125625e-09
1.176938431e-09
)


100
(
-3.128365423e-10
-2.32114117e-10
-1.00764224e-10
-3.140928003e-11
6.992865812e-12
2.963685804e-11
4.181436099e-11
4.867023557e-11
5.20696265e-11
5.318787378e-11
5.422300817e-11
5.200951482e-11
4.947785291e-11
4.756319626e-11
4.24400001e-11
3.680190792e-11
3.358724904e-11
2.872779188e-11
2.151784509e-11
1.724549619e-11
1.839654209e-11
1.753604107e-11
1.173425233e-11
5.789461055e-12
8.888962514e-12
1.050298105e-11
5.412610117e-13
-2.003052361e-12
3.887372704e-12
9.436729671e-12
2.863116002e-12
-1.03434432e-12
9.928541101e-12
1.48084261e-11
5.17820932e-12
-1.751197893e-12
1.023718977e-11
1.70651635e-11
3.636142724e-12
-8.694006193e-12
3.235904057e-13
1.075571716e-11
3.55290846e-12
-4.134368683e-12
-1.53714168e-12
1.650407495e-12
-5.674770422e-12
-1.466453254e-11
-1.890865086e-11
-1.849599454e-11
-1.361014768e-11
-1.28929062e-11
-1.598004517e-11
-2.152190058e-11
-2.80036952e-11
-2.140466105e-11
-1.400339064e-11
-1.816374188e-11
-2.299815561e-11
-2.84051695e-11
-2.73864405e-11
-2.817707346e-11
-3.693689381e-11
-4.329510164e-11
-4.985701638e-11
-5.261228386e-11
-4.625976126e-11
-4.338050147e-11
-5.69035786e-11
-7.229512716e-11
-6.97771479e-11
-6.531753033e-11
-7.019958876e-11
-7.72074395e-11
-8.556260165e-11
-8.47957622e-11
-9.360596916e-11
-1.175370657e-10
-1.278927829e-10
-1.367131239e-10
-1.547603843e-10
-1.713644493e-10
-1.881893051e-10
-2.114868865e-10
-2.433069086e-10
-2.667475041e-10
-2.804287128e-10
-3.077621803e-10
-3.510528469e-10
-3.90020294e-10
-4.523348673e-10
-5.465572053e-10
-6.663071328e-10
-8.383643298e-10
-8.664117756e-10
8.469545947e-10
2.457493662e-09
2.006518234e-09
1.913832694e-09
2.206724834e-09
)


100
(
-3.241045674e-10
-2.439938895e-10
-1.119975963e-10
-4.237590462e-11
-2.567692217e-12
2.181053667e-11
3.552734945e-11
4.281150077e-11
4.698115815e-11
4.735110845e-11
4.812849467e-11
4.835018776e-11
4.301849208e-11
4.017512521e-11
3.824816041e-11
3.112816861e-11
2.499651903e-11
2.075384348e-11
1.451455596e-11
7.332134934e-12
1.782157407e-12
5.79570625e-12
8.377249884e-12
2.5265041e-12
-2.980907863e-12
-3.13361592e-14
3.674001451e-12
-5.786577346e-12
-7.607040586e-12
1.25953009e-12
5.958341568e-12
-4.632912528e-12
-4.944522517e-12
1.248409947e-11
1.26396905e-11
-6.919153261e-14
-3.78682766e-12
1.153228049e-11
1.004985579e-11
-7.232987043e-12
-1.446423571e-11
-5.789147207e-12
-9.122590511e-14
-9.214696206e-12
-1.500071586e-11
-2.038166784e-11
-2.063979485e-11
-2.266473904e-11
-2.911726881e-11
-3.323447132e-11
-3.803434954e-11
-3.771280069e-11
-2.908529249e-11
-2.624542246e-11
-3.432238854e-11
-4.275856164e-11
-4.886352416e-11
-4.462006045e-11
-3.699686692e-11
-4.136163243e-11
-4.795412724e-11
-5.808302654e-11
-6.7221904e-11
-6.729324026e-11
-6.897528552e-11
-7.899915463e-11
-9.06668773e-11
-9.371473763e-11
-9.175875523e-11
-1.033575935e-10
-1.185309041e-10
-1.315870598e-10
-1.297835566e-10
-1.147817194e-10
-1.320273279e-10
-1.633666202e-10
-1.725797277e-10
-1.832120301e-10
-2.064639495e-10
-2.265668866e-10
-2.441085246e-10
-2.678696024e-10
-3.149629238e-10
-3.567177728e-10
-3.815600953e-10
-4.158696484e-10
-4.810452479e-10
-5.158355695e-10
-5.313262013e-10
-6.188957737e-10
-7.483468905e-10
-9.284554766e-10
-1.149193893e-09
-1.322391609e-09
-1.167534344e-09
1.634266806e-09
3.778448787e-09
2.860285069e-09
3.156751408e-09
3.897298684e-09
)


100
(
-3.292222557e-10
-2.525993361e-10
-1.237476028e-10
-5.365179524e-11
-1.284984814e-11
1.240369449e-11
2.761294749e-11
3.514519935e-11
3.968423682e-11
4.15941923e-11
3.838117522e-11
3.877567563e-11
3.800110742e-11
2.861588479e-11
2.563439707e-11
2.411256002e-11
1.467635766e-11
5.05719058e-12
3.596995218e-12
2.266312207e-12
-4.862883197e-12
-1.224862725e-11
-5.757537598e-12
1.72569476e-12
-3.840477028e-12
-7.719557316e-12
-8.230264747e-12
-3.665035969e-12
-9.14571311e-12
-1.048178197e-11
1.836937134e-12
-2.424938783e-12
-1.522227444e-11
-6.022436858e-12
1.344879571e-11
5.753963534e-12
-1.026588952e-11
-8.751651695e-12
2.550907236e-13
-6.906789128e-12
-2.331531713e-11
-3.158888938e-11
-3.125203127e-11
-2.291603863e-11
-2.407249674e-11
-3.049884654e-11
-3.948334622e-11
-4.988245725e-11
-4.643085646e-11
-4.279997428e-11
-4.886694556e-11
-5.323265681e-11
-5.820197285e-11
-6.126083179e-11
-5.413169935e-11
-5.629583629e-11
-7.110424893e-11
-7.965957216e-11
-8.874430844e-11
-9.088753184e-11
-7.945875413e-11
-7.52528659e-11
-9.180189416e-11
-1.130145883e-10
-1.196632687e-10
-1.159353883e-10
-1.267870353e-10
-1.460084009e-10
-1.636843729e-10
-1.806407047e-10
-1.793241841e-10
-1.818284078e-10
-2.061508942e-10
-2.282496309e-10
-2.33947771e-10
-2.507745321e-10
-2.826573229e-10
-3.027518628e-10
-3.191991698e-10
-3.480991505e-10
-4.009989313e-10
-4.447874841e-10
-4.724898163e-10
-5.128704646e-10
-5.745330229e-10
-6.644661612e-10
-7.337398605e-10
-7.661121333e-10
-8.539665606e-10
-9.913191283e-10
-1.208252201e-09
-1.421993902e-09
-1.725360943e-09
-2.02513004e-09
-1.280135373e-09
2.980033125e-09
5.373927937e-09
3.830533843e-09
4.87674199e-09
6.368025336e-09
)


100
(
-3.3228037e-10
-2.590205595e-10
-1.339350376e-10
-6.495098469e-11
-2.40092141e-11
1.998306284e-12
1.790517821e-11
2.660452258e-11
2.953168303e-11
3.171533696e-11
3.020880489e-11
2.441426439e-11
2.405815308e-11
2.121329581e-11
7.917671369e-12
5.539882097e-12
6.325309609e-12
-3.903575977e-12
-1.417838555e-11
-1.146974941e-11
-8.050642257e-12
-1.435294259e-11
-1.992691127e-11
-1.603123854e-11
-7.276263433e-12
-8.28045234e-12
-1.148737288e-11
-1.636947627e-11
-1.282252991e-11
-1.122908183e-11
-8.985825684e-12
-4.736719121e-12
-1.579593697e-11
-2.494628243e-11
-1.164204702e-11
-2.090114008e-14
-1.159344552e-11
-2.402423842e-11
-2.941687377e-11
-2.981804844e-11
-3.319124627e-11
-4.193870058e-11
-4.951174382e-11
-6.081362467e-11
-5.944365166e-11
-4.71412288e-11
-4.788296434e-11
-5.804189791e-11
-6.952161168e-11
-8.028267387e-11
-7.417250951e-11
-6.762969802e-11
-7.912557562e-11
-8.912579085e-11
-9.934095482e-11
-1.157806113e-10
-1.14937692e-10
-1.098510792e-10
-1.205548318e-10
-1.324924734e-10
-1.472548015e-10
-1.437323328e-10
-1.310039216e-10
-1.481905057e-10
-1.794859154e-10
-1.96088965e-10
-2.104672828e-10
-2.126391504e-10
-2.149013606e-10
-2.564660466e-10
-3.042685626e-10
-3.02378563e-10
-3.100979233e-10
-3.566670059e-10
-3.942609473e-10
-4.118492816e-10
-4.231591227e-10
-4.543016039e-10
-5.048574754e-10
-5.593861992e-10
-6.079197618e-10
-6.43127111e-10
-6.716180786e-10
-7.744346628e-10
-8.75720657e-10
-9.352508528e-10
-1.01850577e-09
-1.138913618e-09
-1.290748515e-09
-1.511661793e-09
-1.793902955e-09
-2.149370373e-09
-2.631604636e-09
-2.890921398e-09
-7.138178514e-10
5.177152093e-09
7.066645604e-09
4.853318257e-09
7.064390334e-09
9.637242601e-09
)


100
(
-3.323795024e-10
-2.63139057e-10
-1.429541246e-10
-7.633413745e-11
-3.593415231e-11
-9.227568048e-12
6.208133648e-12
1.574106907e-11
1.90092702e-11
1.835622016e-11
1.766048846e-11
1.114455913e-11
3.868488749e-12
3.82663846e-12
-6.125607051e-13
-1.624762281e-11
-1.573349211e-11
-1.043278311e-11
-1.879623137e-11
-2.973651893e-11
-2.432720936e-11
-1.553353004e-11
-2.15730286e-11
-2.58033343e-11
-2.688317088e-11
-1.757038375e-11
-1.269033343e-11
-1.689891109e-11
-2.125888631e-11
-2.534304644e-11
-2.541941911e-11
-7.8441634e-12
-1.535455851e-11
-3.915774523e-11
-4.262328021e-11
-3.628214714e-11
-3.017541445e-11
-3.628727848e-11
-4.306636377e-11
-5.768292512e-11
-6.457743896e-11
-6.085256199e-11
-6.579823166e-11
-7.438285533e-11
-8.340756549e-11
-9.462735485e-11
-8.817555529e-11
-7.344168889e-11
-8.306814611e-11
-1.00701851e-10
-1.122289963e-10
-1.283514135e-10
-1.307288373e-10
-1.264243444e-10
-1.365738129e-10
-1.473247718e-10
-1.705613246e-10
-1.949746652e-10
-1.780132841e-10
-1.676337991e-10
-1.947847995e-10
-2.211064972e-10
-2.4198749e-10
-2.544796782e-10
-2.530891032e-10
-2.583447019e-10
-2.921068791e-10
-3.370092117e-10
-3.23244718e-10
-3.403791768e-10
-4.19883802e-10
-4.747766416e-10
-5.125263824e-10
-5.329324145e-10
-5.658771904e-10
-6.115854388e-10
-6.469876987e-10
-6.974545589e-10
-7.578202023e-10
-7.991596285e-10
-8.505323592e-10
-9.425395021e-10
-1.035936437e-09
-1.104479014e-09
-1.174928271e-09
-1.330818456e-09
-1.495524691e-09
-1.608618305e-09
-1.895188786e-09
-2.230998751e-09
-2.573637805e-09
-3.093469938e-09
-3.652681182e-09
-3.842067751e-09
6.960481804e-10
8.242773466e-09
8.755130848e-09
5.961715141e-09
9.784588054e-09
1.376313069e-08
)


100
(
-3.299098107e-10
-2.650180352e-10
-1.513138255e-10
-8.748356222e-11
-4.784439391e-11
-2.137598067e-11
-5.824528494e-12
2.402738444e-12
6.157036269e-12
2.578442121e-12
6.381172918e-14
-2.603728663e-12
-1.471176518e-11
-2.151336378e-11
-1.879424826e-11
-2.24888295e-11
-3.775085826e-11
-3.468017442e-11
-2.429048162e-11
-2.962434283e-11
-3.858789922e-11
-3.565056608e-11
-2.59011631e-11
-2.796364603e-11
-3.228107572e-11
-3.888610133e-11
-3.151275404e-11
-2.106640673e-11
-2.570398559e-11
-3.146406442e-11
-4.234491519e-11
-4.435584284e-11
-3.379502595e-11
-4.609726789e-11
-6.387835859e-11
-6.559641654e-11
-7.38303368e-11
-6.594309638e-11
-5.802260361e-11
-7.015443048e-11
-8.350529941e-11
-1.016686353e-10
-9.990968476e-11
-8.989771489e-11
-9.822899012e-11
-1.126003771e-10
-1.251389906e-10
-1.40561768e-10
-1.424392759e-10
-1.379442162e-10
-1.473782201e-10
-1.599182592e-10
-1.780321794e-10
-2.147411593e-10
-2.10794639e-10
-1.855644883e-10
-2.071158342e-10
-2.401674847e-10
-2.704921486e-10
-2.993800568e-10
-2.974631422e-10
-2.935436621e-10
-3.176779027e-10
-3.567931763e-10
-4.0963416e-10
-3.849944916e-10
-3.671659137e-10
-4.334377389e-10
-4.957491112e-10
-5.545893912e-10
-5.987972433e-10
-6.326080205e-10
-6.794365751e-10
-7.239670462e-10
-7.683502587e-10
-8.744017245e-10
-1.001694955e-09
-1.038159234e-09
-1.040673983e-09
-1.101083042e-09
-1.213710061e-09
-1.329006261e-09
-1.40651323e-09
-1.492294734e-09
-1.696476096e-09
-1.856174355e-09
-1.928874842e-09
-2.282850135e-09
-2.768763662e-09
-3.14910394e-09
-3.482070362e-09
-4.052374855e-09
-4.833629627e-09
-4.585967045e-09
2.896492892e-09
1.135773335e-08
1.036855327e-08
7.441617411e-09
1.322188978e-08
1.917140066e-08
)


100
(
-3.249737329e-10
-2.651678567e-10
-1.584492232e-10
-9.783239299e-11
-5.998034338e-11
-3.440245431e-11
-1.866258128e-11
-1.280183756e-11
-9.917060151e-12
-1.104691556e-11
-2.233251061e-11
-2.486134753e-11
-2.708985101e-11
-4.273080207e-11
-4.64497542e-11
-3.933242105e-11
-4.0935405e-11
-5.439652687e-11
-5.066016594e-11
-3.60581264e-11
-3.792745611e-11
-4.625502191e-11
-4.832578799e-11
-3.829786142e-11
-3.548037941e-11
-4.193274222e-11
-4.877145019e-11
-5.262379782e-11
-4.348397907e-11
-4.087375739e-11
-5.164419765e-11
-6.404970259e-11
-8.316395581e-11
-8.117223545e-11
-7.339128569e-11
-8.545990632e-11
-9.445010733e-11
-1.096039561e-10
-1.146995137e-10
-9.643975879e-11
-9.138278638e-11
-1.089789819e-10
-1.273974803e-10
-1.448471888e-10
-1.438364583e-10
-1.389499734e-10
-1.590738429e-10
-1.812691681e-10
-1.963634048e-10
-2.214297754e-10
-2.248344342e-10
-2.066105016e-10
-2.123659537e-10
-2.431128348e-10
-2.824044349e-10
-3.180378305e-10
-3.007244741e-10
-3.035133082e-10
-3.604378301e-10
-3.806933141e-10
-4.205682096e-10
-4.608726713e-10
-4.363229555e-10
-4.300861771e-10
-4.983088181e-10
-5.701429042e-10
-6.006700076e-10
-6.267635813e-10
-6.77735187e-10
-7.380464077e-10
-7.935619312e-10
-8.31843299e-10
-8.805913805e-10
-9.701397767e-10
-1.104792072e-09
-1.229378842e-09
-1.292629759e-09
-1.339295572e-09
-1.383555282e-09
-1.514564425e-09
-1.687398612e-09
-1.772229917e-09
-1.87362371e-09
-2.053201107e-09
-2.217045224e-09
-2.336059285e-09
-2.649067333e-09
-3.215019715e-09
-3.570567859e-09
-3.975416759e-09
-4.564876966e-09
-5.441008228e-09
-6.239731391e-09
-4.811111404e-09
5.393694993e-09
1.423316883e-08
1.195131858e-08
9.100556434e-09
1.747422892e-08
2.588593465e-08
)


100
(
-3.184482441e-10
-2.636041069e-10
-1.642520961e-10
-1.076856093e-10
-7.190944166e-11
-4.749993627e-11
-3.261340201e-11
-2.696684862e-11
-2.944387849e-11
-3.057071617e-11
-3.651688856e-11
-5.095625523e-11
-5.221706946e-11
-5.323544576e-11
-6.819485153e-11
-6.838760361e-11
-5.643387226e-11
-5.621549255e-11
-6.725225557e-11
-6.483050936e-11
-4.841514117e-11
-4.640729676e-11
-5.499300611e-11
-6.512855253e-11
-5.558486707e-11
-4.63438611e-11
-5.724442511e-11
-6.657701121e-11
-8.054419509e-11
-7.986668216e-11
-7.227484683e-11
-8.185226384e-11
-9.63558933e-11
-1.140998104e-10
-1.305555403e-10
-1.200349948e-10
-1.118038783e-10
-1.232397208e-10
-1.373949187e-10
-1.554074403e-10
-1.49429686e-10
-1.298010628e-10
-1.428535865e-10
-1.712998191e-10
-1.921119623e-10
-2.203430215e-10
-2.307564655e-10
-2.273884605e-10
-2.427085022e-10
-2.594251031e-10
-2.860618581e-10
-3.243834294e-10
-2.985610921e-10
-2.726736162e-10
-3.325144744e-10
-3.945412391e-10
-4.372613799e-10
-4.863169899e-10
-4.755168485e-10
-4.609160855e-10
-4.926841488e-10
-5.672155877e-10
-6.551949333e-10
-6.111615713e-10
-6.170615407e-10
-7.34284662e-10
-8.192404823e-10
-8.911937854e-10
-9.221862976e-10
-9.507454856e-10
-1.022037748e-09
-1.107333656e-09
-1.18682957e-09
-1.283802941e-09
-1.393133986e-09
-1.489316978e-09
-1.594308277e-09
-1.736348447e-09
-1.932064544e-09
-2.080727309e-09
-2.111371954e-09
-2.178083802e-09
-2.422069832e-09
-2.702849846e-09
-2.865349236e-09
-3.019035339e-09
-3.362249927e-09
-3.82283648e-09
-4.41108049e-09
-5.040013875e-09
-5.763854305e-09
-6.910368633e-09
-7.826899075e-09
-5.16471348e-09
7.782394292e-09
1.69413584e-08
1.365054634e-08
1.084645397e-08
2.28707925e-08
3.483229662e-08
)


100
(
-3.108912519e-10
-2.606681091e-10
-1.685867103e-10
-1.170337749e-10
-8.352855063e-11
-6.010301682e-11
-4.790542265e-11
-4.282257893e-11
-4.621258575e-11
-5.386406144e-11
-5.773388081e-11
-6.718486505e-11
-8.009522849e-11
-7.777613541e-11
-7.595619077e-11
-8.888267728e-11
-8.750284155e-11
-7.192812475e-11
-6.933652687e-11
-7.849163446e-11
-8.05939286e-11
-6.419432009e-11
-5.732628159e-11
-6.796567139e-11
-7.924524032e-11
-8.167415351e-11
-7.52839355e-11
-8.165624014e-11
-9.674820145e-11
-1.120657587e-10
-1.314581942e-10
-1.2343461e-10
-1.138088767e-10
-1.300935128e-10
-1.458759713e-10
-1.70679362e-10
-1.702775744e-10
-1.485204518e-10
-1.511439e-10
-1.719052969e-10
-1.913001402e-10
-2.136602053e-10
-2.139442037e-10
-2.123676849e-10
-2.381048366e-10
-2.61337584e-10
-2.834896383e-10
-3.366773285e-10
-3.368685469e-10
-3.021951307e-10
-3.228402878e-10
-3.615831008e-10
-4.044679787e-10
-4.432649156e-10
-4.51135473e-10
-4.740501083e-10
-5.329543471e-10
-5.618471799e-10
-6.416810064e-10
-6.681494378e-10
-5.982982876e-10
-6.441141685e-10
-7.588663626e-10
-8.484968381e-10
-9.366699719e-10
-9.893506644e-10
-1.022833235e-09
-1.085258354e-09
-1.155243544e-09
-1.19528187e-09
-1.25054197e-09
-1.422549662e-09
-1.605317869e-09
-1.678388468e-09
-1.740625647e-09
-1.869085481e-09
-2.006625721e-09
-2.177929568e-09
-2.367135521e-09
-2.487986256e-09
-2.609363526e-09
-2.894052563e-09
-3.165893859e-09
-3.246674068e-09
-3.461129271e-09
-3.876033863e-09
-4.321039549e-09
-4.835932767e-09
-5.167805622e-09
-5.952598028e-09
-7.035543172e-09
-8.107959573e-09
-9.088454825e-09
-5.083825978e-09
9.664494809e-09
1.901109024e-08
1.536615033e-08
1.259169033e-08
2.91548017e-08
4.545348403e-08
)


100
(
-2.99812571e-10
-2.551166054e-10
-1.720674098e-10
-1.251374684e-10
-9.421335762e-11
-7.264143056e-11
-6.226359432e-11
-6.041746919e-11
-6.416462256e-11
-7.582642989e-11
-8.382098476e-11
-8.634977564e-11
-9.746847393e-11
-1.064913087e-10
-9.942268213e-11
-9.495907056e-11
-1.059344731e-10
-1.058875074e-10
-8.806598343e-11
-8.217230965e-11
-9.074329593e-11
-1.011302184e-10
-8.642897938e-11
-7.365705353e-11
-8.844990673e-11
-1.023378037e-10
-1.228208877e-10
-1.205675985e-10
-1.160515882e-10
-1.35946311e-10
-1.515905398e-10
-1.742240003e-10
-1.793731309e-10
-1.589674682e-10
-1.575877039e-10
-1.772856083e-10
-2.001700811e-10
-2.239579163e-10
-2.141735262e-10
-1.976942651e-10
-2.239129481e-10
-2.558141261e-10
-2.82548987e-10
-3.187490302e-10
-3.296693414e-10
-3.201079568e-10
-3.351623081e-10
-3.635975642e-10
-4.080712241e-10
-4.56622293e-10
-4.250478172e-10
-4.117037814e-10
-4.877768381e-10
-5.529971834e-10
-5.917212784e-10
-6.618418879e-10
-6.782752592e-10
-6.573998608e-10
-7.147950123e-10
-7.926315691e-10
-8.694026455e-10
-8.4412354e-10
-8.894209074e-10
-1.050337968e-09
-1.157956767e-09
-1.243901823e-09
-1.285656422e-09
-1.332537705e-09
-1.424066067e-09
-1.551774832e-09
-1.725412336e-09
-1.824243911e-09
-1.879423928e-09
-1.983123871e-09
-2.081829392e-09
-2.259031215e-09
-2.521694782e-09
-2.749902217e-09
-2.930108039e-09
-3.04094963e-09
-3.188861842e-09
-3.430956719e-09
-3.69215931e-09
-4.021632084e-09
-4.608304554e-09
-4.980254811e-09
-5.040578593e-09
-5.606885316e-09
-6.327136641e-09
-7.152068888e-09
-8.948647747e-09
-9.847020955e-09
-1.009252972e-08
-3.950019467e-09
1.250550358e-08
2.064735652e-08
1.683980577e-08
1.438291022e-08
3.604573596e-08
5.728683417e-08
)


100
(
-2.866622489e-10
-2.478141452e-10
-1.741753575e-10
-1.318393908e-10
-1.040862016e-10
-8.506934941e-11
-7.607404317e-11
-7.870281256e-11
-8.46066935e-11
-9.327682626e-11
-1.109931003e-10
-1.141048938e-10
-1.114495631e-10
-1.241450467e-10
-1.296025867e-10
-1.182712478e-10
-1.125924265e-10
-1.216030288e-10
-1.251274654e-10
-1.071676028e-10
-9.723979064e-11
-1.078378396e-10
-1.194781845e-10
-1.191616942e-10
-1.109495784e-10
-1.203815756e-10
-1.399001973e-10
-1.608599126e-10
-1.790041715e-10
-1.751305984e-10
-1.748798136e-10
-1.897587989e-10
-2.079871696e-10
-2.347837888e-10
-2.135012437e-10
-1.866484642e-10
-2.140132753e-10
-2.453659138e-10
-2.710649778e-10
-3.08265564e-10
-3.099171101e-10
-3.031372841e-10
-3.336261292e-10
-3.601802584e-10
-4.037923944e-10
-4.745989077e-10
-4.467323889e-10
-3.967544752e-10
-4.504156262e-10
-5.124554003e-10
-5.675314323e-10
-6.27116408e-10
-6.362118368e-10
-6.427497106e-10
-6.954124227e-10
-7.665034416e-10