/*--------------------------------*- C++ -*----------------------------------*\
| =========                 |                                                 |
| \\      /  F ield         | OpenFOAM: The Open Source CFD Toolbox           |
|  \\    /   O peration     | Version:  2.3.1                                 |
|   \\  /    A nd           | Web:      www.OpenFOAM.org                      |
|    \\/     M anipulation  |                                                 |
\*---------------------------------------------------------------------------*/
FoamFile
{
    version     2.0;
    format      ascii;
    class       dictionary;
    location    "constant";
    object      DPSI6;
}
// * * * * * * * * * * * * * * * * * * * * * * * * * * * * * * * * * * * * * //

DPSI6_table
100
(

100
(
-3.10821229e-07
-4.614543559e-07
-5.500496642e-07
-6.435787703e-07
-7.126282501e-07
-7.775669962e-07
-8.733645567e-07
-9.15938925e-07
-9.957273265e-07
-1.050409676e-06
-1.079840098e-06
-1.165123117e-06
-1.188102336e-06
-1.241713431e-06
-1.338827223e-06
-1.366606014e-06
-1.404496523e-06
-1.543618489e-06
-1.574011263e-06
-1.599097686e-06
-1.714261539e-06
-1.783881318e-06
-1.808352411e-06
-1.855291155e-06
-1.965766216e-06
-1.989592277e-06
-2.012204163e-06
-2.092181278e-06
-2.241831101e-06
-2.272020367e-06
-2.294253846e-06
-2.358695706e-06
-2.446914639e-06
-2.46852694e-06
-2.492055551e-06
-2.568449828e-06
-2.743185043e-06
-2.843294726e-06
-2.871672666e-06
-2.934427637e-06
-3.071916957e-06
-3.176927801e-06
-3.20413411e-06
-3.255156307e-06
-3.355488734e-06
-3.44962166e-06
-3.479217782e-06
-3.51896974e-06
-3.701437696e-06
-3.877632968e-06
-3.981332908e-06
-4.033227473e-06
-4.165222549e-06
-4.297154525e-06
-4.385507128e-06
-4.436857739e-06
-4.520982723e-06
-4.608422539e-06
-4.671949551e-06
-4.745507919e-06
-4.84748922e-06
-5.052844561e-06
-5.207135224e-06
-5.249140019e-06
-5.35909604e-06
-5.625872075e-06
-5.800875623e-06
-5.807154884e-06
-6.050263226e-06
-6.31088598e-06
-6.44685266e-06
-6.553534037e-06
-6.905024603e-06
-7.120068563e-06
-7.132258179e-06
-7.387977871e-06
-7.829159717e-06
-7.881585469e-06
-8.136661624e-06
-8.660355819e-06
-8.702438849e-06
-9.161889358e-06
-9.546300201e-06
-9.623536732e-06
-1.040800936e-05
-1.053468574e-05
-1.100331877e-05
-1.15781957e-05
-1.179898541e-05
-1.249901236e-05
-1.280990949e-05
-1.337703432e-05
-1.36420488e-05
-1.413711988e-05
-1.432124602e-05
-1.474253841e-05
-1.477471098e-05
-1.418673743e-05
-1.219888784e-05
-1.099315678e-05
)


100
(
-3.106487647e-07
-4.602526887e-07
-5.510364112e-07
-6.465981233e-07
-7.071222998e-07
-7.855068219e-07
-8.579817457e-07
-9.298841625e-07
-9.919620074e-07
-1.072554339e-06
-1.102433867e-06
-1.183043631e-06
-1.220860387e-06
-1.263521006e-06
-1.358663449e-06
-1.409864066e-06
-1.444572468e-06
-1.5492384e-06
-1.631436473e-06
-1.65975744e-06
-1.741640033e-06
-1.830275289e-06
-1.887395936e-06
-1.927553982e-06
-2.006541017e-06
-2.072783582e-06
-2.111836633e-06
-2.171045581e-06
-2.276361204e-06
-2.364540882e-06
-2.424382379e-06
-2.476503872e-06
-2.543332834e-06
-2.59974437e-06
-2.647723381e-06
-2.704653296e-06
-2.826944046e-06
-2.939485744e-06
-3.040972595e-06
-3.127488425e-06
-3.230050294e-06
-3.327625673e-06
-3.413459471e-06
-3.51068915e-06
-3.589761523e-06
-3.668038115e-06
-3.736101395e-06
-3.811459173e-06
-3.957254146e-06
-4.090071995e-06
-4.212362543e-06
-4.336862444e-06
-4.512528354e-06
-4.620750023e-06
-4.710787575e-06
-4.808283144e-06
-4.969609934e-06
-5.04175167e-06
-5.106177689e-06
-5.197671322e-06
-5.371121397e-06
-5.475865686e-06
-5.640905898e-06
-5.807406786e-06
-5.950082445e-06
-6.100278233e-06
-6.323951642e-06
-6.554296349e-06
-6.701435596e-06
-6.946605096e-06
-7.213554612e-06
-7.492791637e-06
-7.72595817e-06
-8.003443271e-06
-8.297635727e-06
-8.521460375e-06
-8.698893559e-06
-9.056541757e-06
-9.466679047e-06
-9.803633321e-06
-1.015227438e-05
-1.048670454e-05
-1.103744667e-05
-1.11730706e-05
-1.17828125e-05
-1.223724322e-05
-1.263317679e-05
-1.320807194e-05
-1.367774724e-05
-1.420002405e-05
-1.463008218e-05
-1.514195284e-05
-1.553613775e-05
-1.587316069e-05
-1.624056313e-05
-1.651770073e-05
-1.644817409e-05
-1.521591158e-05
-1.3343418e-05
-1.202241101e-05
)


100
(
-3.105373763e-07
-4.525738671e-07
-5.478729547e-07
-6.27341063e-07
-6.953124528e-07
-7.895462948e-07
-8.325064181e-07
-9.376613133e-07
-9.794912659e-07
-1.06978998e-06
-1.123572061e-06
-1.177158189e-06
-1.251250167e-06
-1.281775293e-06
-1.34487737e-06
-1.434666008e-06
-1.482954381e-06
-1.529855354e-06
-1.631123496e-06
-1.71951594e-06
-1.75536244e-06
-1.830333452e-06
-1.922538864e-06
-1.997488721e-06
-2.030244778e-06
-2.109754426e-06
-2.18300773e-06
-2.24530968e-06
-2.280773175e-06
-2.383336626e-06
-2.484688258e-06
-2.577640096e-06
-2.621895557e-06
-2.692584256e-06
-2.760499849e-06
-2.823500395e-06
-2.877313601e-06
-2.957593018e-06
-3.081814701e-06
-3.200425978e-06
-3.312951332e-06
-3.408868048e-06
-3.509631124e-06
-3.609404947e-06
-3.697132463e-06
-3.80948156e-06
-3.889991738e-06
-3.968415267e-06
-4.045124364e-06
-4.178567165e-06
-4.268398054e-06
-4.400675219e-06
-4.538271264e-06
-4.703515905e-06
-4.804215298e-06
-4.907122377e-06
-5.054724946e-06
-5.27082812e-06
-5.393120038e-06
-5.475600449e-06
-5.662742008e-06
-5.789353441e-06
-5.872492077e-06
-6.096846791e-06
-6.303082475e-06
-6.385127191e-06
-6.520303576e-06
-6.87479511e-06
-7.052963822e-06
-7.222176579e-06
-7.445360043e-06
-7.734842196e-06
-7.832200934e-06
-8.079163344e-06
-8.540971145e-06
-8.714349308e-06
-8.643190643e-06
-9.204102483e-06
-9.612767625e-06
-9.475827947e-06
-1.001732542e-05
-1.024822628e-05
-1.045108578e-05
-1.09234968e-05
-1.096918301e-05
-1.14636579e-05
-1.162847722e-05
-1.176268918e-05
-1.218835842e-05
-1.219000193e-05
-1.248865696e-05
-1.25883421e-05
-1.286215848e-05
-1.297170698e-05
-1.319186422e-05
-1.31059096e-05
-1.296488761e-05
-1.148934658e-05
-1.142867856e-05
-1.098639603e-05
)


100
(
-3.105378972e-07
-4.332895691e-07
-5.315999168e-07
-6.046111261e-07
-6.955990395e-07
-7.722027627e-07
-8.366021065e-07
-9.14517825e-07
-9.90323382e-07
-1.047657983e-06
-1.142128938e-06
-1.180239201e-06
-1.248450324e-06
-1.314919332e-06
-1.348588732e-06
-1.421274017e-06
-1.510816827e-06
-1.562893573e-06
-1.61002937e-06
-1.712958388e-06
-1.806037226e-06
-1.853043099e-06
-1.918986293e-06
-2.016968145e-06
-2.106492563e-06
-2.150111669e-06
-2.215931798e-06
-2.297082712e-06
-2.372529594e-06
-2.421820491e-06
-2.491680171e-06
-2.601911234e-06
-2.703516149e-06
-2.793238723e-06
-2.836762622e-06
-2.905185391e-06
-2.971624023e-06
-3.062748098e-06
-3.103766884e-06
-3.188805603e-06
-3.313898214e-06
-3.440285702e-06
-3.546294075e-06
-3.588275758e-06
-3.689492679e-06
-3.832425286e-06
-4.017293669e-06
-4.059652524e-06
-4.12438093e-06
-4.268020942e-06
-4.444015327e-06
-4.510589966e-06
-4.561412315e-06
-4.752252979e-06
-4.959287999e-06
-5.067075015e-06
-5.101844522e-06
-5.381992503e-06
-5.647445004e-06
-5.829267429e-06
-5.926122761e-06
-6.173631982e-06
-6.30908372e-06
-6.421207216e-06
-6.579028653e-06
-6.76478035e-06
-6.830408805e-06
-6.959446651e-06
-7.226162615e-06
-7.368342554e-06
-7.463698497e-06
-7.592604793e-06
-7.839435678e-06
-7.912609355e-06
-7.963739556e-06
-8.347572349e-06
-8.835220705e-06
-8.869434997e-06
-8.984090991e-06
-9.317281794e-06
-9.549346949e-06
-9.880219431e-06
-9.833745266e-06
-1.026140842e-05
-1.041116009e-05
-1.046075874e-05
-1.082019071e-05
-1.08942852e-05
-1.098153536e-05
-1.104777271e-05
-1.129635189e-05
-1.149999332e-05
-1.156179807e-05
-1.188567966e-05
-1.184678811e-05
-1.185999843e-05
-1.156164703e-05
-1.076450637e-05
-1.064301027e-05
-1.034151068e-05
)


100
(
-3.106636612e-07
-4.162782996e-07
-5.131483877e-07
-6.012170583e-07
-6.944449051e-07
-7.488652414e-07
-8.415364537e-07
-8.878072611e-07
-9.904497699e-07
-1.044891386e-06
-1.123883364e-06
-1.20272527e-06
-1.239950683e-06
-1.318943804e-06
-1.381651714e-06
-1.418585357e-06
-1.497338456e-06
-1.589231885e-06
-1.646247124e-06
-1.689343089e-06
-1.794555489e-06
-1.892523862e-06
-1.954114173e-06
-2.00761212e-06
-2.110483225e-06
-2.205006481e-06
-2.272977516e-06
-2.32156473e-06
-2.401560965e-06
-2.476033772e-06
-2.549903424e-06
-2.588076734e-06
-2.682915374e-06
-2.790823829e-06
-2.907793969e-06
-2.941159335e-06
-2.990117066e-06
-3.069503193e-06
-3.225227873e-06
-3.272292173e-06
-3.312983389e-06
-3.399897863e-06
-3.581989036e-06
-3.701736164e-06
-3.747861625e-06
-3.789870023e-06
-4.041320354e-06
-4.269519824e-06
-4.325059733e-06
-4.346130764e-06
-4.564220849e-06
-4.766002875e-06
-4.869679896e-06
-4.922231064e-06
-5.118673091e-06
-5.342722512e-06
-5.482185343e-06
-5.553681824e-06
-5.729764683e-06
-5.969842756e-06
-6.136681973e-06
-6.244401702e-06
-6.410166678e-06
-6.527503993e-06
-6.658954656e-06
-6.831728342e-06
-6.999279224e-06
-7.081291278e-06
-7.174075317e-06
-7.308547298e-06
-7.527692976e-06
-7.66921166e-06
-7.787668629e-06
-7.870520087e-06
-7.992171227e-06
-8.125199929e-06
-8.544870691e-06
-8.626100759e-06
-8.740213179e-06
-9.171246514e-06
-9.203997025e-06
-9.258696575e-06
-9.636424511e-06
-9.700752524e-06
-9.810431583e-06
-9.929193316e-06
-1.00882653e-05
-1.022768459e-05
-1.032077002e-05
-1.052829992e-05
-1.065884881e-05
-1.077949052e-05
-1.093766428e-05
-1.098919608e-05
-1.114041122e-05
-1.104227099e-05
-1.027364098e-05
-1.02631739e-05
-1.00575056e-05
-9.861680814e-06
)


100
(
-3.006284541e-07
-4.104083401e-07
-5.073762321e-07
-5.986789313e-07
-6.741140054e-07
-7.468606897e-07
-8.27598381e-07
-8.918615744e-07
-9.644455402e-07
-1.055399407e-06
-1.100559598e-06
-1.196959552e-06
-1.263404293e-06
-1.308839535e-06
-1.390349614e-06
-1.451780293e-06
-1.491194002e-06
-1.572917238e-06
-1.667310119e-06
-1.732015819e-06
-1.77628434e-06
-1.874797194e-06
-1.977531497e-06
-2.057281783e-06
-2.10178141e-06
-2.198179998e-06
-2.297964485e-06
-2.36154932e-06
-2.393143692e-06
-2.459187424e-06
-2.555004657e-06
-2.655864123e-06
-2.693817782e-06
-2.742788995e-06
-2.881553861e-06
-3.023052344e-06
-3.065002551e-06
-3.077741055e-06
-3.228155997e-06
-3.409764e-06
-3.472897132e-06
-3.514158814e-06
-3.613998473e-06
-3.815406172e-06
-3.942507019e-06
-3.959612484e-06
-4.034542951e-06
-4.302229148e-06
-4.542124096e-06
-4.590644e-06
-4.66090059e-06
-4.866698142e-06
-5.0818223e-06
-5.197030848e-06
-5.240706522e-06
-5.387751548e-06
-5.565658605e-06
-5.636560488e-06
-5.684693185e-06
-5.779499155e-06
-5.947183177e-06
-6.100747703e-06
-6.257409875e-06
-6.46895591e-06
-6.643577827e-06
-6.831548914e-06
-7.0138074e-06
-7.129386153e-06
-7.312600863e-06
-7.428230447e-06
-7.524223604e-06
-7.632805677e-06
-7.795157367e-06
-8.016248987e-06
-8.240447365e-06
-8.257725032e-06
-8.247687383e-06
-8.519770307e-06
-8.630483768e-06
-8.696370088e-06
-8.795759691e-06
-8.918035925e-06
-9.172834802e-06
-9.35911563e-06
-9.495044909e-06
-9.672239613e-06
-9.749922671e-06
-9.828632733e-06
-9.91114904e-06
-1.024170809e-05
-1.030783295e-05
-1.032095877e-05
-1.050148886e-05
-1.052703402e-05
-1.064566901e-05
-1.062110212e-05
-9.644276783e-06
-9.938306521e-06
-9.799603769e-06
-9.699872436e-06
)


100
(
-2.835959804e-07
-4.035045389e-07
-5.015082142e-07
-5.87004699e-07
-6.519549552e-07
-7.469363005e-07
-8.040112203e-07
-8.961540134e-07
-9.4424322e-07
-1.039511487e-06
-1.110980425e-06
-1.171153146e-06
-1.26868302e-06
-1.32632147e-06
-1.379842038e-06
-1.461740594e-06
-1.524006234e-06
-1.565721738e-06
-1.646347019e-06
-1.743747093e-06
-1.81925871e-06
-1.86539375e-06
-1.952137783e-06
-2.059633072e-06
-2.158683846e-06
-2.205339878e-06
-2.279196892e-06
-2.378731928e-06
-2.440272969e-06
-2.478846222e-06
-2.524467794e-06
-2.681763112e-06
-2.787337077e-06
-2.832266581e-06
-2.860549357e-06
-3.046620154e-06
-3.191433097e-06
-3.234300807e-06
-3.209560026e-06
-3.4105991e-06
-3.60611716e-06
-3.683939257e-06
-3.704611214e-06
-3.839981675e-06
-4.049898129e-06
-4.179581414e-06
-4.197857375e-06
-4.270292728e-06
-4.540208258e-06
-4.74402016e-06
-4.814894724e-06
-4.8433864e-06
-4.976985975e-06
-5.119339365e-06
-5.250368148e-06
-5.381958148e-06
-5.468869207e-06
-5.534915053e-06
-5.650608097e-06
-5.77083298e-06
-5.883797206e-06
-5.9879168e-06
-6.196995293e-06
-6.413656562e-06
-6.558113123e-06
-6.686467128e-06
-6.841776769e-06
-6.970344608e-06
-7.074477405e-06
-7.245588747e-06
-7.420187768e-06
-7.601918164e-06
-7.799567688e-06
-7.946207086e-06
-8.024941882e-06
-8.249474662e-06
-8.220796304e-06
-8.298453512e-06
-8.406959125e-06
-8.57166328e-06
-8.759218395e-06
-8.878995742e-06
-8.888437824e-06
-9.0664627e-06
-9.21729948e-06
-9.382404697e-06
-9.557286149e-06
-9.695269121e-06
-9.773828115e-06
-9.864194497e-06
-1.007242363e-05
-1.013636167e-05
-1.023138818e-05
-1.030026053e-05
-1.033716833e-05
-1.037259593e-05
-9.623866849e-06
-9.877987157e-06
-9.79540272e-06
-9.741893275e-06
)


100
(
-2.767356092e-07
-3.936065612e-07
-4.901189129e-07
-5.665276806e-07
-6.474867241e-07
-7.323003191e-07
-7.978472793e-07
-8.776915151e-07
-9.473492218e-07
-1.008055277e-06
-1.111321831e-06
-1.168627099e-06
-1.2431783e-06
-1.338905642e-06
-1.390856009e-06
-1.449580663e-06
-1.532570183e-06
-1.597251235e-06
-1.640479191e-06
-1.717763181e-06
-1.818868222e-06
-1.907469874e-06
-1.955001208e-06
-2.025798336e-06
-2.137836705e-06
-2.24582381e-06
-2.311092908e-06
-2.393728586e-06
-2.501459482e-06
-2.557690938e-06
-2.582395319e-06
-2.634399383e-06
-2.824770589e-06
-2.932179109e-06
-2.958494592e-06
-3.013558166e-06
-3.21447567e-06
-3.360564723e-06
-3.349828552e-06
-3.388784901e-06
-3.591146952e-06
-3.794723776e-06
-3.858860485e-06
-3.919205344e-06
-4.054924478e-06
-4.265578941e-06
-4.341390434e-06
-4.36482689e-06
-4.396223152e-06
-4.586881186e-06
-4.697052838e-06
-4.802010265e-06
-4.869913172e-06
-4.947321471e-06
-5.091005298e-06
-5.280336352e-06
-5.463248292e-06
-5.629019119e-06
-5.737004119e-06
-5.867115355e-06
-5.995750286e-06
-6.060671689e-06
-6.130799014e-06
-6.202977379e-06
-6.347059997e-06
-6.480907602e-06
-6.626345734e-06
-6.802926989e-06
-6.921529027e-06
-7.106911422e-06
-7.342928404e-06
-7.494378013e-06
-7.629148428e-06
-7.726963244e-06
-7.804785713e-06
-7.957487422e-06
-8.174634584e-06
-8.29717318e-06
-8.423723967e-06
-8.516410021e-06
-8.573638976e-06
-8.691085537e-06
-8.821914946e-06
-8.911968006e-06
-9.011505218e-06
-9.10881814e-06
-9.236265952e-06
-9.412998067e-06
-9.595288627e-06
-9.653240016e-06
-9.680208732e-06
-9.825450756e-06
-9.913527678e-06
-1.001323731e-05
-9.996017454e-06
-9.923722802e-06
-9.47843954e-06
-9.714146753e-06
-9.723908078e-06
-9.67649284e-06
)


100
(
-2.767133021e-07
-3.788685496e-07
-4.71929454e-07
-5.527276828e-07
-6.431762949e-07
-7.076235074e-07
-7.967758851e-07
-8.519010197e-07
-9.454000918e-07
-1.000431984e-06
-1.08087627e-06
-1.177329432e-06
-1.227155875e-06
-1.312634409e-06
-1.407485548e-06
-1.456699368e-06
-1.51757454e-06
-1.600593689e-06
-1.673338031e-06
-1.718538724e-06
-1.787355527e-06
-1.891378068e-06
-1.994548837e-06
-2.044080501e-06
-2.097647565e-06
-2.212242304e-06
-2.326961434e-06
-2.42140319e-06
-2.517722595e-06
-2.628018019e-06
-2.677944272e-06
-2.65389848e-06
-2.771705304e-06
-2.969470893e-06
-3.07738871e-06
-3.071113428e-06
-3.172866171e-06
-3.378753709e-06
-3.509440906e-06
-3.506427686e-06
-3.566557991e-06
-3.76087821e-06
-3.954297155e-06
-4.030022684e-06
-4.066651352e-06
-4.164348614e-06
-4.266625526e-06
-4.332743455e-06
-4.401792285e-06
-4.444416949e-06
-4.550798393e-06
-4.707154366e-06
-4.866369965e-06
-5.018052454e-06
-5.116037652e-06
-5.165697005e-06
-5.355096983e-06
-5.551953569e-06
-5.700394252e-06
-5.834396907e-06
-5.925788923e-06
-6.008216101e-06
-6.063087752e-06
-6.164200829e-06
-6.312194744e-06
-6.425481759e-06
-6.545014807e-06
-6.756326548e-06
-6.928216164e-06
-7.007459129e-06
-7.086575883e-06
-7.192851369e-06
-7.331867349e-06
-7.546411837e-06
-7.756020359e-06
-7.880518903e-06
-8.059237111e-06
-8.142440441e-06
-8.174522181e-06
-8.267361138e-06
-8.433131583e-06
-8.557282007e-06
-8.619654027e-06
-8.671574275e-06
-8.744790945e-06
-8.822768948e-06
-8.933669471e-06
-9.107469648e-06
-9.283690904e-06
-9.322568319e-06
-9.36150398e-06
-9.474425616e-06
-9.581759713e-06
-9.610097095e-06
-9.427538707e-06
-9.37633794e-06
-9.103849378e-06
-9.347029841e-06
-9.393704788e-06
-9.404387211e-06
)


100
(
-2.767702504e-07
-3.668697641e-07
-4.577839396e-07
-5.456390849e-07
-6.26807484e-07
-6.955110389e-07
-7.819001883e-07
-8.478295844e-07
-9.218604502e-07
-1.003043367e-06
-1.054293812e-06
-1.150262328e-06
-1.235242976e-06
-1.286544238e-06
-1.379732387e-06
-1.474740112e-06
-1.523087811e-06
-1.584096098e-06
-1.669828898e-06
-1.750559487e-06
-1.79613285e-06
-1.853943821e-06
-1.960999116e-06
-2.066717703e-06
-2.135143709e-06
-2.183627304e-06
-2.283719419e-06
-2.405336327e-06
-2.525990683e-06
-2.642544984e-06
-2.752264365e-06
-2.772416201e-06
-2.764706797e-06
-2.909577083e-06
-3.112368088e-06
-3.18788753e-06
-3.224330141e-06
-3.329392674e-06
-3.535272792e-06
-3.617885464e-06
-3.651530632e-06
-3.678694315e-06
-3.82118431e-06
-3.938196925e-06
-4.059630869e-06
-4.122680309e-06
-4.177372348e-06
-4.268226798e-06
-4.386980825e-06
-4.510874203e-06
-4.638641497e-06
-4.698097927e-06
-4.803974724e-06
-4.967502252e-06
-5.126147121e-06
-5.225079086e-06
-5.325145366e-06
-5.369150561e-06
-5.491500269e-06
-5.631231904e-06
-5.786825211e-06
-5.974134426e-06
-6.078190785e-06
-6.155451489e-06
-6.316771389e-06
-6.473688896e-06
-6.54642577e-06
-6.61257229e-06
-6.671398557e-06
-6.767485147e-06
-6.935375831e-06
-7.155142166e-06
-7.240961956e-06
-7.432155123e-06
-7.635155152e-06
-7.71640652e-06
-7.75158549e-06
-7.860585492e-06
-8.021656493e-06
-8.143622958e-06
-8.207686288e-06
-8.276224478e-06
-8.331133059e-06
-8.439230611e-06
-8.523556049e-06
-8.619226893e-06
-8.662742536e-06
-8.772808468e-06
-8.863489909e-06
-8.989427346e-06
-9.089155329e-06
-9.180218691e-06
-9.265310252e-06
-9.123682721e-06
-9.224118002e-06
-8.666223036e-06
-8.521737067e-06
-8.854651663e-06
-8.874720477e-06
-8.931853112e-06
)


100
(
-2.705596254e-07
-3.60559464e-07
-4.494991354e-07
-5.370550309e-07
-6.042002403e-07
-6.898374173e-07
-7.560055342e-07
-8.458771353e-07
-8.994798504e-07
-9.876849449e-07
-1.056364981e-06
-1.112995588e-06
-1.216367118e-06
-1.294157088e-06
-1.34573633e-06
-1.443112187e-06
-1.541312567e-06
-1.591862548e-06
-1.647526263e-06
-1.735334353e-06
-1.827668369e-06
-1.875042175e-06
-1.91951248e-06
-2.027357014e-06
-2.137685871e-06
-2.2284641e-06
-2.27739507e-06
-2.352518295e-06
-2.477815278e-06
-2.602369388e-06
-2.761514284e-06
-2.876393126e-06
-2.839189259e-06
-2.891160293e-06
-3.045107242e-06
-3.246505463e-06
-3.312345751e-06
-3.365418992e-06
-3.442466422e-06
-3.566677195e-06
-3.63420516e-06
-3.673069526e-06
-3.69307583e-06
-3.791218357e-06
-3.93898379e-06
-4.098673769e-06
-4.25293686e-06
-4.323180857e-06
-4.36085141e-06
-4.489904345e-06
-4.624524221e-06
-4.749999814e-06
-4.86934676e-06
-4.929927267e-06
-4.995371288e-06
-5.116690335e-06
-5.205955804e-06
-5.338381697e-06
-5.48265708e-06
-5.549664711e-06
-5.669442897e-06
-5.876325605e-06
-6.075222332e-06
-6.194485826e-06
-6.242876061e-06
-6.288053805e-06
-6.367334367e-06
-6.486110852e-06
-6.650543979e-06
-6.698055965e-06
-6.840222282e-06
-7.047040266e-06
-7.172122157e-06
-7.241037037e-06
-7.316971687e-06
-7.480707363e-06
-7.64900821e-06
-7.755812484e-06
-7.816018311e-06
-7.879687115e-06
-7.943391487e-06
-8.048712613e-06
-8.196047429e-06
-8.29574526e-06
-8.338508861e-06
-8.422712878e-06
-8.457226078e-06
-8.505971419e-06
-8.60789736e-06
-8.702302577e-06
-8.812790913e-06
-8.912965334e-06
-8.932849452e-06
-8.932389221e-06
-9.185544238e-06
-8.008382297e-06
-8.0468365e-06
-8.444429114e-06
-8.416543412e-06
-8.43758448e-06
)


100
(
-2.569645046e-07
-3.539024879e-07
-4.414087735e-07
-5.179806704e-07
-5.919996599e-07
-6.769276926e-07
-7.414416234e-07
-8.24954881e-07
-8.969357232e-07
-9.601504928e-07
-1.051175985e-06
-1.110777052e-06
-1.178365999e-06
-1.27918998e-06
-1.352360133e-06
-1.404167289e-06
-1.503859733e-06
-1.605391395e-06
-1.660238015e-06
-1.708837547e-06
-1.801037105e-06
-1.894455181e-06
-1.954949539e-06
-1.999731107e-06
-2.090870419e-06
-2.205094991e-06
-2.314797739e-06
-2.371224848e-06
-2.423369584e-06
-2.540404983e-06
-2.672813941e-06
-2.860305005e-06
-2.950671199e-06
-2.960333371e-06
-3.015503209e-06
-3.156950873e-06
-3.28274691e-06
-3.376125434e-06
-3.404860604e-06
-3.454786324e-06
-3.535625559e-06
-3.641832128e-06
-3.757079158e-06
-3.830270155e-06
-3.875595819e-06
-3.994797711e-06
-4.161874649e-06
-4.322229758e-06
-4.447214167e-06
-4.514863701e-06
-4.56765859e-06
-4.66245617e-06
-4.754194004e-06
-4.857003469e-06
-5.002867123e-06
-5.066731288e-06
-5.113487831e-06
-5.256833578e-06
-5.430003788e-06
-5.59684793e-06
-5.731916723e-06
-5.775419556e-06
-5.856857885e-06
-5.971754285e-06
-6.08657354e-06
-6.223508166e-06
-6.29088644e-06
-6.400427221e-06
-6.607191749e-06
-6.784582277e-06
-6.811986792e-06
-6.811316756e-06
-6.913284894e-06
-7.012184566e-06
-7.137284622e-06
-7.25321235e-06
-7.388276077e-06
-7.517154296e-06
-7.593740714e-06
-7.698444279e-06
-7.857083736e-06
-7.934642385e-06
-8.007671886e-06
-8.086563881e-06
-8.216944793e-06
-8.294648245e-06
-8.344730611e-06
-8.429509203e-06
-8.519191634e-06
-8.590973802e-06
-8.7119967e-06
-8.79376066e-06
-8.861739048e-06
-9.006776415e-06
-8.620885373e-06
-7.723389784e-06
-8.082109834e-06
-8.212473421e-06
-8.235931858e-06
-8.285622344e-06
)


100
(
-2.4960484e-07
-3.451519957e-07
-4.281985828e-07
-4.984567162e-07
-5.836487641e-07
-6.537499983e-07
-7.342810727e-07
-7.962398402e-07
-8.887418536e-07
-9.485004111e-07
-1.023853018e-06
-1.11182694e-06
-1.164152364e-06
-1.239420679e-06
-1.340629309e-06
-1.41198168e-06
-1.461512738e-06
-1.56157539e-06
-1.666298062e-06
-1.728794538e-06
-1.768424253e-06
-1.862330599e-06
-1.958972832e-06
-2.034320866e-06
-2.079715738e-06
-2.149693861e-06
-2.265779808e-06
-2.376513999e-06
-2.464018706e-06
-2.517208256e-06
-2.598502998e-06
-2.727887977e-06
-2.923377379e-06
-3.004391108e-06
-3.030075869e-06
-3.05528699e-06
-3.146344911e-06
-3.252932543e-06
-3.387522198e-06
-3.489463719e-06
-3.532828918e-06
-3.602484983e-06
-3.720908576e-06
-3.841338297e-06
-3.958432957e-06
-4.016217579e-06
-4.072909859e-06
-4.203315234e-06
-4.360964761e-06
-4.455875259e-06
-4.554962273e-06
-4.600593026e-06
-4.622382121e-06
-4.71380132e-06
-4.879118012e-06
-5.059288663e-06
-5.233441514e-06
-5.25502806e-06
-5.330000149e-06
-5.47702727e-06
-5.57252178e-06
-5.675072916e-06
-5.757213657e-06
-5.78391653e-06
-5.894644575e-06
-6.123687558e-06
-6.344749869e-06
-6.457367437e-06
-6.490325638e-06
-6.637471027e-06
-6.68704945e-06
-6.734787068e-06
-6.814954691e-06
-6.909283351e-06
-7.004350889e-06
-7.077767978e-06
-7.18030738e-06
-7.312316566e-06
-7.492307779e-06
-7.616860583e-06
-7.690843276e-06
-7.762423894e-06
-7.869122083e-06
-8.029094896e-06
-8.082097692e-06
-8.130184565e-06
-8.282233105e-06
-8.312875852e-06
-8.361737612e-06
-8.461558691e-06
-8.503875561e-06
-8.61393686e-06
-8.59801771e-06
-8.517670795e-06
-8.180302568e-06
-7.83491072e-06
-8.331499361e-06
-8.293467741e-06
-8.341544447e-06
-8.358297458e-06
)


100
(
-2.495995323e-07
-3.347992013e-07
-4.129600223e-07
-4.888518105e-07
-5.696198237e-07
-6.355689726e-07
-7.191289187e-07
-7.842897428e-07
-8.606714994e-07
-9.439725926e-07
-9.991017942e-07
-1.082687889e-06
-1.16345932e-06
-1.217517461e-06
-1.298096257e-06
-1.400185312e-06
-1.471486293e-06
-1.519016919e-06
-1.617133391e-06
-1.723420132e-06
-1.795204363e-06
-1.836536194e-06
-1.919841692e-06
-2.019304849e-06
-2.112624236e-06
-2.158214773e-06
-2.209235416e-06
-2.317140055e-06
-2.431479076e-06
-2.538030513e-06
-2.606404885e-06
-2.663924633e-06
-2.764270175e-06
-2.889111305e-06
-2.966840708e-06
-3.049501144e-06
-3.104372789e-06
-3.165828987e-06
-3.296311737e-06
-3.441425089e-06
-3.580431723e-06
-3.652460742e-06
-3.683442678e-06
-3.787806278e-06
-3.913473204e-06
-4.026165287e-06
-4.125729174e-06
-4.17925677e-06
-4.215666654e-06
-4.300782848e-06
-4.401869197e-06
-4.550377329e-06
-4.70042056e-06
-4.745859797e-06
-4.756158837e-06
-4.923977242e-06
-5.110207203e-06
-5.254220975e-06
-5.329203462e-06
-5.322242338e-06
-5.321558888e-06
-5.428635844e-06
-5.650042431e-06
-5.866426738e-06
-5.902817208e-06
-5.978412971e-06
-6.17895278e-06
-6.306943768e-06
-6.38500531e-06
-6.44977628e-06
-6.563725606e-06
-6.703009651e-06
-6.834035016e-06
-6.895229552e-06
-6.949337058e-06
-7.01679134e-06
-7.107553715e-06
-7.209863304e-06
-7.348036857e-06
-7.448913334e-06
-7.549586533e-06
-7.663206475e-06
-7.800156833e-06
-7.857817341e-06
-7.928387002e-06
-8.071957901e-06
-8.165705916e-06
-8.193098698e-06
-8.252917737e-06
-8.313578419e-06
-8.406888504e-06
-8.342929483e-06
-8.302009492e-06
-8.270814304e-06
-8.288183364e-06
-8.105752179e-06
-8.427050271e-06
-8.488554053e-06
-8.560515058e-06
-8.558233589e-06
)


100
(
-2.496603086e-07
-3.267232678e-07
-4.029080698e-07
-4.797528418e-07
-5.482193002e-07
-6.254945716e-07
-6.941737268e-07
-7.755082737e-07
-8.334824275e-07
-9.207124527e-07
-9.927320242e-07
-1.04754876e-06
-1.13768402e-06
-1.215873995e-06
-1.269712678e-06
-1.353115172e-06
-1.456121815e-06
-1.530615362e-06
-1.57641149e-06
-1.668748892e-06
-1.776693888e-06
-1.861152867e-06
-1.903763931e-06
-1.972976454e-06
-2.074448672e-06
-2.167809399e-06
-2.234984443e-06
-2.286237885e-06
-2.361600791e-06
-2.47559334e-06
-2.57979285e-06
-2.677079271e-06
-2.724504343e-06
-2.771589893e-06
-2.872557399e-06
-2.988658874e-06
-3.116335823e-06
-3.203542658e-06
-3.24892063e-06
-3.335493178e-06
-3.482796212e-06
-3.625668358e-06
-3.740076709e-06
-3.79907741e-06
-3.855557137e-06
-3.946197221e-06
-4.032306669e-06
-4.110062301e-06
-4.226152045e-06
-4.29431072e-06
-4.341757119e-06
-4.453191493e-06
-4.616073514e-06
-4.767770217e-06
-4.859715326e-06
-4.888680227e-06
-4.924253842e-06
-5.045514643e-06
-5.121442639e-06
-5.244386029e-06
-5.34839208e-06
-5.37282185e-06
-5.489855932e-06
-5.716771209e-06
-5.906779034e-06
-5.974863507e-06
-6.000476389e-06
-6.060615857e-06
-6.186783926e-06
-6.318608032e-06
-6.42770406e-06
-6.539124976e-06
-6.647159817e-06
-6.747526961e-06
-6.835563017e-06
-6.942153171e-06
-7.042704236e-06
-7.114314857e-06
-7.160655737e-06
-7.263394092e-06
-7.412702911e-06
-7.548141077e-06
-7.61020465e-06
-7.657841256e-06
-7.81305358e-06
-7.955042599e-06
-7.993184219e-06
-8.048417272e-06
-8.10524494e-06
-8.184212913e-06
-8.29343732e-06
-8.344013065e-06
-8.432660918e-06
-8.58452755e-06
-8.156895341e-06
-8.211353176e-06
-8.392667883e-06
-8.480419817e-06
-8.60376752e-06
-8.731017064e-06
)


100
(
-2.431901737e-07
-3.209477637e-07
-3.946950379e-07
-4.660527118e-07
-5.311656549e-07
-6.122024939e-07
-6.749348687e-07
-7.539675055e-07
-8.235751691e-07
-8.875845868e-07
-9.755842681e-07
-1.041143253e-06
-1.101954746e-06
-1.191679553e-06
-1.26784665e-06
-1.320469044e-06
-1.404127092e-06
-1.508303764e-06
-1.587371182e-06
-1.633206169e-06
-1.71604707e-06
-1.825669797e-06
-1.92544094e-06
-1.969507209e-06
-2.020353978e-06
-2.121629804e-06
-2.217517039e-06
-2.30914033e-06
-2.360183126e-06
-2.407560139e-06
-2.49657999e-06
-2.600579169e-06
-2.716223659e-06
-2.801184141e-06
-2.848185931e-06
-2.900953279e-06
-3.022724528e-06
-3.155677456e-06
-3.285760632e-06
-3.345505346e-06
-3.396990911e-06
-3.508558714e-06
-3.651934578e-06
-3.758102657e-06
-3.850260701e-06
-3.903781541e-06
-3.935816361e-06
-4.017274235e-06
-4.137805774e-06
-4.279222562e-06
-4.418291525e-06
-4.456130077e-06
-4.508281876e-06
-4.661654667e-06
-4.80208451e-06
-4.84272774e-06
-4.904526072e-06
-4.914809902e-06
-4.967829973e-06
-5.130881373e-06
-5.314629538e-06
-5.475659132e-06
-5.480576305e-06
-5.532761233e-06
-5.685615751e-06
-5.767778444e-06
-5.850840203e-06
-5.942996342e-06
-6.043066159e-06
-6.16358141e-06
-6.278525707e-06
-6.360956513e-06
-6.42033801e-06
-6.547197346e-06
-6.685616713e-06
-6.80417001e-06
-6.884548345e-06
-6.924639153e-06
-7.00907855e-06
-7.14165177e-06
-7.229668879e-06
-7.301031017e-06
-7.338874984e-06
-7.521786306e-06
-7.673287723e-06
-7.676486398e-06
-7.771605748e-06
-7.896617066e-06
-7.968315076e-06
-8.006349822e-06
-8.020395459e-06
-8.117556142e-06
-8.176643104e-06
-8.094164303e-06
-7.765525882e-06
-8.054121985e-06
-8.250219398e-06
-8.314201053e-06
-8.414407072e-06
-8.55172548e-06
)


100
(
-2.321550956e-07
-3.148039475e-07
-3.861050025e-07
-4.495120508e-07
-5.203490403e-07
-5.89759412e-07
-6.632834247e-07
-7.263487215e-07
-8.095207146e-07
-8.701113803e-07
-9.42343741e-07
-1.030887922e-06
-1.089723828e-06
-1.153258845e-06
-1.24375536e-06
-1.319339552e-06
-1.37074615e-06
-1.452248822e-06
-1.556583368e-06
-1.643008987e-06
-1.689301649e-06
-1.759001274e-06
-1.869445648e-06
-1.967451437e-06
-2.033741643e-06
-2.085025391e-06
-2.163820693e-06
-2.260181314e-06
-2.341965171e-06
-2.415848389e-06
-2.465430039e-06
-2.52260925e-06
-2.634796903e-06
-2.757972942e-06
-2.879595709e-06
-2.927336589e-06
-2.954234641e-06
-3.049568042e-06
-3.185200423e-06
-3.313806447e-06
-3.42735571e-06
-3.487435085e-06
-3.530322777e-06
-3.613486596e-06
-3.697967342e-06
-3.821271144e-06
-3.9745034e-06
-4.033137158e-06
-4.053937984e-06
-4.177232273e-06
-4.325756727e-06
-4.460560269e-06
-4.560306889e-06
-4.596487117e-06
-4.625513747e-06
-4.698137796e-06
-4.798270473e-06
-4.948090592e-06
-5.029315967e-06
-5.055265397e-06
-5.193495268e-06
-5.375294975e-06
-5.466391033e-06
-5.504250811e-06
-5.53104462e-06
-5.595111583e-06
-5.700987888e-06
-5.822528102e-06
-5.91692147e-06
-6.002926422e-06
-6.103049135e-06
-6.2040115e-06
-6.306943115e-06
-6.41411566e-06
-6.541653721e-06
-6.64091558e-06
-6.652462483e-06
-6.719264885e-06
-6.833292874e-06
-6.967766802e-06
-7.064447221e-06
-7.126889309e-06
-7.194597331e-06
-7.290311016e-06
-7.394254936e-06
-7.495089471e-06
-7.611691204e-06
-7.705621835e-06
-7.835388071e-06
-7.871725241e-06
-7.876470746e-06
-7.877096064e-06
-7.814194098e-06
-7.918375566e-06
-7.69277783e-06
-7.747620181e-06
-7.979431245e-06
-8.059275578e-06
-8.128064483e-06
-8.228837224e-06
)


100
(
-2.276721972e-07
-3.069219758e-07
-3.752855895e-07
-4.374172889e-07
-5.08925509e-07
-5.689304832e-07
-6.468663045e-07
-7.10012004e-07
-7.817016051e-07
-8.580468443e-07
-9.158870763e-07
-9.95167429e-07
-1.081336728e-06
-1.136093111e-06
-1.201332347e-06
-1.292709856e-06
-1.370235484e-06
-1.420497273e-06
-1.496003103e-06
-1.60064195e-06