/*--------------------------------*- C++ -*----------------------------------*\
| =========                 |                                                 |
| \\      /  F ield         | OpenFOAM: The Open Source CFD Toolbox           |
|  \\    /   O peration     | Version:  2.3.1                                 |
|   \\  /    A nd           | Web:      www.OpenFOAM.org                      |
|    \\/     M anipulation  |                                                 |
\*---------------------------------------------------------------------------*/
FoamFile
{
    version     2.0;
    format      ascii;
    class       dictionary;
    location    "constant";
    object      DPSI27;
}
// * * * * * * * * * * * * * * * * * * * * * * * * * * * * * * * * * * * * * //

DPSI27_table
100
(

100
(
4.258094211e-08
3.341148084e-08
1.977949738e-08
1.321151704e-08
9.454654969e-09
6.947844018e-09
5.453740642e-09
4.34393819e-09
3.506733336e-09
2.93780983e-09
2.377178475e-09
1.864262541e-09
1.707006687e-09
1.403758024e-09
1.165379058e-09
1.099365417e-09
9.31352795e-10
7.795287731e-10
7.520840083e-10
6.677861567e-10
5.63944875e-10
5.271695259e-10
4.976481817e-10
4.25873726e-10
3.705970683e-10
3.61070279e-10
3.385150033e-10
2.962202706e-10
2.689156256e-10
2.626303194e-10
2.389020674e-10
2.046380224e-10
1.89102045e-10
1.851276944e-10
1.776464135e-10
1.615177279e-10
1.492281702e-10
1.457889963e-10
1.389138499e-10
1.246044465e-10
1.138231087e-10
1.109782044e-10
1.055241941e-10
9.431950929e-11
8.625702241e-11
8.449758558e-11
8.285615672e-11
7.724550297e-11
7.159443346e-11
7.023026321e-11
6.808549816e-11
6.246967604e-11
5.766695516e-11
5.650129707e-11
5.388732678e-11
4.948462447e-11
4.620906231e-11
4.372675314e-11
4.084091426e-11
3.918406854e-11
3.727523793e-11
3.428414024e-11
3.275023904e-11
3.254038807e-11
3.090833935e-11
2.80554275e-11
2.728354721e-11
2.70327724e-11
2.46759757e-11
2.272665153e-11
2.281521491e-11
2.167556278e-11
1.905694234e-11
1.912946487e-11
1.85784587e-11
1.591768889e-11
1.599842776e-11
1.519900825e-11
1.329350532e-11
1.313304728e-11
1.119920839e-11
1.071475424e-11
9.943857874e-12
8.714169651e-12
7.94260802e-12
7.004842476e-12
6.454981986e-12
5.621800462e-12
5.836918926e-12
5.488691767e-12
5.054377482e-12
4.542045492e-12
4.29321153e-12
3.987312107e-12
3.489308013e-12
2.769149858e-12
2.528662368e-12
3.015648636e-12
2.56861108e-12
1.957133326e-12
)


100
(
4.180098221e-08
3.34161984e-08
2.020201277e-08
1.346853887e-08
9.895932329e-09
7.126882607e-09
5.626043411e-09
4.607784926e-09
3.70876246e-09
3.209789874e-09
2.573002841e-09
2.064218748e-09
1.814012302e-09
1.508404161e-09
1.312363531e-09
1.208812532e-09
1.023197277e-09
9.282032444e-10
9.032735356e-10
7.860732917e-10
7.167061708e-10
6.936352401e-10
6.33355169e-10
5.530207782e-10
5.296963176e-10
5.113661284e-10
4.511712359e-10
4.057795514e-10
4.081243622e-10
4.016696297e-10
3.524744795e-10
3.183995235e-10
3.107609991e-10
2.984173853e-10
2.709905917e-10
2.49601979e-10
2.408031306e-10
2.422692696e-10
2.288845294e-10
2.074156833e-10
1.947081634e-10
1.932675802e-10
1.862022781e-10
1.704509976e-10
1.575235426e-10
1.517561949e-10
1.461578451e-10
1.344928614e-10
1.217465726e-10
1.141062939e-10
1.121156692e-10
1.069532825e-10
9.87205041e-11
9.338516967e-11
9.135999803e-11
8.575924904e-11
7.134071241e-11
4.670276865e-11
1.001430235e-11
-1.760357e-11
1.664831111e-11
8.118609055e-11
7.645563623e-11
2.196663226e-11
2.11180581e-11
6.000246601e-11
4.498232521e-11
6.902412179e-12
2.705673233e-11
5.290627389e-11
2.164976016e-11
3.708135255e-12
2.662100303e-11
-1.006654046e-11
-4.861582077e-11
3.183658414e-11
4.301037651e-11
-2.182527526e-11
3.746970441e-11
2.386563287e-11
-1.254675333e-11
2.721554692e-11
-3.268474481e-11
6.26368337e-12
1.77250923e-11
-4.971532034e-11
1.941788342e-12
-4.000103936e-11
-3.87108126e-11
-2.630220595e-11
-6.87026854e-11
-1.008412008e-10
-1.131308103e-10
-1.284164527e-10
-1.215855682e-10
-9.033731325e-11
-2.547942247e-11
4.969288212e-10
6.464385405e-10
3.921254428e-10
)


100
(
4.083850889e-08
3.333424355e-08
2.075462447e-08
1.403845692e-08
1.034749719e-08
7.586627909e-09
5.937353636e-09
4.860820074e-09
4.013393604e-09
3.422580691e-09
2.912194664e-09
2.369578195e-09
2.058212214e-09
1.748351291e-09
1.507636465e-09
1.388758517e-09
1.24476449e-09
1.091710523e-09
1.035795561e-09
9.782525412e-10
8.74120035e-10
8.109357712e-10
7.717871808e-10
7.124425721e-10
6.451010073e-10
6.041547295e-10
5.701767149e-10
5.269148207e-10
4.881616437e-10
4.615434657e-10
4.414113949e-10
4.126491477e-10
3.789963546e-10
3.502636252e-10
3.307188061e-10
3.133656782e-10
2.924618994e-10
2.696720483e-10
2.527110516e-10
2.449147052e-10
2.320695562e-10
2.11984135e-10
1.90735385e-10
1.856038722e-10
1.873337544e-10
1.767478759e-10
1.599108756e-10
1.486217596e-10
1.453598541e-10
1.347135105e-10
1.12006342e-10
8.433062157e-11
8.004284142e-11
8.789553726e-11
7.956519803e-11
5.539212304e-11
5.323399009e-11
5.920769409e-11
2.518508557e-11
-4.549329181e-11
-8.338300174e-11
-3.181905094e-11
5.380181711e-11
9.033158312e-11
5.7194746e-11
2.955082224e-11
3.827182507e-11
5.263434098e-11
4.376013291e-11
3.552704993e-11
4.086607148e-11
3.930307999e-11
2.85187181e-11
-1.319941676e-11
-1.037492902e-10
-1.70745574e-10
-8.265270057e-11
1.480783187e-11
-1.890033869e-11
-3.309148465e-11
-6.948364546e-11
-7.912751304e-11
-1.341862781e-10
-1.522733751e-10
-7.518090329e-11
-1.454202391e-10
-1.694413002e-10
-1.733914883e-10
-2.708535945e-10
-3.342679282e-10
-3.424208667e-10
-4.057317813e-10
-5.520472118e-10
-5.437441198e-10
-5.245205641e-10
-6.280584795e-10
5.695539382e-10
2.179778669e-09
2.042108692e-09
1.521953698e-09
)


100
(
3.996200314e-08
3.319250188e-08
2.149307682e-08
1.461680311e-08
1.066110275e-08
8.126301906e-09
6.390990431e-09
5.222638806e-09
4.453495879e-09
3.733070785e-09
3.237174187e-09
2.711268947e-09
2.32800853e-09
2.047047861e-09
1.746189843e-09
1.559958411e-09
1.433955202e-09
1.288593261e-09
1.156844403e-09
1.087383032e-09
1.021103954e-09
9.261536469e-10
8.462042874e-10
7.946680347e-10
7.448130155e-10
6.7981686e-10
6.204368894e-10
5.833572783e-10
5.545622962e-10
5.149896505e-10
4.674873698e-10
4.376648533e-10
4.207390044e-10
3.878520446e-10
3.474400545e-10
3.154787129e-10
3.022491773e-10
2.888848822e-10
2.637745816e-10
2.289458026e-10
2.036424606e-10
2.019393833e-10
1.917838321e-10
1.638372927e-10
1.236639867e-10
1.218990741e-10
1.410329639e-10
1.28712479e-10
8.422744496e-11
8.007788923e-11
1.071346555e-10
9.592320457e-11
6.400268857e-11
6.671225819e-11
1.039765424e-10
9.857772677e-11
4.610973964e-11
4.027115406e-11
8.855561591e-11
6.952732891e-11
-6.427791546e-13
-2.327473162e-11
1.319013621e-11
5.975235369e-11
8.69840778e-11
8.144597625e-11
5.797217057e-11
2.292717588e-11
-2.680919891e-11
-6.345297172e-11
-8.720298588e-11
-1.22537753e-10
-1.540089381e-10
-1.41910457e-10
-1.335046765e-10
-2.035148779e-10
-1.849662156e-10
-1.112855437e-10
-2.145700083e-10
-2.295165946e-10
-1.539829213e-10
-2.489395864e-10
-2.429513136e-10
-2.100699598e-10
-3.238630772e-10
-4.194800656e-10
-4.801166386e-10
-5.025415206e-10
-5.609059779e-10
-6.825791934e-10
-7.506380696e-10
-7.864050878e-10
-9.095005129e-10
-1.105796368e-09
-1.279987657e-09
-1.342178877e-09
1.737950251e-09
4.465462397e-09
3.713718008e-09
3.202669929e-09
)


100
(
3.947789856e-08
3.31013169e-08
2.190365172e-08
1.503330145e-08
1.123902093e-08
8.70504222e-09
6.891842762e-09
5.64227809e-09
4.810366029e-09
4.102611189e-09
3.551051605e-09
3.093384735e-09
2.612694053e-09
2.282687743e-09
2.007518964e-09
1.73851681e-09
1.560440363e-09
1.431710753e-09
1.29630694e-09
1.163484738e-09
1.078543334e-09
1.013850759e-09
9.230078454e-10
8.213384772e-10
7.573737183e-10
7.193232751e-10
6.601313758e-10
5.912073043e-10
5.482361865e-10
5.304215365e-10
4.976282292e-10
4.473996564e-10
3.878194276e-10
3.741047648e-10
3.697034875e-10
3.236952516e-10
2.493551178e-10
2.249826752e-10
2.350258558e-10
2.081799249e-10
1.796717214e-10
1.495223718e-10
1.704796574e-10
1.944221432e-10
1.530987516e-10
7.028272693e-11
9.466484379e-11
1.670007007e-10
1.312593572e-10
6.172280498e-11
7.652263513e-11
1.346346275e-10
1.133218658e-10
7.215852565e-11
9.162849729e-11
1.321640736e-10
8.335265782e-11
2.031738852e-11
3.597592735e-11
8.187615549e-11
8.215113755e-11
3.208283736e-11
-1.259212901e-11
-2.780182829e-11
-3.794411621e-11
-6.098958254e-11
-8.997407193e-11
-9.578714385e-11
-9.438867484e-11
-1.149035348e-10
-1.41257811e-10
-1.914910299e-10
-2.673105676e-10
-3.148196235e-10
-2.574646081e-10
-2.116106507e-10
-2.871451198e-10
-2.887615992e-10
-2.589726098e-10
-3.287118114e-10
-3.75736675e-10
-4.128314871e-10
-4.904799486e-10
-5.585812455e-10
-5.692801171e-10
-5.974333288e-10
-7.0103928e-10
-7.848771088e-10
-8.34087185e-10
-8.555009174e-10
-1.003562806e-09
-1.119451948e-09
-1.292921733e-09
-1.640919206e-09
-1.957568109e-09
-1.674738244e-09
3.049417667e-09
6.292569582e-09
5.264131247e-09
5.057935467e-09
)


100
(
3.892822862e-08
3.296042754e-08
2.226460154e-08
1.553116683e-08
1.188782567e-08
9.29050042e-09
7.423343757e-09
6.13507165e-09
5.190850563e-09
4.515045858e-09
3.860444768e-09
3.370112918e-09
2.930306271e-09
2.507325461e-09
2.201331774e-09
1.935915214e-09
1.675702671e-09
1.496712883e-09
1.38057141e-09
1.255515584e-09
1.114357672e-09
1.013579286e-09
9.534665424e-10
8.652262983e-10
7.421170177e-10
6.444976267e-10
6.140567599e-10
5.97103176e-10
5.495933416e-10
4.796828648e-10
4.595713077e-10
4.568033275e-10
4.118317782e-10
3.253781456e-10
3.259392463e-10
3.701266799e-10
3.27787342e-10
1.860144783e-10
1.572716333e-10
2.393610739e-10
2.183888811e-10
1.511675291e-10
1.285834753e-10
2.091168351e-10
2.397179751e-10
1.307314011e-10
2.743402043e-11
1.260276281e-10
2.127991274e-10
1.311289921e-10
6.120179962e-11
9.708943955e-11
1.402361332e-10
1.1220293e-10
7.898273464e-11
7.640403786e-11
4.462229094e-11
-1.124383511e-11
-5.298541486e-11
-9.959393998e-11
-1.10022573e-10
-6.584302099e-11
-4.291565274e-11
-7.720611068e-11
-1.181124323e-10
-1.183231017e-10
-9.084822772e-11
-9.457560066e-11
-1.236785418e-10
-1.623337485e-10
-1.934043155e-10
-2.256166969e-10
-2.877970054e-10
-3.826524401e-10
-4.273251478e-10
-3.539571176e-10
-3.401331161e-10
-4.246966338e-10
-4.686329371e-10
-4.716041232e-10
-5.207304965e-10
-6.429316677e-10
-6.672146194e-10
-6.50200908e-10
-6.901461391e-10
-7.049927788e-10
-7.396278335e-10
-9.3810588e-10
-1.02991978e-09
-9.087517762e-10
-1.102345077e-09
-1.33038138e-09
-1.605241442e-09
-2.070014893e-09
-2.610941075e-09
-8.76727681e-10
4.481644756e-09
6.737845676e-09
6.34799248e-09
6.760144212e-09
)


100
(
3.810839766e-08
3.265761001e-08
2.258004742e-08
1.620785285e-08
1.251249029e-08
9.837268244e-09
7.951558781e-09
6.610706577e-09
5.569047593e-09
4.838770576e-09
4.212077349e-09
3.619334271e-09
3.17517684e-09
2.749109396e-09
2.360210978e-09
2.07587571e-09
1.816187441e-09
1.550855926e-09
1.372821428e-09
1.280590363e-09
1.170735702e-09
1.020189379e-09
8.935418796e-10
8.414174016e-10
7.636170925e-10
6.098231343e-10
5.162688629e-10
5.300815377e-10
5.484024576e-10
4.988065711e-10
4.010597234e-10
4.140594213e-10
4.620011787e-10
3.91038663e-10
2.862664536e-10
3.379175884e-10
4.221080551e-10
3.149886452e-10
1.516568901e-10
1.874536586e-10
2.988535353e-10
2.48207615e-10
1.611128227e-10
1.685536971e-10
2.668050672e-10
2.186198805e-10
8.747851211e-11
4.12863552e-11
1.274708215e-10
1.617926657e-10
7.768498162e-11
3.568283016e-11
1.295079443e-11
2.772262746e-11
2.331543782e-11
-1.120965634e-11
-5.110598294e-11
-7.794408495e-11
-7.345947598e-11
-8.429471991e-11
-1.24824722e-10
-1.62257241e-10
-1.90265059e-10
-1.520133893e-10
-1.129501541e-10
-1.47473332e-10
-1.90850953e-10
-2.507676192e-10
-2.603662027e-10
-2.293403616e-10
-2.550285395e-10
-3.163245906e-10
-3.332521533e-10
-3.167128162e-10
-3.592258893e-10
-4.047878357e-10
-4.382794588e-10
-4.608649179e-10
-4.847289821e-10
-5.491755285e-10
-5.854683659e-10
-6.314382194e-10
-6.88926883e-10
-7.074166385e-10
-7.19203422e-10
-7.739072153e-10
-8.560592999e-10
-1.08547318e-09
-1.259548913e-09
-1.074640646e-09
-1.152127781e-09
-1.657377648e-09
-2.241755986e-09
-2.984583019e-09
-3.610639221e-09
4.615615297e-10
6.820178112e-09
7.566050192e-09
7.213849191e-09
8.01107997e-09
)


100
(
3.712145397e-08
3.224881522e-08
2.293826117e-08
1.682902894e-08
1.303442161e-08
1.041026351e-08
8.472742651e-09
7.059475153e-09
6.017408441e-09
5.133347718e-09
4.493593681e-09
3.871010226e-09
3.352612469e-09
2.953537343e-09
2.53425928e-09
2.165733872e-09
1.900845842e-09
1.639249103e-09
1.375254727e-09
1.201389292e-09
1.1358464e-09
1.056341575e-09
9.03318697e-10
7.47682937e-10
7.21307356e-10
6.859337406e-10
5.073835106e-10
4.327842638e-10
4.902489043e-10
5.401034157e-10
4.25696984e-10
3.556352557e-10
4.874027817e-10
5.392258577e-10
3.901952615e-10
2.846660526e-10
4.198324755e-10
4.889293133e-10
3.063177625e-10
1.451235131e-10
2.403849999e-10
3.526149302e-10
2.676567867e-10
1.72837563e-10
1.912248228e-10
2.107218509e-10
1.220555919e-10
2.033716057e-11
-2.663021776e-11
-2.626583339e-11
1.355963117e-11
1.868245049e-11
-1.457433285e-11
-7.580007426e-11
-1.374689033e-10
-7.953939187e-11
-1.31595814e-11
-4.689403075e-11
-9.02029335e-11
-1.308594507e-10
-1.246593709e-10
-1.345695289e-10
-2.001394187e-10
-2.414926136e-10
-2.787097233e-10
-2.909495509e-10
-2.428675838e-10
-2.207049402e-10
-3.018298175e-10
-3.829650297e-10
-3.530920679e-10
-3.13049731e-10
-3.219961286e-10
-3.346140349e-10
-3.49335651e-10
-3.371896678e-10
-3.688363852e-10
-4.481188089e-10
-4.851572087e-10
-5.332247214e-10
-6.047282827e-10
-6.583607798e-10
-7.197301195e-10
-8.234434106e-10
-9.709484831e-10
-1.098371653e-09
-1.204039041e-09
-1.436543375e-09
-1.618507635e-09
-1.694841284e-09
-2.182369282e-09
-2.866049127e-09
-3.598723419e-09
-4.732353622e-09
-5.12905769e-09
2.935573648e-09
1.130981988e-08
9.997848056e-09
8.833424005e-09
9.433166473e-09
)


100
(
3.623268082e-08
3.184362024e-08
2.320285199e-08
1.728748327e-08
1.356275937e-08
1.095119302e-08
8.983616174e-09
7.475114161e-09
6.382071697e-09
5.423343839e-09
4.700567015e-09
4.137444775e-09
3.503866504e-09
3.044791114e-09
2.692891751e-09
2.280215412e-09
1.935495872e-09
1.662681454e-09
1.414075555e-09
1.190414789e-09
1.003776287e-09
9.826092134e-10
9.65433727e-10
8.272232157e-10
6.798528758e-10
6.469639359e-10
6.370017381e-10
4.783565384e-10
4.275117377e-10
5.187133054e-10
5.455854742e-10
3.953377617e-10
3.92329887e-10
6.024271415e-10
5.926216612e-10
4.123399004e-10
3.556125249e-10
5.099985074e-10
4.743011448e-10
2.61127388e-10
1.70975332e-10
2.534030973e-10
3.011559968e-10
2.031519976e-10
1.304890328e-10
7.022498993e-11
5.20722931e-11
2.031921622e-11
-4.315884428e-11
-8.543047013e-11
-1.293805097e-10
-1.232659619e-10
-4.459044859e-11
-1.819219951e-11
-8.125902124e-11
-1.435065705e-10
-1.771561625e-10
-1.349144618e-10
-7.468374291e-11
-9.876500625e-11
-1.360485791e-10
-1.92908547e-10
-2.458831187e-10
-2.426448985e-10
-2.436265915e-10
-2.826369197e-10
-3.193548167e-10
-3.134419805e-10
-2.951808519e-10
-3.402684716e-10
-3.895700076e-10
-4.025407621e-10
-3.525327468e-10
-2.759794294e-10
-3.097856841e-10
-3.870936662e-10
-4.380808173e-10
-5.305253023e-10
-6.450885589e-10
-7.174716907e-10
-7.724453627e-10
-8.727648329e-10
-1.144564644e-09
-1.402564881e-09
-1.55788165e-09
-1.711104342e-09
-2.095767273e-09
-2.202703725e-09
-2.157860077e-09
-2.73659438e-09
-3.557530908e-09
-4.584248709e-09
-5.841364292e-09
-6.908319752e-09
-6.395181042e-09
6.233133053e-09
1.689569093e-08
1.372461674e-08
1.213060479e-08
1.261205967e-08
)


100
(
3.552097062e-08
3.141918706e-08
2.326073697e-08
1.759961854e-08
1.410410152e-08
1.145017271e-08
9.438556585e-09
7.883239382e-09
6.698429288e-09
5.780229845e-09
4.847498584e-09
4.243604122e-09
3.737814602e-09
3.091240826e-09
2.687536318e-09
2.389265455e-09
1.975527592e-09
1.608885948e-09
1.419816205e-09
1.275975114e-09
1.063220689e-09
8.567074065e-10
8.781311567e-10
9.459237083e-10
8.261643841e-10
7.019100121e-10
6.269224949e-10
6.312185483e-10
5.381639492e-10
5.091902548e-10
6.130620462e-10
5.209146138e-10
3.719587009e-10
4.975255343e-10
7.200795304e-10
6.14801362e-10
4.07653506e-10
4.023195051e-10
4.719102727e-10
3.737147961e-10
1.873471158e-10
9.378066211e-11
9.752147474e-11
1.693607201e-10
1.558839606e-10
8.913401812e-11
-5.501565072e-12
-1.037851503e-10
-8.065635422e-11
-4.725616377e-11
-8.754827234e-11
-1.121896166e-10
-1.330818719e-10
-1.360668934e-10
-7.872876773e-11
-9.064297697e-11
-1.794905699e-10
-2.128300287e-10
-2.365337401e-10
-2.22084509e-10
-1.386523517e-10
-1.02686926e-10
-1.723976799e-10
-2.542675951e-10
-2.67229917e-10
-2.439675932e-10
-2.83400538e-10
-3.538512087e-10
-4.043306366e-10
-4.365134375e-10
-4.157703001e-10
-4.006996206e-10
-4.216725936e-10
-4.664341103e-10
-5.414575979e-10
-6.830926746e-10
-8.444345519e-10
-9.216378288e-10
-9.669337686e-10
-1.092085302e-09
-1.381384266e-09
-1.657386101e-09
-1.834614218e-09
-2.018896339e-09
-2.31707519e-09
-2.772957385e-09
-2.9616295e-09
-3.063386287e-09
-3.618837316e-09
-4.40596354e-09
-5.636024907e-09
-6.775998113e-09
-8.510723865e-09
-1.020343931e-08
-6.931521408e-09
1.191138956e-08
2.362960871e-08
1.793884528e-08
1.690402713e-08
1.799280768e-08
)


100
(
3.479786356e-08
3.096296598e-08
2.322843577e-08
1.79452375e-08
1.457208874e-08
1.188344308e-08
9.830313575e-09
8.279176867e-09
6.956385877e-09
5.987345034e-09
5.11520457e-09
4.272835012e-09
3.753092883e-09
3.267199802e-09
2.633274472e-09
2.29433723e-09
2.079714931e-09
1.699690858e-09
1.345909726e-09
1.241741048e-09
1.202863505e-09
1.024375247e-09
8.515346194e-10
8.426084159e-10
9.359076169e-10
8.929681343e-10
7.868424923e-10
6.653061447e-10
6.786601793e-10
6.464065696e-10
6.064392726e-10
6.628306927e-10
5.204554916e-10
4.008149425e-10
5.678977271e-10
6.833691587e-10
5.412220444e-10
3.837590017e-10
3.070003447e-10
2.790878429e-10
2.305927849e-10
1.460118174e-10
6.590551685e-11
-3.93724537e-11
-2.937364817e-11
7.879095056e-11
8.022465769e-11
9.899763266e-13
-8.506566898e-11
-1.472959299e-10
-9.022859695e-11
-3.532673966e-11
-9.83705173e-11
-1.449824033e-10
-1.822240637e-10
-2.45336094e-10
-2.186714911e-10
-1.734759855e-10
-2.034071453e-10
-2.226051922e-10
-2.394595885e-10
-1.870385572e-10
-1.214617091e-10
-1.949591642e-10
-3.27422717e-10
-3.929312767e-10
-4.367032212e-10
-4.448195123e-10
-4.45010807e-10
-5.327290802e-10
-6.499922111e-10
-6.85651584e-10
-7.819186842e-10
-1.011306833e-09
-1.208991169e-09
-1.276979979e-09
-1.293256666e-09
-1.423389084e-09
-1.701435903e-09
-2.045919284e-09
-2.32200878e-09
-2.42830701e-09
-2.470530023e-09
-3.068719687e-09
-3.553421583e-09
-3.874303205e-09
-4.197292721e-09
-4.613067356e-09
-5.497292857e-09
-6.657343871e-09
-8.207980865e-09
-1.020646267e-08
-1.292742509e-08
-1.423677265e-08
-4.745166718e-09
2.123743124e-08
3.125621404e-08
2.258091069e-08
2.253517201e-08
2.464629551e-08
)


100
(
3.373299535e-08
3.029785555e-08
2.314058467e-08
1.82554941e-08
1.493710984e-08
1.228454079e-08
1.015574361e-08
8.564613125e-09
7.279724925e-09
6.120845276e-09
5.259116912e-09
4.388793039e-09
3.659217205e-09
3.23891397e-09
2.790104705e-09
2.183403248e-09
1.939692006e-09
1.847875721e-09
1.535183082e-09
1.196321153e-09
1.16529126e-09
1.236040511e-09
1.075525666e-09
9.224030807e-10
8.531207566e-10
9.584184594e-10
1.000055161e-09
8.948695176e-10
7.763268241e-10
6.69591206e-10
6.83358878e-10
8.376486156e-10
6.283271144e-10
3.699801252e-10
3.923454125e-10
4.583945535e-10
5.121746645e-10
4.47817696e-10
3.672165499e-10
2.10913944e-10
1.208676226e-10
1.346663307e-10
9.367503928e-11
2.413491729e-11
-4.455818889e-11
-1.088048898e-10
-3.082314873e-11
9.381474214e-11
3.659747135e-11
-7.151175796e-11
-1.255167582e-10
-1.964100905e-10
-1.811939862e-10
-1.300278335e-10
-1.595586023e-10
-1.824520023e-10
-2.523641304e-10
-3.180466265e-10
-2.087827561e-10
-1.474695533e-10
-2.493150657e-10
-3.466083946e-10
-4.309527735e-10
-4.930767246e-10
-5.051808226e-10
-5.229207176e-10
-5.91593627e-10
-6.838583746e-10
-6.49025004e-10
-7.700593371e-10
-1.114698423e-09
-1.411810778e-09
-1.61442116e-09
-1.672051655e-09
-1.773812195e-09
-2.003633045e-09
-2.250432814e-09
-2.549135992e-09
-2.830886872e-09
-2.95188965e-09
-3.133918712e-09
-3.610330476e-09
-4.055738135e-09
-4.478940475e-09
-4.856601027e-09
-5.722143511e-09
-6.309760405e-09
-6.671041546e-09
-8.350311126e-09
-1.004588927e-08
-1.185865853e-08
-1.479283066e-08
-1.79786985e-08
-1.900232238e-08
9.564910623e-10
3.503829855e-08
3.965803443e-08
2.804100646e-08
2.852060555e-08
3.084186206e-08
)


100
(
3.233178465e-08
2.942098692e-08
2.307232999e-08
1.843561579e-08
1.516332552e-08
1.2604597e-08
1.049405155e-08
8.753227596e-09
7.466881922e-09
6.22863309e-09
5.265823463e-09
4.521687966e-09
3.654958549e-09
3.050615655e-09
2.761372248e-09
2.391250142e-09
1.846465535e-09
1.691863735e-09
1.730236786e-09
1.509270264e-09
1.234946591e-09
1.185559517e-09
1.275897868e-09
1.185756343e-09
1.038741546e-09
8.965073193e-10
9.734182036e-10
1.086120633e-09
9.823265966e-10
8.432189944e-10
6.739346507e-10
6.121843245e-10
6.792213568e-10
5.286096237e-10
3.466205408e-10
3.474319239e-10
2.934027959e-10
3.63279242e-10
4.299769103e-10
3.169621949e-10
1.777447986e-10
2.001223312e-11
3.966782858e-11
1.326840579e-10
8.413376853e-11
-5.967524069e-12
-6.844696295e-11
-1.352574386e-10
-1.182248443e-10
-6.578436666e-11
-8.465320585e-11
-1.101415724e-10
-1.734004267e-10
-3.205546045e-10
-2.611174797e-10
-1.066323461e-10
-1.785869777e-10
-2.978215457e-10
-4.114160664e-10
-5.496867359e-10
-5.80087749e-10
-5.892280454e-10
-6.869472368e-10
-8.096686582e-10
-9.515758618e-10
-8.267190459e-10
-7.508431816e-10
-9.857446465e-10
-1.255790345e-09
-1.583008749e-09
-1.85595454e-09
-2.05446815e-09
-2.267523481e-09
-2.431186734e-09
-2.623598386e-09
-3.161529257e-09
-3.818071809e-09
-3.94071433e-09
-3.802286384e-09
-4.089355661e-09
-4.827808145e-09
-5.493114657e-09
-5.737877581e-09
-6.096614887e-09
-7.257476347e-09
-8.183948932e-09
-8.3620905e-09
-1.014270413e-08
-1.282228626e-08
-1.47160414e-08
-1.648332736e-08
-1.985449021e-08
-2.430139713e-08
-2.370096337e-08
1.073180972e-08
5.084741979e-08
4.859351214e-08
3.567517421e-08
3.710438215e-08
4.088553565e-08
)


100
(
3.107680296e-08
2.858016103e-08
2.283126031e-08
1.842713213e-08
1.538505865e-08
1.283302207e-08
1.071655063e-08
8.892353427e-09
7.520548979e-09
6.433819221e-09
5.178489502e-09
4.414803061e-09
3.822802305e-09
2.983916991e-09
2.530685735e-09
2.404943514e-09
2.136892875e-09
1.673322928e-09
1.577349387e-09
1.733107387e-09
1.606002203e-09
1.356226685e-09
1.238087314e-09
1.329507193e-09
1.313766698e-09
1.152630154e-09
9.981646201e-10
9.169829943e-10
1.003280605e-09
9.999707773e-10
8.330869359e-10
6.464924678e-10
4.126203576e-10
4.088176934e-10
4.895009745e-10
3.977307584e-10
3.170818192e-10
1.83797749e-10
1.503629696e-10
3.256899141e-10
3.865810246e-10
2.505020613e-10
1.078044292e-10
1.282734126e-12
3.091293779e-11
7.740630129e-11
-4.015929181e-11
-1.50959592e-10
-1.893514125e-10
-2.673296445e-10
-2.342084166e-10
-9.314713408e-11
-8.19458127e-11
-1.919266995e-10
-3.41560377e-10
-4.799034025e-10
-4.199336325e-10
-4.758943692e-10
-7.644500896e-10
-8.657624804e-10
-1.020722732e-09
-1.178848977e-09
-1.055467718e-09
-9.799388121e-10
-1.180856831e-09
-1.431169648e-09
-1.617934387e-09
-1.820718089e-09
-2.089660797e-09
-2.376507792e-09
-2.618799686e-09
-2.785650156e-09
-3.023184714e-09
-3.466571765e-09
-4.104835718e-09
-4.675709029e-09
-5.026523827e-09
-5.288183762e-09
-5.471278399e-09
-6.159294485e-09
-7.104616253e-09
-7.391569654e-09
-7.828847492e-09
-9.070269762e-09
-1.007639615e-08
-1.03386533e-08
-1.184558445e-08
-1.526089631e-08
-1.749153048e-08
-1.962819334e-08
-2.286047769e-08
-2.803846703e-08
-3.263033611e-08
-2.612529049e-08
2.335017728e-08
6.741222923e-08
5.858616267e-08
4.499117115e-08
4.339714795e-08
4.436551292e-08
)


100
(
2.996475014e-08
2.773162655e-08
2.244295301e-08
1.835994839e-08
1.551623761e-08
1.298298704e-08
1.083212634e-08
9.069945722e-09
7.45730224e-09
6.36308177e-09
5.360972696e-09
4.235847582e-09
3.640355668e-09
3.170891006e-09
2.45529499e-09
2.159796821e-09
2.205275416e-09
2.033730668e-09
1.661508176e-09
1.586200904e-09
1.7997249e-09
1.757286842e-09
1.506611088e-09
1.266331949e-09
1.346410369e-09
1.42361071e-09
1.205748169e-09
1.009842134e-09
8.049019305e-10
7.949386545e-10
8.686590524e-10
7.565605427e-10
5.902759285e-10
3.831484893e-10
2.050822925e-10
3.10510327e-10
4.247765163e-10
3.486503705e-10
2.332294249e-10
1.145043713e-10
2.092145946e-10
3.938362317e-10
3.101963324e-10
1.11126252e-10
-1.54441977e-11
-1.669678987e-10
-1.904805938e-10
-1.274757803e-10
-1.708448557e-10
-2.113972214e-10
-2.926193741e-10
-4.155893536e-10
-2.39732066e-10
-1.028523974e-10
-4.106117077e-10
-7.452159454e-10
-9.883997277e-10
-1.243002679e-09
-1.211464572e-09
-1.134651912e-09
-1.233851906e-09
-1.494402168e-09
-1.785475788e-09
-1.574771742e-09
-1.633957867e-09
-2.188503752e-09
-2.625887002e-09
-2.991786249e-09
-3.129709934e-09
-3.199964313e-09
-3.503580683e-09
-3.991873469e-09
-4.491270425e-09
-4.991965465e-09
-5.494769016e-09
-5.909837437e-09
-6.41673321e-09
-7.200853828e-09
-8.212695439e-09
-8.927996423e-09
-9.206910831e-09
-9.687476615e-09
-1.101259359e-08
-1.252853571e-08
-1.315178876e-08
-1.391259129e-08
-1.625018069e-08
-1.9366643e-08
-2.269239615e-08
-2.617765113e-08
-2.970090259e-08
-3.762356485e-08
-4.381983864e-08
-2.960551914e-08
3.660482514e-08
8.508112981e-08
7.077744483e-08
5.629651035e-08
5.615379729e-08
5.888451198e-08
)


100
(
2.89134136e-08
2.688379588e-08
2.197054097e-08
1.828039091e-08
1.552959803e-08
1.306290531e-08
1.083451797e-08
9.063809502e-09
7.539295739e-09
6.171301437e-09
5.264213309e-09
4.320977083e-09
3.401030079e-09
3.016255789e-09
2.712925137e-09
2.134622023e-09
1.949797702e-09
2.136123605e-09
2.069970898e-09
1.767973426e-09
1.63744419e-09
1.856069747e-09
1.899033431e-09
1.629584422e-09
1.3656235e-09
1.262127364e-09
1.290420666e-09
1.155010547e-09
9.274232362e-10
7.205055461e-10
5.075918295e-10
6.064333196e-10
7.302457611e-10
5.736245845e-10
3.919165446e-10
1.564492002e-10
1.950870038e-10
4.444245106e-10
4.646761286e-10
3.175734876e-10
1.884367513e-10
6.518605464e-11
9.890064089e-11
1.346473266e-10
-4.59334412e-12
-9.861552357e-11
-1.914499915e-10
-4.537639423e-10
-4.064431825e-10
-1.56557001e-10
-2.133682892e-10
-3.779808115e-10
-5.780856632e-10
-8.030008293e-10
-9.174153582e-10
-1.092946266e-09
-1.39075935e-09
-1.528079305e-09
-1.852668311e-09
-1.894748357e-09
-1.505769358e-09
-1.655364399e-09
-2.147170712e-09
-2.586083268e-09
-3.0690672e-09
-3.392413035e-09
-3.593825309e-09
-3.88796211e-09
-4.184522954e-09
-4.348107786e-09
-4.668624121e-09
-5.592990408e-09
-6.562962236e-09
-6.907766539e-09
-7.117146095e-09
-7.791897558e-09
-8.68995561e-09
-9.679587623e-09
-1.06836925e-08
-1.13188392e-08
-1.204266844e-08
-1.378279238e-08
-1.525700248e-08
-1.567995314e-08
-1.692383621e-08
-1.944570206e-08
-2.237834094e-08
-2.584915178e-08
-2.825900301e-08
-3.306848979e-08
-3.863372011e-08
-4.699654039e-08
-5.434272406e-08
-3.154013686e-08
4.947980242e-08
1.022896875e-07
8.499867771e-08
6.942426984e-08
7.026219083e-08
7.390644711e-08
)


100
(
2.737781846e-08
2.574843256e-08
2.148315882e-08
1.809772039e-08
1.54085316e-08
1.3036132e-08
1.087098293e-08
8.918660907e-09
7.4510065e-09
6.024947516e-09
4.965555771e-09
4.290892734e-09
3.445801823e-09
2.761593197e-09
2.610768229e-09
2.468458796e-09
2.009586075e-09
1.863606225e-09
2.15192471e-09
2.196022046e-09
1.919245483e-09
1.64769139e-09
1.839117203e-09
1.987379497e-09
1.659504386e-09
1.347469745e-09
1.011247774e-09
1.008566584e-09
1.065928651e-09
8.31079206e-10
6.37209422e-10
3.973439482e-10
3.676634979e-10
6.212860401e-10
6.841275393e-10
5.12762901e-10
3.015988684e-10
1.369957527e-10
2.839894159e-10
4.647502506e-10
2.856992946e-10
7.06531781e-11
-7.617244894e-11
-2.547085351e-10
-2.654817559e-10
-1.540365934e-10
-1.86561588e-10
-3.004411218e-10
-5.083367786e-10
-7.265289821e-10
-5.368498066e-10
-4.777078423e-10
-9.250669536e-10
-1.32090928e-09
-1.542654326e-09
-1.911940999e-09
-2.003844253e-09
-1.845048574e-09
-2.020226417e-09
-2.290339475e-09
-2.567902845e-09
-2.474061304e-09
-2.767117706e-09
-3.604516806e-09
-4.216776976e-09
-4.678723521e-09
-4.870974895e-09
-5.064482455e-09
-5.516094235e-09
-6.227049953e-09
-7.170190871e-09
-7.753330585e-09
-8.089561657e-09
-8.582930207e-09
-9.124574284e-09
-1.018696024e-08
-1.172584237e-08
-1.295932202e-08
-1.391666181e-08
-1.482248779e-08
-1.595508316e-08
-1.748254146e-08
-1.874967443e-08
-2.049971122e-08
-2.438331334e-08
-2.720807511e-08
-2.823254303e-08
-3.232265363e-08
-3.708574121e-08
-4.25907619e-08
-5.637703474e-08
-6.165119148e-08
-6.203437772e-08
-2.741903363e-08
7.056485766e-08
1.207829014e-07
1.006188082e-07
8.458797833e-08
8.309709628e-08
8.465097905e-08
)


100
(
2.561377893e-08
2.44528212e-08
2.091898549e-08
1.778572568e-08
1.527703494e-08
1.288542967e-08
1.074283454e-08
8.703803792e-09
7.168957898e-09
5.99825516e-09
4.609283479e-09
3.926048988e-09
3.577877248e-09
2.81156447e-09
2.33879503e-09
2.407004739e-09
2.381589219e-09
2.026887802e-09
1.860110174e-09
2.186504957e-09
2.327861944e-09
2.029504789e-09
1.733177472e-09
1.673076126e-09
1.745839822e-09
1.541778318e-09
1.215929014e-09
9.222126332e-10
6.93494915e-10
7.398651561e-10
7.826091898e-10
6.527093857e-10
4.636790028e-10
2.375944699e-10
5.313045709e-10
8.697473351e-10
6.460485178e-10
3.622922984e-10
1.628527031e-10
-8.616830371e-11
-4.755367401e-11
7.659656947e-11
-5.410819624e-11
-1.698484548e-10
-4.297833758e-10
-8.394890605e-10
-5.856017683e-10
-1.886621284e-10
-4.687388851e-10
-8.48602652e-10
-1.195195134e-09
-1.582824261e-09
-1.676223476e-09
-1.698838836e-09
-1.952151727e-09
-2.319238715e-09
-2.846102598e-09
-2.686998719e-09
-2.199722251e-09
-2.655237987e-09
-3.368759728e-09
-3.908475836e-09
-4.52426805e-09
-5.043340885e-09
-5.371510002e-09
-5.731552517e-09
-6.258753742e-09
-6.647990285e-09
-7.248230532e-09
-8.453351048e-09
-9.559511863e-09
-1.004347044e-08
-1.040735468e-08
-1.125751098e-08
-1.280762265e-08
-1.39542119e-08
-1.459186456e-08
-1.557588929e-08
-1.70825244e-08
-1.949407286e-08
-2.193561664e-08
-2.263184979e-08