/*--------------------------------*- C++ -*----------------------------------*\
| =========                 |                                                 |
| \\      /  F ield         | OpenFOAM: The Open Source CFD Toolbox           |
|  \\    /   O peration     | Version:  2.3.1                                 |
|   \\  /    A nd           | Web:      www.OpenFOAM.org                      |
|    \\/     M anipulation  |                                                 |
\*---------------------------------------------------------------------------*/
FoamFile
{
    version     2.0;
    format      ascii;
    class       dictionary;
    location    "constant";
    object      DPSI5;
}
// * * * * * * * * * * * * * * * * * * * * * * * * * * * * * * * * * * * * * //

DPSI5_table
100
(

100
(
-5.810740889e-10
-4.864255633e-10
-3.429188557e-10
-2.519850166e-10
-2.071161561e-10
-1.483937138e-10
-1.253168604e-10
-1.002227126e-10
-8.683900272e-11
-6.662545374e-11
-6.406706695e-11
-4.172981325e-11
-3.817288615e-11
-3.640938421e-11
-2.669712129e-11
-2.51381503e-11
-2.552410772e-11
-1.933577153e-11
-1.828430472e-11
-1.911447277e-11
-1.598727884e-11
-1.421919491e-11
-1.426723037e-11
-1.384740542e-11
-1.114762777e-11
-1.057383685e-11
-1.08655347e-11
-1.039922968e-11
-9.278527125e-12
-9.082105322e-12
-9.31513608e-12
-8.187370802e-12
-7.098266291e-12
-6.79702291e-12
-6.920208363e-12
-6.891557512e-12
-6.402708035e-12
-6.402137502e-12
-6.509332453e-12
-6.375723188e-12
-5.775144213e-12
-5.641333644e-12
-5.605289622e-12
-5.327550295e-12
-4.635883563e-12
-4.348011431e-12
-4.220273478e-12
-4.182351704e-12
-3.797725686e-12
-3.746104519e-12
-3.849741383e-12
-3.884193871e-12
-3.608455289e-12
-3.472715202e-12
-3.404779078e-12
-3.163880784e-12
-2.860092611e-12
-2.877948342e-12
-3.357237907e-12
-4.428822218e-12
-5.568489743e-12
-5.167617124e-12
-4.062567671e-12
-3.923702189e-12
-4.440792491e-12
-4.07311136e-12
-3.442781271e-12
-3.569265656e-12
-3.68621517e-12
-3.156089822e-12
-2.810734305e-12
-2.935610518e-12
-2.714506635e-12
-2.612896068e-12
-3.620955465e-12
-4.31614838e-12
-2.853068467e-12
-2.92613131e-12
-3.247859907e-12
-2.021415244e-12
-2.468284576e-12
-2.075536007e-12
-1.671075279e-12
-2.202535697e-12
-1.516013571e-12
-1.578859543e-12
-2.165010572e-12
-1.246319919e-12
-1.980916345e-12
-1.315002342e-12
-1.548185516e-12
-1.323151346e-12
-1.902394352e-12
-1.914575586e-12
-2.443207784e-12
-2.242870055e-12
-2.503477367e-12
-2.38395068e-12
-5.594593594e-13
-6.757362811e-14
)


100
(
-5.80943377e-10
-4.962907837e-10
-3.584288392e-10
-2.701800749e-10
-2.20911443e-10
-1.644087271e-10
-1.389130063e-10
-1.132939962e-10
-9.854400593e-11
-7.955169857e-11
-7.328957746e-11
-5.501568374e-11
-4.807781351e-11
-4.492848558e-11
-3.721318362e-11
-3.427698619e-11
-3.358779221e-11
-2.875826956e-11
-2.702465923e-11
-2.677840075e-11
-2.41242215e-11
-2.210925386e-11
-2.154753603e-11
-2.079389514e-11
-1.839899453e-11
-1.730509798e-11
-1.705828209e-11
-1.64167921e-11
-1.513284391e-11
-1.456217245e-11
-1.451873791e-11
-1.35150612e-11
-1.230424323e-11
-1.16644973e-11
-1.152637638e-11
-1.125754957e-11
-1.062212282e-11
-1.028594047e-11
-1.032591413e-11
-1.022777801e-11
-9.65961564e-12
-9.34854584e-12
-9.340281298e-12
-9.368032543e-12
-8.799432421e-12
-8.283581761e-12
-7.956889782e-12
-7.817645779e-12
-7.354083437e-12
-6.965259682e-12
-6.864464333e-12
-7.001220598e-12
-7.153396937e-12
-7.129158114e-12
-7.190104817e-12
-7.199932471e-12
-7.246732356e-12
-7.075814065e-12
-7.112129346e-12
-7.382056335e-12
-8.106459668e-12
-8.730797495e-12
-8.526033356e-12
-7.662292984e-12
-7.083494083e-12
-6.902776376e-12
-6.546620811e-12
-6.063105947e-12
-5.768487161e-12
-5.511706757e-12
-5.099579536e-12
-4.758514915e-12
-4.498038015e-12
-4.142186739e-12
-4.253393243e-12
-5.621735112e-12
-7.016472764e-12
-6.640952408e-12
-6.590600716e-12
-6.06018204e-12
-5.891828499e-12
-7.342513552e-12
-5.941663091e-12
-7.833541902e-12
-7.618512809e-12
-6.596023121e-12
-7.365499753e-12
-6.979779726e-12
-7.044895259e-12
-8.488486108e-12
-9.684127392e-12
-1.062649933e-11
-1.211621788e-11
-1.753252306e-11
-1.679286159e-11
-1.839768149e-11
-2.177883916e-11
-1.366410487e-11
-4.183458104e-12
-1.001266694e-12
)


100
(
-5.8103249e-10
-5.172157181e-10
-3.91223557e-10
-3.059785509e-10
-2.475633931e-10
-1.97169484e-10
-1.642562991e-10
-1.404873568e-10
-1.216433136e-10
-1.047040081e-10
-9.346018685e-11
-7.929930406e-11
-6.903346807e-11
-6.256503013e-11
-5.631937371e-11
-5.209300345e-11
-4.960334627e-11
-4.605501502e-11
-4.303123995e-11
-4.186882685e-11
-3.945312575e-11
-3.687237213e-11
-3.524252018e-11
-3.441916078e-11
-3.252257051e-11
-3.07414227e-11
-2.96899397e-11
-2.908531988e-11
-2.768465147e-11
-2.640989456e-11
-2.561378286e-11
-2.522342354e-11
-2.413812536e-11
-2.308275789e-11
-2.24762771e-11
-2.231374484e-11
-2.200290743e-11
-2.144547993e-11
-2.120758919e-11
-2.119883125e-11
-2.131686771e-11
-2.125420653e-11
-2.1164529e-11
-2.148541773e-11
-2.181060054e-11
-2.242653025e-11
-2.238788798e-11
-2.248660679e-11
-2.238022308e-11
-2.265732119e-11
-2.224391131e-11
-2.217506414e-11
-2.198203411e-11
-2.17843495e-11
-2.102683044e-11
-2.037257053e-11
-1.97861204e-11
-1.924785302e-11
-1.79893406e-11
-1.626879248e-11
-1.481443703e-11
-1.462588519e-11
-1.494724925e-11
-1.436514216e-11
-1.297308063e-11
-1.216551152e-11
-1.162883176e-11
-1.083770808e-11
-1.055271033e-11
-1.149582772e-11
-1.272977317e-11
-1.42718752e-11
-1.685809629e-11
-1.948286822e-11
-1.80555376e-11
-1.904677286e-11
-2.619223072e-11
-2.394723551e-11
-2.048866537e-11
-2.689083201e-11
-2.646370827e-11
-2.504091091e-11
-2.719531916e-11
-2.590530062e-11
-2.594095586e-11
-2.820265598e-11
-3.105886667e-11
-3.63137971e-11
-3.909571018e-11
-4.794880782e-11
-5.610534798e-11
-6.068690535e-11
-7.192128148e-11
-7.489996932e-11
-8.922585918e-11
-1.062123445e-10
-1.159800453e-10
-6.017348974e-11
-2.329884301e-11
-8.06227183e-12
)


100
(
-5.812298267e-10
-5.39779307e-10
-4.30278795e-10
-3.40395503e-10
-2.794102293e-10
-2.308072329e-10
-1.933266809e-10
-1.67795845e-10
-1.480157072e-10
-1.294210539e-10
-1.176309005e-10
-1.027695757e-10
-9.074046479e-11
-8.261916633e-11
-7.471778746e-11
-6.902300752e-11
-6.605020077e-11
-6.263246597e-11
-5.870823269e-11
-5.637971156e-11
-5.500820173e-11
-5.23932544e-11
-5.00012256e-11
-4.882171128e-11
-4.874325492e-11
-4.778532443e-11
-4.693326258e-11
-4.65020448e-11
-4.650702882e-11
-4.571103931e-11
-4.471243716e-11
-4.425376762e-11
-4.411885742e-11
-4.44124241e-11
-4.349390149e-11
-4.327632134e-11
-4.354284551e-11
-4.500785092e-11
-4.516695848e-11
-4.592902869e-11
-4.684520203e-11
-4.731368611e-11
-4.741633215e-11
-4.636440951e-11
-4.593198723e-11
-4.592637693e-11
-4.660832802e-11
-4.532275246e-11
-4.439582102e-11
-4.384418557e-11
-4.327701433e-11
-4.1566808e-11
-3.981577389e-11
-3.854630135e-11
-3.697034457e-11
-3.49190569e-11
-3.301146694e-11
-3.244115989e-11
-3.153186324e-11
-2.977389169e-11
-2.695485324e-11
-2.479787672e-11
-2.465584544e-11
-2.637665807e-11
-2.821742065e-11
-3.003407429e-11
-3.174827792e-11
-3.286604358e-11
-3.374613409e-11
-3.514120775e-11
-3.651199469e-11
-3.799043405e-11
-4.241448852e-11
-5.315273652e-11
-6.362485525e-11
-6.01561044e-11
-5.50014635e-11
-5.991454179e-11
-6.164724587e-11
-6.170221023e-11
-6.234562913e-11
-6.38161659e-11
-7.790528791e-11
-8.768690356e-11
-9.390694015e-11
-1.011254501e-10
-1.045022352e-10
-1.187771528e-10
-1.417997085e-10
-1.852923705e-10
-1.857281413e-10
-1.926627018e-10
-2.282764134e-10
-2.453611739e-10
-2.954014292e-10
-3.547479657e-10
-3.528442199e-10
-1.72227832e-10
-7.919802012e-11
-3.410193667e-11
)


100
(
-5.815324351e-10
-5.560021811e-10
-4.65016329e-10
-3.760707526e-10
-3.169061587e-10
-2.632377588e-10
-2.277821769e-10
-1.952611688e-10
-1.766663646e-10
-1.559224719e-10
-1.408287437e-10
-1.281166272e-10
-1.133703771e-10
-1.034779854e-10
-9.562466206e-11
-8.768573452e-11
-8.303817483e-11
-8.098158764e-11
-7.813643507e-11
-7.454494663e-11
-7.30640548e-11
-7.271190447e-11
-7.148519687e-11
-6.976416283e-11
-7.016287265e-11
-7.262752931e-11
-7.549225913e-11
-7.678840887e-11
-7.778554452e-11
-7.847009558e-11
-7.973789129e-11
-7.903857271e-11
-7.919612849e-11
-7.939415574e-11
-8.088077169e-11
-7.893471446e-11
-7.758817415e-11
-7.683009436e-11
-7.943178919e-11
-7.844408597e-11
-7.764905838e-11
-7.681545622e-11
-7.68128254e-11
-7.46953579e-11
-7.128897762e-11
-6.787709731e-11
-6.719482635e-11
-6.598969623e-11
-6.256253046e-11
-5.927212324e-11
-5.785799668e-11
-5.615104441e-11
-5.407334793e-11
-5.23071024e-11
-5.157762539e-11
-5.078476083e-11
-5.00409099e-11
-5.127430003e-11
-5.485888269e-11
-5.961231155e-11
-6.377592793e-11
-6.630324406e-11
-6.785113629e-11
-6.984637695e-11
-7.168348581e-11
-7.315327003e-11
-7.498022548e-11
-7.661359059e-11
-7.68256121e-11
-7.635518788e-11
-7.799864224e-11
-8.260341667e-11
-8.908407659e-11
-9.611414971e-11
-1.059542962e-10
-1.147993079e-10
-1.101862808e-10
-1.146501942e-10
-1.261729974e-10
-1.391576995e-10
-1.622454173e-10
-1.819205561e-10
-1.898361017e-10
-2.056514798e-10
-2.308180539e-10
-2.620692262e-10
-2.771813704e-10
-3.010846912e-10
-3.91016762e-10
-4.144251751e-10
-4.193295318e-10
-5.035024865e-10
-5.422037686e-10
-6.430288511e-10
-7.463916244e-10
-8.752015659e-10
-7.269617019e-10
-3.876139315e-10
-2.019901934e-10
-1.032961198e-10
)


100
(
-5.81550604e-10
-5.690988578e-10
-4.947441357e-10
-4.163659569e-10
-3.523876967e-10
-2.995847564e-10
-2.614713301e-10
-2.282921975e-10
-2.035743981e-10
-1.863418772e-10
-1.658291546e-10
-1.534650882e-10
-1.405472355e-10
-1.273538832e-10
-1.192708553e-10
-1.124913115e-10
-1.056084262e-10
-1.028312663e-10
-1.031562828e-10
-1.025438724e-10
-1.001601478e-10
-1.001084395e-10
-1.018089665e-10
-1.032634661e-10
-1.021187574e-10
-1.045186708e-10
-1.108062773e-10
-1.168310831e-10
-1.193133809e-10
-1.203281806e-10
-1.21343687e-10
-1.232528253e-10
-1.210714907e-10
-1.185999069e-10
-1.185111626e-10
-1.186927423e-10
-1.138052708e-10
-1.081526742e-10
-1.065042367e-10
-1.05848846e-10
-1.013606572e-10
-9.749483161e-11
-9.47562304e-11
-9.332199199e-11
-8.995855332e-11
-8.518633824e-11
-8.248844328e-11
-8.25988986e-11
-8.296743066e-11
-8.054540384e-11
-7.987501678e-11
-8.112507181e-11
-8.382793782e-11
-8.773153753e-11
-9.220903989e-11
-9.827428719e-11
-1.04065948e-10
-1.082892401e-10
-1.117786188e-10
-1.16154756e-10
-1.220105666e-10
-1.26449552e-10
-1.287159129e-10
-1.31148116e-10
-1.322629127e-10
-1.328519723e-10
-1.360619611e-10
-1.452344334e-10
-1.584593444e-10
-1.696821735e-10
-1.807678848e-10
-1.893893337e-10
-1.924622819e-10
-1.89579861e-10
-1.865802308e-10
-2.026560773e-10
-2.355697383e-10
-2.60524897e-10
-2.906167804e-10
-3.159985014e-10
-3.330231049e-10
-3.563205349e-10
-3.945236948e-10
-4.442011054e-10
-4.881396216e-10
-5.283791505e-10
-5.994106018e-10
-6.75680927e-10
-8.173489519e-10
-8.860663244e-10
-9.199459318e-10
-1.024773159e-09
-1.155264485e-09
-1.362040283e-09
-1.609310995e-09
-1.801252328e-09
-1.333556875e-09
-7.899744218e-10
-4.474737312e-10
-2.572868676e-10
)


100
(
-5.809837665e-10
-5.820414808e-10
-5.247034759e-10
-4.557291853e-10
-3.866386804e-10
-3.407246741e-10
-2.93885483e-10
-2.656291125e-10
-2.333882757e-10
-2.15598231e-10
-1.980850029e-10
-1.809023707e-10
-1.71302623e-10
-1.593167329e-10
-1.486364076e-10
-1.432644743e-10
-1.388447827e-10
-1.339723522e-10
-1.344367783e-10
-1.380158219e-10
-1.408908737e-10
-1.397059091e-10
-1.407067746e-10
-1.440029967e-10
-1.475070167e-10
-1.445179512e-10
-1.451245594e-10
-1.524018836e-10
-1.591285526e-10
-1.618184263e-10
-1.596200489e-10
-1.620730795e-10
-1.596669379e-10
-1.536899689e-10
-1.464299783e-10
-1.466593354e-10
-1.440334145e-10
-1.367801893e-10
-1.273059929e-10
-1.260638967e-10
-1.242437566e-10
-1.188634018e-10
-1.132230772e-10
-1.116286933e-10
-1.118308518e-10
-1.110599085e-10
-1.102068326e-10
-1.131710182e-10
-1.213631109e-10
-1.305561141e-10
-1.390238715e-10
-1.462687258e-10
-1.550391374e-10
-1.633095713e-10
-1.714149698e-10
-1.791934716e-10
-1.835383529e-10
-1.858426339e-10
-1.85468309e-10
-1.83552073e-10
-1.846014794e-10
-1.875091775e-10
-1.942783468e-10
-2.060628787e-10
-2.252202267e-10
-2.478619505e-10
-2.669673758e-10
-2.839411085e-10
-3.013970189e-10
-3.170304932e-10
-3.307583883e-10
-3.415477764e-10
-3.53082178e-10
-3.782960761e-10
-4.141669252e-10
-4.421977653e-10
-4.791714379e-10
-5.106497799e-10
-5.338801965e-10
-5.561301102e-10
-6.096939108e-10
-6.800953863e-10
-7.543373859e-10
-8.26195361e-10
-9.118124908e-10
-1.01256734e-09
-1.14411942e-09
-1.274728793e-09
-1.396746399e-09
-1.545839163e-09
-1.718096297e-09
-1.937885781e-09
-2.258509147e-09
-2.618545541e-09
-3.09495941e-09
-3.360791108e-09
-2.325859387e-09
-1.49073132e-09
-9.164471187e-10
-5.657593985e-10
)


100
(
-5.80669979e-10
-5.960873516e-10
-5.542693817e-10
-4.891952136e-10
-4.274440052e-10
-3.791363206e-10
-3.326023679e-10
-2.998640953e-10
-2.713986204e-10
-2.458089942e-10
-2.34865754e-10
-2.176103942e-10
-2.04992152e-10
-1.996858858e-10
-1.898553429e-10
-1.826112636e-10
-1.807921222e-10
-1.787669429e-10
-1.777815082e-10
-1.802401414e-10
-1.868150524e-10
-1.930339264e-10
-1.911955485e-10
-1.904841574e-10
-1.926865693e-10
-1.933493413e-10
-1.861464139e-10
-1.8259882e-10
-1.884747132e-10
-1.937786198e-10
-1.94320141e-10
-1.90065411e-10
-1.921350141e-10
-1.860979164e-10
-1.757745151e-10
-1.677400251e-10
-1.675226616e-10
-1.643785127e-10
-1.545672149e-10
-1.491120668e-10
-1.504284147e-10
-1.530608856e-10
-1.510655343e-10
-1.522588641e-10
-1.574622241e-10
-1.67100021e-10
-1.769111081e-10
-1.873966683e-10
-1.999637362e-10
-2.1722101e-10
-2.311679569e-10
-2.430047838e-10
-2.495779508e-10
-2.526405698e-10
-2.559324665e-10
-2.587819229e-10
-2.613281062e-10
-2.680710819e-10
-2.740947572e-10
-2.806651532e-10
-2.920503539e-10
-3.120921507e-10
-3.396813601e-10
-3.662730845e-10
-3.943055929e-10
-4.230022465e-10
-4.443878001e-10
-4.57950999e-10
-4.705766343e-10
-4.900563161e-10
-5.264962092e-10
-5.842679523e-10
-6.459787239e-10
-6.962814116e-10
-7.44001211e-10
-7.782298628e-10
-7.999048424e-10
-8.397317686e-10
-9.151219987e-10
-1.012560336e-09
-1.117088629e-09
-1.208037967e-09
-1.289493447e-09
-1.432648001e-09
-1.600411175e-09
-1.802518583e-09
-1.966150214e-09
-2.241644035e-09
-2.315915438e-09
-2.493777442e-09
-2.889057773e-09
-3.330091966e-09
-3.868808244e-09
-4.516187406e-09
-5.121898978e-09
-5.460094207e-09
-3.705703398e-09
-2.55432778e-09
-1.68737215e-09
-1.124997021e-09
)


100
(
-5.807033243e-10
-6.102454889e-10
-5.793176654e-10
-5.225677829e-10
-4.719283249e-10
-4.140824604e-10
-3.775426404e-10
-3.350642164e-10
-3.143018185e-10
-2.865707659e-10
-2.708675722e-10
-2.655107197e-10
-2.50000336e-10
-2.432692647e-10
-2.439962874e-10
-2.37012897e-10
-2.336376076e-10
-2.361373288e-10
-2.389412071e-10
-2.365749416e-10
-2.376948173e-10
-2.441079974e-10
-2.514102091e-10
-2.461192199e-10
-2.401806055e-10
-2.394381548e-10
-2.349279386e-10
-2.239417097e-10
-2.151363934e-10
-2.176851592e-10
-2.205700539e-10
-2.156968164e-10
-2.16497045e-10
-2.186228329e-10
-2.122038332e-10
-1.989180194e-10
-1.955764477e-10
-1.988867776e-10
-1.999609406e-10
-1.962683999e-10
-2.003595676e-10
-2.131154531e-10
-2.29953112e-10
-2.435940019e-10
-2.55614239e-10
-2.707102104e-10
-2.856718187e-10
-2.990135467e-10
-3.109680092e-10
-3.169748122e-10
-3.250581064e-10
-3.332910977e-10
-3.37897211e-10
-3.425271023e-10
-3.492244433e-10
-3.55618214e-10
-3.732608608e-10
-3.994048916e-10
-4.344950124e-10
-4.755427912e-10
-5.102615614e-10
-5.398890005e-10
-5.676569254e-10
-5.899849798e-10
-6.055602365e-10
-6.222347464e-10
-6.468996509e-10
-6.864341727e-10
-7.467456432e-10
-8.247171523e-10
-9.029015539e-10
-9.787532448e-10
-1.046337e-09
-1.08695449e-09
-1.127672001e-09
-1.197608045e-09
-1.309172023e-09
-1.446447688e-09
-1.582154264e-09
-1.70401001e-09
-1.815672164e-09
-1.98302009e-09
-2.181319847e-09
-2.408253847e-09
-2.627849145e-09
-2.890123124e-09
-3.213434003e-09
-3.477001696e-09
-3.732043644e-09
-4.159824017e-09
-4.719426422e-09
-5.40187656e-09
-6.087215253e-09
-7.125109431e-09
-7.947397909e-09
-7.943852629e-09
-5.415668162e-09
-3.956320251e-09
-2.749273794e-09
-1.952567766e-09
)


100
(
-5.807935656e-10
-6.202402458e-10
-6.016658367e-10
-5.602877575e-10
-5.105918921e-10
-4.558595648e-10
-4.202135824e-10
-3.822711162e-10
-3.552485407e-10
-3.386164793e-10
-3.157356711e-10
-3.120362757e-10
-3.110626263e-10
-2.997474254e-10
-2.995767927e-10
-3.070348363e-10
-3.024846657e-10
-3.015698184e-10
-3.034042728e-10
-3.080231661e-10
-3.017451335e-10
-2.974537664e-10
-3.010279511e-10
-3.043681679e-10
-2.985265284e-10
-2.884066012e-10
-2.82913595e-10
-2.742593404e-10
-2.61049995e-10
-2.48424274e-10
-2.480273709e-10
-2.487655447e-10
-2.444958732e-10
-2.513981797e-10
-2.590515476e-10
-2.556179591e-10
-2.529664214e-10
-2.592554362e-10
-2.759011618e-10
-2.898039835e-10
-3.046054263e-10
-3.217639763e-10
-3.472751414e-10
-3.705926803e-10
-3.946792008e-10
-4.076726447e-10
-4.147106641e-10
-4.211816623e-10
-4.251572633e-10
-4.271691235e-10
-4.346166368e-10
-4.396786931e-10
-4.535711038e-10
-4.756785643e-10
-5.042627505e-10
-5.417414269e-10
-5.925711583e-10
-6.361416628e-10
-6.885129556e-10
-7.403485036e-10
-7.811784383e-10
-8.100601857e-10
-8.281217842e-10
-8.484569394e-10
-8.85462615e-10
-9.438963931e-10
-1.029695713e-09
-1.128839062e-09
-1.223605114e-09
-1.314297147e-09
-1.386435181e-09
-1.445855213e-09
-1.510171028e-09
-1.618118834e-09
-1.775492077e-09
-1.966028844e-09
-2.141501433e-09
-2.301998081e-09
-2.456684646e-09
-2.658709884e-09
-2.924023108e-09
-3.230503892e-09
-3.508802937e-09
-3.715642673e-09
-4.134392072e-09
-4.456875803e-09
-4.948350699e-09
-5.237562715e-09
-5.838354859e-09
-6.520411505e-09
-7.313922639e-09
-8.242790626e-09
-9.410925483e-09
-1.08595e-08
-1.20492666e-08
-1.07152583e-08
-7.334347299e-09
-5.617548806e-09
-4.096464524e-09
-3.072110101e-09
)


100
(
-5.665907358e-10
-6.282424342e-10
-6.251326191e-10
-5.981842255e-10
-5.440760149e-10
-5.050087237e-10
-4.598112373e-10
-4.379900133e-10
-4.027498226e-10
-3.916230871e-10
-3.785826049e-10
-3.644526504e-10
-3.728723709e-10
-3.765769886e-10
-3.679925074e-10
-3.730519171e-10
-3.849825423e-10
-3.782604129e-10
-3.714058623e-10
-3.721271463e-10
-3.763290078e-10
-3.647205946e-10
-3.526022231e-10
-3.529921886e-10
-3.529705366e-10
-3.490854666e-10
-3.371702738e-10
-3.274662009e-10
-3.185119003e-10
-3.051486488e-10
-3.006888998e-10
-2.993391766e-10
-2.889299901e-10
-3.050515105e-10
-3.240593693e-10
-3.488896159e-10
-3.617302574e-10
-3.778396282e-10
-3.977822563e-10
-4.240704422e-10
-4.495975617e-10
-4.69441975e-10
-4.836447982e-10
-5.025428524e-10
-5.214933309e-10
-5.368322308e-10
-5.505546283e-10
-5.54907214e-10
-5.568088055e-10
-5.714465798e-10
-5.897397536e-10
-6.18963861e-10
-6.663355335e-10
-7.178201756e-10
-7.746990769e-10
-8.406410021e-10
-8.966449204e-10
-9.490975694e-10
-9.918354784e-10
-1.016639844e-09
-1.054060181e-09
-1.109352723e-09
-1.178992124e-09
-1.273052789e-09
-1.384024222e-09
-1.49738287e-09
-1.610417374e-09
-1.709145132e-09
-1.787473773e-09
-1.835484735e-09
-1.929294868e-09
-2.071402382e-09
-2.278779369e-09
-2.511047573e-09
-2.728955016e-09
-2.954652933e-09
-3.188368042e-09
-3.446387019e-09
-3.780995309e-09
-4.151350174e-09
-4.494641519e-09
-4.823478945e-09
-5.258556011e-09
-5.695309065e-09
-6.238287417e-09
-6.716355562e-09
-7.433975298e-09
-8.064782728e-09
-8.862971426e-09
-9.922253495e-09
-1.103635265e-08
-1.231062623e-08
-1.413917826e-08
-1.592676977e-08
-1.751286629e-08
-1.374586331e-08
-9.603055918e-09
-7.648288675e-09
-5.750530159e-09
-4.775749125e-09
)


100
(
-5.357676993e-10
-6.331069893e-10
-6.485889689e-10
-6.258847934e-10
-5.83887948e-10
-5.520277896e-10
-5.083988801e-10
-4.873538433e-10
-4.665265408e-10
-4.460894909e-10
-4.492254838e-10
-4.386873472e-10
-4.352820713e-10
-4.523818805e-10
-4.583139168e-10
-4.481085372e-10
-4.537027429e-10
-4.654080745e-10
-4.54765356e-10
-4.394376888e-10
-4.360226895e-10
-4.346499091e-10
-4.227303892e-10
-4.072533308e-10
-4.022620465e-10
-4.014725011e-10
-4.028518639e-10
-3.945089508e-10
-3.850939066e-10
-3.826758336e-10
-3.785733355e-10
-3.8762867e-10
-3.994483499e-10
-4.088558417e-10
-4.36108111e-10
-4.747106609e-10
-5.109159451e-10
-5.459938502e-10
-5.630799305e-10
-5.808675937e-10
-5.9891675e-10
-6.163894614e-10
-6.333524541e-10
-6.400195505e-10
-6.432431222e-10
-6.589320164e-10
-6.814658022e-10
-7.091696794e-10
-7.498309712e-10
-7.935059455e-10
-8.426472123e-10
-9.075816857e-10
-9.764271085e-10
-1.047603935e-09
-1.128536288e-09
-1.174353508e-09
-1.207908866e-09
-1.255100816e-09
-1.303960293e-09
-1.370649215e-09
-1.473763946e-09
-1.586128647e-09
-1.728229232e-09
-1.881625224e-09
-2.029928186e-09
-2.160642942e-09
-2.22656411e-09
-2.303968185e-09
-2.411716375e-09
-2.564085592e-09
-2.787963869e-09
-3.036726543e-09
-3.319321553e-09
-3.603253401e-09
-3.856180114e-09
-4.129596444e-09
-4.564805682e-09
-5.091923139e-09
-5.534016611e-09
-5.906857513e-09
-6.341226165e-09
-6.924352593e-09
-7.604674129e-09
-8.272871743e-09
-8.837731842e-09
-9.805171515e-09
-1.062111643e-08
-1.152142138e-08
-1.288792349e-08
-1.446987157e-08
-1.611657889e-08
-1.77815429e-08
-1.996563998e-08
-2.22582827e-08
-2.383406781e-08
-1.723685992e-08
-1.300825801e-08
-1.035167156e-08
-7.929587351e-09
-6.423142897e-09
)


100
(
-5.191579921e-10
-6.357485193e-10
-6.673504714e-10
-6.490404193e-10
-6.288872165e-10
-5.907358794e-10
-5.665726989e-10
-5.343686898e-10
-5.358577094e-10
-5.165615275e-10
-5.129233593e-10
-5.273698514e-10
-5.16415618e-10
-5.199140128e-10
-5.419456582e-10
-5.451610455e-10
-5.285668151e-10
-5.309604626e-10
-5.396832321e-10
-5.263702599e-10
-5.012736868e-10
-4.942765897e-10
-4.900405653e-10
-4.816987733e-10
-4.661637815e-10
-4.584324937e-10
-4.622374728e-10
-4.703187601e-10
-4.798721118e-10
-4.817667691e-10
-4.875165719e-10
-5.044958323e-10
-5.4300102e-10
-5.717029786e-10
-5.99001063e-10
-6.271443492e-10
-6.647790948e-10
-6.988537686e-10
-7.354362226e-10
-7.570860106e-10
-7.580298527e-10
-7.625534609e-10
-7.742038637e-10
-7.86125997e-10
-8.101226365e-10
-8.325678881e-10
-8.669845171e-10
-9.284149699e-10
-1.008954535e-09
-1.092890418e-09
-1.191658228e-09
-1.266753339e-09
-1.322103603e-09
-1.376320197e-09
-1.433818414e-09
-1.490131112e-09
-1.570071139e-09
-1.628296785e-09
-1.736126709e-09
-1.892121263e-09
-2.05591482e-09
-2.24281134e-09
-2.415315108e-09
-2.531235494e-09
-2.637987543e-09
-2.76445844e-09
-2.915199832e-09
-3.108360277e-09
-3.354693335e-09
-3.666770153e-09
-3.981094351e-09
-4.279643828e-09
-4.538358379e-09
-4.849051934e-09
-5.266432138e-09
-5.785241745e-09
-6.319738505e-09
-6.879706515e-09
-7.414471767e-09
-7.953060113e-09
-8.747609186e-09
-9.610215861e-09
-1.030642438e-08
-1.117517492e-08
-1.224202548e-08
-1.338321123e-08
-1.413667485e-08
-1.566769155e-08
-1.77298732e-08
-1.947758524e-08
-2.171938543e-08
-2.404348373e-08
-2.715261776e-08
-2.991714678e-08
-3.028649858e-08
-2.197411405e-08
-1.779610831e-08
-1.431947364e-08
-1.118927562e-08
-1.046693312e-08
)


100
(
-5.190987196e-10
-6.373767344e-10
-6.793954708e-10
-6.792542129e-10
-6.682641963e-10
-6.330053884e-10
-6.214365203e-10
-5.972606952e-10
-5.924815958e-10
-6.018730899e-10
-5.862694317e-10
-5.983125078e-10
-6.148767197e-10
-6.042259187e-10
-6.093241327e-10
-6.320705952e-10
-6.302646386e-10
-6.058377921e-10
-6.034154813e-10
-6.081908035e-10
-5.957415741e-10
-5.680080396e-10
-5.562595247e-10
-5.531935478e-10
-5.560253274e-10
-5.454928739e-10
-5.412140249e-10
-5.564381107e-10
-5.808796595e-10
-6.15074443e-10
-6.39952978e-10
-6.596216693e-10
-6.900999235e-10
-7.318908652e-10
-7.697342422e-10
-8.100240793e-10
-8.308958525e-10
-8.482027503e-10
-8.776076736e-10
-9.060847285e-10
-9.326740262e-10
-9.428225555e-10
-9.451632857e-10
-9.769433379e-10
-1.023941434e-09
-1.087120805e-09
-1.174568626e-09
-1.262350327e-09
-1.34500978e-09
-1.440035379e-09
-1.525922436e-09
-1.611672206e-09
-1.692814099e-09
-1.726214431e-09
-1.758316562e-09
-1.865650114e-09
-2.004308291e-09
-2.17822398e-09
-2.390472127e-09
-2.559174315e-09
-2.715722163e-09
-2.870835682e-09
-3.043672331e-09
-3.213635279e-09
-3.317781267e-09
-3.509276465e-09
-3.823496948e-09
-4.200217297e-09
-4.60299034e-09
-4.95362993e-09
-5.263422465e-09
-5.624225038e-09
-6.054725744e-09
-6.551614569e-09
-7.132348246e-09
-7.754135134e-09
-8.284018107e-09
-8.839682793e-09
-9.640310088e-09
-1.067087366e-08
-1.163711923e-08
-1.249704685e-08
-1.342348506e-08
-1.476219474e-08
-1.615096102e-08
-1.719464851e-08
-1.852723609e-08
-2.054841094e-08
-2.247543756e-08
-2.475032639e-08
-2.73221557e-08
-3.040403335e-08
-3.474724578e-08
-3.831081022e-08
-3.748164602e-08
-2.867181129e-08
-2.381518431e-08
-1.963335031e-08
-1.568129545e-08
-1.433506217e-08
)


100
(
-5.190849359e-10
-6.371051082e-10
-6.912981616e-10
-7.100024929e-10
-6.961800406e-10
-6.848916117e-10
-6.665874929e-10
-6.711806588e-10
-6.534356251e-10
-6.74275357e-10
-6.843893571e-10
-6.730635498e-10
-6.964789897e-10
-7.123156077e-10
-6.967582422e-10
-6.994074913e-10
-7.195248121e-10
-7.14642776e-10
-6.837371144e-10
-6.761467065e-10
-6.798250505e-10
-6.749425521e-10
-6.494075551e-10
-6.372957822e-10
-6.423202928e-10
-6.562560174e-10
-6.698366964e-10
-6.824562413e-10
-7.085276156e-10
-7.537347433e-10
-8.051470623e-10
-8.630807645e-10
-8.883763139e-10
-9.059947602e-10
-9.389019534e-10
-9.756271531e-10
-1.016431208e-09
-1.035687651e-09
-1.037017959e-09
-1.054440592e-09
-1.095358501e-09
-1.143878374e-09
-1.208180851e-09
-1.267307173e-09
-1.339072754e-09
-1.437294906e-09
-1.542117749e-09
-1.643602641e-09
-1.770465817e-09
-1.838459063e-09
-1.885284245e-09
-1.953714989e-09
-2.04703144e-09
-2.15751527e-09
-2.301265917e-09
-2.447808788e-09
-2.632054579e-09
-2.870457534e-09
-3.073506404e-09
-3.305128202e-09
-3.459040981e-09
-3.53960674e-09
-3.692392054e-09
-3.936362995e-09
-4.254231795e-09
-4.648142893e-09
-5.052431191e-09
-5.465812193e-09
-5.887872396e-09
-6.304086574e-09
-6.698800216e-09
-7.174038456e-09
-7.876772225e-09
-8.6429662e-09
-9.311078783e-09
-9.917435601e-09
-1.065467666e-08
-1.150778179e-08
-1.253526646e-08
-1.370293123e-08
-1.469833328e-08
-1.579214616e-08
-1.74475178e-08
-1.895755111e-08
-2.022104102e-08
-2.184208576e-08
-2.412464195e-08
-2.637726837e-08
-2.866315851e-08
-3.101089332e-08
-3.438497497e-08
-3.771744873e-08
-4.246220023e-08
-4.683192758e-08
-4.516770469e-08
-3.673761838e-08
-3.089875256e-08
-2.592364191e-08
-2.110772207e-08
-1.76981068e-08
)


100
(
-4.86496531e-10
-6.338407946e-10
-7.032416758e-10
-7.319979009e-10
-7.254697931e-10
-7.348818579e-10
-7.181012218e-10
-7.32626186e-10
-7.394515204e-10
-7.410610958e-10
-7.792778297e-10
-7.857922748e-10
-7.794663398e-10
-8.048723107e-10
-8.158696517e-10
-7.924597738e-10
-7.902805942e-10
-8.076848573e-10
-8.035435085e-10
-7.706734954e-10
-7.594512315e-10
-7.672512566e-10
-7.801416814e-10
-7.642586748e-10
-7.569436992e-10
-7.803606063e-10
-8.152828955e-10
-8.665743448e-10
-8.976848654e-10
-9.305309846e-10
-9.832947467e-10
-1.041268233e-09
-1.104358312e-09
-1.140347197e-09
-1.145587977e-09
-1.148476113e-09
-1.179478875e-09
-1.2158783e-09
-1.264709144e-09
-1.289880257e-09
-1.325025093e-09
-1.40359657e-09
-1.513119956e-09
-1.631092791e-09
-1.771139643e-09
-1.885130554e-09
-1.971956196e-09
-2.06385977e-09
-2.157509392e-09
-2.257908015e-09
-2.375326901e-09
-2.432426218e-09
-2.534864857e-09
-2.743166059e-09
-2.988972418e-09
-3.216531705e-09
-3.49486966e-09
-3.67864797e-09
-3.828070573e-09
-4.029883548e-09
-4.241545514e-09
-4.493033632e-09
-4.665045779e-09
-4.983728962e-09
-5.480971096e-09
-5.995911529e-09
-6.490739816e-09
-6.912967944e-09
-7.344501769e-09
-7.89640396e-09
-8.589648757e-09
-9.402739794e-09
-1.016240507e-08
-1.093399608e-08
-1.169474455e-08
-1.250546015e-08
-1.356380302e-08
-1.481844928e-08
-1.601946909e-08
-1.720529454e-08
-1.855521514e-08
-2.015568924e-08
-2.193808561e-08
-2.342252205e-08
-2.524220313e-08
-2.821602221e-08
-3.100003403e-08
-3.343678912e-08
-3.662511602e-08
-3.964351596e-08
-4.370272167e-08
-5.095044277e-08
-5.400500618e-08
-5.897949804e-08
-5.378793677e-08
-4.535638293e-08
-3.87908681e-08
-3.303177262e-08
-2.738314576e-08
-2.520883824e-08
)


100
(
-4.316372488e-10
-6.241336868e-10
-7.122311105e-10
-7.449102936e-10
-7.617287001e-10
-7.689515347e-10
-7.824474528e-10
-7.856787711e-10
-8.298101343e-10
-8.355732838e-10
-8.57023129e-10
-9.067393922e-10
-9.00760163e-10
-8.928983563e-10
-9.18089515e-10
-9.240286895e-10
-8.938298473e-10
-8.874206178e-10
-9.033028564e-10
-9.077270854e-10
-8.787335882e-10
-8.684024017e-10
-8.887951755e-10
-9.179372309e-10
-9.381270142e-10
-9.538826627e-10
-9.920135629e-10
-1.049377666e-09
-1.112917554e-09
-1.177845733e-09
-1.21319383e-09
-1.241465188e-09
-1.292217276e-09
-1.346598976e-09
-1.399467435e-09
-1.396477925e-09
-1.38621793e-09
-1.423435622e-09
-1.491812496e-09
-1.581911302e-09
-1.705348379e-09
-1.810438484e-09
-1.918452618e-09
-2.055872042e-09
-2.187930651e-09
-2.339387304e-09
-2.511976376e-09
-2.576838589e-09
-2.606238081e-09
-2.729710464e-09
-2.893131938e-09
-3.103272471e-09
-3.362425759e-09
-3.597192162e-09
-3.832204399e-09
-4.093548726e-09
-4.355841933e-09
-4.644882169e-09
-4.810010597e-09
-4.901622626e-09
-5.199828774e-09
-5.617207779e-09
-6.079162346e-09
-6.597996771e-09
-7.116108466e-09
-7.583048204e-09
-8.107451835e-09
-8.684915792e-09
-9.26397941e-09
-9.984425791e-09
-1.096522912e-08
-1.199371342e-08
-1.281612689e-08
-1.362592061e-08
-1.468785199e-08
-1.607522259e-08
-1.73745658e-08
-1.866991898e-08
-1.99455482e-08
-2.145473688e-08
-2.349627493e-08
-2.569322794e-08
-2.723411065e-08
-2.894978901e-08
-3.18340483e-08
-3.519953913e-08
-3.843207811e-08
-4.184538105e-08
-4.570278611e-08
-5.027124746e-08
-5.505241922e-08
-6.240016581e-08
-6.836184773e-08
-7.379261568e-08
-6.648748973e-08
-5.461488539e-08
-4.718358525e-08
-4.078607053e-08
-3.443299862e-08
-3.242862108e-08
)


100
(
-4.093728667e-10
-6.10177273e-10
-7.139916621e-10
-7.59126809e-10
-7.961910697e-10
-8.005378519e-10
-8.410746623e-10
-8.570052799e-10
-8.955339037e-10
-9.490964216e-10
-9.538079133e-10
-9.88347658e-10
-1.038695304e-09
-1.020457291e-09
-1.00882966e-09
-1.032684199e-09
-1.038850663e-09
-1.005533288e-09