/*--------------------------------*- C++ -*----------------------------------*\
| =========                 |                                                 |
| \\      /  F ield         | OpenFOAM: The Open Source CFD Toolbox           |
|  \\    /   O peration     | Version:  2.3.1                                 |
|   \\  /    A nd           | Web:      www.OpenFOAM.org                      |
|    \\/     M anipulation  |                                                 |
\*---------------------------------------------------------------------------*/
FoamFile
{
    version     2.0;
    format      ascii;
    class       dictionary;
    location    "constant";
    object      DPSI9;
}
// * * * * * * * * * * * * * * * * * * * * * * * * * * * * * * * * * * * * * //

DPSI9_table
100
(

100
(
5.48535645e-09
5.615480611e-09
5.00274102e-09
3.96890451e-09
3.352856913e-09
2.321736691e-09
1.540131498e-09
8.746815977e-10
2.477179909e-10
-4.947590074e-10
-7.106333177e-10
-1.772114665e-09
-2.01948795e-09
-2.335807794e-09
-3.153375364e-09
-3.38209752e-09
-3.554976933e-09
-4.422931671e-09
-4.637573941e-09
-4.734319681e-09
-5.364993003e-09
-5.753806605e-09
-5.881265396e-09
-6.115443758e-09
-6.716592499e-09
-6.860546427e-09
-6.949354503e-09
-7.284590185e-09
-7.919552476e-09
-8.042983452e-09
-8.124650018e-09
-8.462064179e-09
-8.892603147e-09
-8.998809083e-09
-9.075051025e-09
-9.344060258e-09
-1.001939448e-08
-1.038513497e-08
-1.047365167e-08
-1.07090362e-08
-1.125620282e-08
-1.166433019e-08
-1.175527249e-08
-1.194538035e-08
-1.233917727e-08
-1.269771123e-08
-1.278513069e-08
-1.29010829e-08
-1.349337223e-08
-1.409829169e-08
-1.449024135e-08
-1.473828789e-08
-1.525025283e-08
-1.574626676e-08
-1.610529439e-08
-1.633975778e-08
-1.671520369e-08
-1.72227737e-08
-1.824322589e-08
-2.098771504e-08
-2.543006044e-08
-2.587719112e-08
-2.350391116e-08
-2.474459375e-08
-2.885170567e-08
-2.942340201e-08
-2.747592965e-08
-3.026250222e-08
-3.395707573e-08
-3.337332371e-08
-3.289891734e-08
-3.690516978e-08
-3.91487522e-08
-3.727226879e-08
-4.210867611e-08
-4.556961263e-08
-4.335533795e-08
-4.719725772e-08
-5.05100066e-08
-4.868428944e-08
-5.351307386e-08
-5.48881269e-08
-5.650365249e-08
-6.18408232e-08
-6.045383275e-08
-6.580281645e-08
-6.679443668e-08
-7.113145782e-08
-7.472610795e-08
-7.897014613e-08
-8.365829633e-08
-8.926472809e-08
-9.455124988e-08
-1.002356018e-07
-1.059751788e-07
-1.117287676e-07
-1.163348055e-07
-1.145726394e-07
-7.705117148e-08
-4.864506887e-08
)


100
(
5.482720219e-09
5.561668251e-09
5.12747439e-09
4.331331808e-09
3.759029657e-09
2.800631648e-09
2.15747854e-09
1.438785925e-09
8.792143738e-10
1.487609251e-10
-1.580588361e-10
-1.008113641e-09
-1.386941719e-09
-1.689272156e-09
-2.362785772e-09
-2.704539483e-09
-2.901466811e-09
-3.556007631e-09
-3.963949903e-09
-4.127888485e-09
-4.604914937e-09
-5.065860276e-09
-5.342640703e-09
-5.5720665e-09
-6.032025737e-09
-6.372111023e-09
-6.56523043e-09
-6.842264421e-09
-7.311646613e-09
-7.682650298e-09
-7.928509614e-09
-8.215678063e-09
-8.575067775e-09
-8.869359445e-09
-9.101032269e-09
-9.34721304e-09
-9.8308991e-09
-1.025645718e-08
-1.065443681e-08
-1.102222385e-08
-1.147618958e-08
-1.191277966e-08
-1.232015391e-08
-1.281631016e-08
-1.321865666e-08
-1.356450902e-08
-1.385409523e-08
-1.42170625e-08
-1.479420973e-08
-1.525955428e-08
-1.572600204e-08
-1.639645826e-08
-1.753661991e-08
-1.832157422e-08
-1.90484644e-08
-1.989781052e-08
-2.132414041e-08
-2.205101615e-08
-2.281683932e-08
-2.422771088e-08
-2.764687403e-08
-3.128484444e-08
-3.313094003e-08
-3.315981298e-08
-3.35556032e-08
-3.563737835e-08
-3.73003493e-08
-3.824384373e-08
-3.921798572e-08
-4.093946849e-08
-4.222557637e-08
-4.329405128e-08
-4.494612431e-08
-4.654460251e-08
-4.862539354e-08
-5.19612852e-08
-5.582780635e-08
-5.733189837e-08
-5.903510402e-08
-6.273264797e-08
-6.447594879e-08
-6.737101097e-08
-7.165978257e-08
-7.417163016e-08
-7.870430193e-08
-8.289209472e-08
-8.69220899e-08
-9.200356723e-08
-9.692066099e-08
-1.023613685e-07
-1.074671363e-07
-1.133024107e-07
-1.190500311e-07
-1.244673286e-07
-1.309314406e-07
-1.3741295e-07
-1.420364192e-07
-1.248438178e-07
-9.168110686e-08
-6.561827568e-08
)


100
(
5.481138006e-09
5.59381075e-09
5.427230241e-09
5.044646449e-09
4.469996982e-09
3.773876403e-09
3.196797452e-09
2.588087112e-09
2.037286532e-09
1.396278355e-09
9.539081961e-10
3.546917975e-10
-1.559584609e-10
-5.042022344e-10
-9.756917697e-10
-1.446448062e-09
-1.752249708e-09
-2.13378505e-09
-2.669260727e-09
-3.070112141e-09
-3.393968726e-09
-3.8483361e-09
-4.31258898e-09
-4.696806673e-09
-4.993086143e-09
-5.44286965e-09
-5.840335832e-09
-6.205570836e-09
-6.489092938e-09
-6.979103179e-09
-7.426419725e-09
-7.890640697e-09
-8.230454148e-09
-8.682647663e-09
-9.121755902e-09
-9.579745995e-09
-1.001260772e-08
-1.046610625e-08
-1.102705442e-08
-1.160847861e-08
-1.232815273e-08
-1.308307142e-08
-1.384417722e-08
-1.470585803e-08
-1.56826734e-08
-1.700888203e-08
-1.79132838e-08
-1.883042944e-08
-1.984389705e-08
-2.153356945e-08
-2.249538089e-08
-2.361595515e-08
-2.487108505e-08
-2.673893164e-08
-2.787141221e-08
-2.886327706e-08
-3.026067572e-08
-3.251704623e-08
-3.338157736e-08
-3.277225391e-08
-3.229634764e-08
-3.524028127e-08
-3.984520458e-08
-4.146985113e-08
-4.041777873e-08
-4.116708794e-08
-4.422598123e-08
-4.478940927e-08
-4.466175069e-08
-4.773880211e-08
-5.073454701e-08
-5.123649018e-08
-5.285096874e-08
-5.770537298e-08
-5.866554779e-08
-5.960375767e-08
-6.372451008e-08
-6.645436326e-08
-6.951815326e-08
-7.35478685e-08
-7.51279068e-08
-7.947608648e-08
-8.352724289e-08
-8.468795517e-08
-9.178810615e-08
-9.413788233e-08
-9.905072765e-08
-1.019923379e-07
-1.0587807e-07
-1.090756185e-07
-1.126688282e-07
-1.157396274e-07
-1.186137254e-07
-1.230579277e-07
-1.271482721e-07
-1.312343125e-07
-1.346435332e-07
-1.02408502e-07
-9.421749133e-08
-8.207608286e-08
)


100
(
5.480611302e-09
5.910019233e-09
5.883982557e-09
5.614600741e-09
5.163502228e-09
4.651726798e-09
4.084844761e-09
3.551643844e-09
3.044569952e-09
2.417331486e-09
1.959904616e-09
1.365473818e-09
7.986405204e-10
3.618429639e-10
-9.801213388e-11
-5.911459852e-10
-1.037957202e-09
-1.452527947e-09
-1.896390785e-09
-2.426147898e-09
-2.928974758e-09
-3.362727915e-09
-3.833618464e-09
-4.370972752e-09
-4.898958911e-09
-5.295165729e-09
-5.744034107e-09
-6.27562646e-09
-6.87122371e-09
-7.383664277e-09
-7.890939651e-09
-8.506360079e-09
-9.186731992e-09
-9.995322858e-09
-1.057134127e-08
-1.130633397e-08
-1.217289771e-08
-1.343006222e-08
-1.421707212e-08
-1.512664979e-08
-1.626000112e-08
-1.761344708e-08
-1.904093721e-08
-1.982792626e-08
-2.097122833e-08
-2.265629977e-08
-2.505554351e-08
-2.597421844e-08
-2.704731892e-08
-2.891652091e-08
-3.133965889e-08
-3.237910664e-08
-3.2937061e-08
-3.457962723e-08
-3.653544e-08
-3.747449814e-08
-3.760558401e-08
-3.988112666e-08
-4.205070212e-08
-4.287861897e-08
-4.116351663e-08
-3.974831801e-08
-4.056148539e-08
-4.348968725e-08
-4.588761189e-08
-4.642173504e-08
-4.751776333e-08
-5.02026714e-08
-5.275249077e-08
-5.443805605e-08
-5.675457198e-08
-5.978865185e-08
-6.235055355e-08
-6.399844077e-08
-6.518072185e-08
-6.692707302e-08
-6.850740749e-08
-7.14035653e-08
-7.483366087e-08
-7.700709971e-08
-8.153385028e-08
-8.475457334e-08
-8.508600056e-08
-8.771781674e-08
-9.028528115e-08
-9.162911987e-08
-9.515235095e-08
-9.683943746e-08
-9.759757019e-08
-9.776539054e-08
-1.00543887e-07
-1.037573647e-07
-1.04194044e-07
-1.086001169e-07
-1.105649266e-07
-1.137088076e-07
-1.127996483e-07
-9.03519511e-08
-8.923862667e-08
-8.43579747e-08
)


100
(
5.481462927e-09
6.088275127e-09
6.239986745e-09
6.068375681e-09
5.887884771e-09
5.35018452e-09
4.975396913e-09
4.316401755e-09
3.908234013e-09
3.259056839e-09
2.688290025e-09
2.168431489e-09
1.523674433e-09
9.857231866e-10
4.946179338e-10
-2.465749317e-11
-5.449451804e-10
-1.063949221e-09
-1.565164685e-09
-2.059562227e-09
-2.660937994e-09
-3.293065113e-09
-3.876575016e-09
-4.435964683e-09
-5.126896772e-09
-5.832468225e-09
-6.449408953e-09
-6.984292254e-09
-7.735076897e-09
-8.658370648e-09
-9.704060488e-09
-1.042146554e-08
-1.132027538e-08
-1.239412598e-08
-1.384090559e-08
-1.457323012e-08
-1.541681406e-08
-1.659697891e-08
-1.882591515e-08
-1.987949116e-08
-2.074467011e-08
-2.17953215e-08
-2.380206459e-08
-2.520443158e-08
-2.572106229e-08
-2.606891444e-08
-2.845819385e-08
-3.081725768e-08
-3.130180132e-08
-3.13911648e-08
-3.3494688e-08
-3.556883217e-08
-3.653140573e-08
-3.679754231e-08
-3.848599384e-08
-4.051885608e-08
-4.175088043e-08
-4.219242214e-08
-4.374069505e-08
-4.600362029e-08
-4.746488635e-08
-4.748644343e-08
-4.715855657e-08
-4.802595462e-08
-5.048730388e-08
-5.367500899e-08
-5.570204705e-08
-5.734150304e-08
-5.933397851e-08
-6.108360508e-08
-6.316461554e-08
-6.440201583e-08
-6.530007537e-08
-6.582741904e-08
-6.707787773e-08
-6.832778466e-08
-7.142998943e-08
-7.25612272e-08
-7.377583782e-08
-7.658822294e-08
-7.683137231e-08
-7.721685147e-08
-8.006298801e-08
-8.113110054e-08
-8.185702376e-08
-8.219417489e-08
-8.350157654e-08
-8.441881726e-08
-8.414284926e-08
-8.564457456e-08
-8.687327676e-08
-8.764655706e-08
-8.971271545e-08
-9.062949569e-08
-9.268367373e-08
-9.542692999e-08
-8.175981157e-08
-7.780736866e-08
-7.913209358e-08
-7.928926916e-08
)


100
(
5.259360726e-09
6.048671335e-09
6.451919602e-09
6.562789936e-09
6.393565868e-09
6.026933858e-09
5.633714021e-09
5.091494228e-09
4.511290513e-09
4.039159078e-09
3.301147095e-09
2.760487623e-09
2.163642681e-09
1.509361459e-09
9.492258329e-10
4.001754784e-10
-1.634218947e-10
-7.539543603e-10
-1.388634837e-09
-2.017850664e-09
-2.626673155e-09
-3.364299292e-09
-4.207394979e-09
-5.089256547e-09
-5.847815103e-09
-6.78243139e-09
-7.766289569e-09
-8.533202931e-09
-9.101680844e-09
-9.970752915e-09
-1.129057454e-08
-1.281154075e-08
-1.365812638e-08
-1.442584371e-08
-1.590672079e-08
-1.762335092e-08
-1.823681268e-08
-1.850409109e-08
-2.01017084e-08
-2.228681222e-08
-2.307854952e-08
-2.352283602e-08
-2.443628957e-08
-2.654492208e-08
-2.787214013e-08
-2.792619384e-08
-2.840305598e-08
-3.087847798e-08
-3.322721754e-08
-3.347783012e-08
-3.390161767e-08
-3.579552562e-08
-3.78778936e-08
-3.894367221e-08
-3.92071762e-08
-4.055150083e-08
-4.234185713e-08
-4.321065318e-08
-4.38818549e-08
-4.489311277e-08
-4.662576411e-08
-4.832213016e-08
-4.99362376e-08
-5.180141416e-08
-5.325200015e-08
-5.503786777e-08
-5.666699961e-08
-5.73893338e-08
-5.888956635e-08
-5.975576026e-08
-6.029379792e-08
-6.101541456e-08
-6.256656027e-08
-6.464083606e-08
-6.666230324e-08
-6.683346957e-08
-6.606497633e-08
-6.740702613e-08
-6.766509556e-08
-6.757326068e-08
-6.803693397e-08
-6.862143556e-08
-7.038355602e-08
-7.112535858e-08
-7.138646366e-08
-7.213981868e-08
-7.143623174e-08
-7.103986246e-08
-7.093996891e-08
-7.365538216e-08
-7.384205303e-08
-7.277481039e-08
-7.528874341e-08
-7.554935185e-08
-7.74726225e-08
-8.005867186e-08
-5.924860279e-08
-6.591973392e-08
-7.054997292e-08
-7.327994985e-08
)


100
(
4.886401904e-09
5.998420373e-09
6.669965205e-09
6.962161058e-09
6.768704421e-09
6.69298667e-09
6.116172523e-09
5.816074641e-09
5.077086572e-09
4.596153354e-09
3.989433602e-09
3.270167098e-09
2.708342057e-09
2.049239309e-09
1.378256263e-09
7.621441789e-10
1.388204993e-10
-5.035399581e-10
-1.22193587e-09
-2.033585403e-09
-2.887029992e-09
-3.664463484e-09
-4.569174067e-09
-5.666118482e-09
-6.927347199e-09
-7.878764383e-09
-8.899478189e-09
-9.976891611e-09
-1.064866629e-08
-1.111183049e-08
-1.173311581e-08
-1.353205738e-08
-1.493039066e-08
-1.558700503e-08
-1.591089185e-08
-1.786933381e-08
-1.952213546e-08
-1.999608318e-08
-1.964270927e-08
-2.169967109e-08
-2.384719111e-08
-2.460719693e-08
-2.45657977e-08
-2.581172699e-08
-2.796720161e-08
-2.92949586e-08
-2.921520648e-08
-2.960680619e-08
-3.207722803e-08
-3.397507846e-08
-3.448183906e-08
-3.454724019e-08
-3.576591905e-08
-3.711471069e-08
-3.842480996e-08
-3.977162967e-08
-4.066601046e-08
-4.137856098e-08
-4.265358101e-08
-4.399781751e-08
-4.508024644e-08
-4.578744113e-08
-4.754592555e-08
-4.923733263e-08
-4.997917627e-08
-5.04406467e-08
-5.14127919e-08
-5.210686803e-08
-5.247401456e-08
-5.36893486e-08
-5.505288127e-08
-5.645025234e-08
-5.811098324e-08
-5.902682814e-08
-5.876701712e-08
-5.989013611e-08
-5.891159318e-08
-5.860979749e-08
-5.894024179e-08
-6.005041891e-08
-6.121944096e-08
-6.121984965e-08
-5.973993192e-08
-6.01193135e-08
-6.014777839e-08
-6.086245867e-08
-6.065902705e-08
-6.080834536e-08
-6.167239616e-08
-6.195612699e-08
-6.24497469e-08
-6.348511554e-08
-6.397175105e-08
-6.487022353e-08
-6.717611656e-08
-6.851752772e-08
-5.141012651e-08
-5.860390654e-08
-6.342729118e-08
-6.793127129e-08
)


100
(
4.736669228e-09
5.973971658e-09
6.850598279e-09
7.181849761e-09
7.241275744e-09
7.135092326e-09
6.696850825e-09
6.276754358e-09
5.759708252e-09
5.054430983e-09
4.613409357e-09
3.891947718e-09
3.193469659e-09
2.579268718e-09
1.856614491e-09
1.136193184e-09
4.231185752e-10
-3.054267376e-10
-1.087411906e-09
-1.939882491e-09
-2.952156315e-09
-4.057635607e-09
-4.927891062e-09
-5.829029637e-09
-7.01904781e-09
-8.405314108e-09
-9.485589327e-09
-1.053852121e-08
-1.158712483e-08
-1.202799624e-08
-1.218185113e-08
-1.271545343e-08
-1.480976209e-08
-1.607202439e-08
-1.634052913e-08
-1.677505932e-08
-1.890676449e-08
-2.053855809e-08
-2.037181944e-08
-2.055261347e-08
-2.258920156e-08
-2.474154003e-08
-2.520392538e-08
-2.553548232e-08
-2.672986397e-08
-2.884453601e-08
-2.952853576e-08
-2.94959129e-08
-2.942780346e-08
-3.108412375e-08
-3.195296812e-08
-3.299789623e-08
-3.364314376e-08
-3.424125195e-08
-3.545503948e-08
-3.720534711e-08
-3.896298847e-08
-4.036762779e-08
-4.112583809e-08
-4.229011777e-08
-4.335571832e-08
-4.356605115e-08
-4.357104322e-08
-4.350743468e-08
-4.407549786e-08
-4.444357913e-08
-4.527235757e-08
-4.668552836e-08
-4.747183006e-08
-4.879565263e-08
-5.040706548e-08
-5.076301649e-08
-5.066318998e-08
-5.048820804e-08
-5.006210128e-08
-5.055027359e-08
-5.212155752e-08
-5.278360422e-08
-5.350939412e-08
-5.330061765e-08
-5.221308334e-08
-5.205080122e-08
-5.219334816e-08
-5.258718375e-08
-5.245675226e-08
-5.200909271e-08
-5.23270862e-08
-5.317503992e-08
-5.498068582e-08
-5.530028757e-08
-5.528535043e-08
-5.615679256e-08
-5.762258184e-08
-5.938763019e-08
-6.090241092e-08
-5.971417561e-08
-4.735333474e-08
-5.386718033e-08
-5.712116634e-08
-6.155983205e-08
)


100
(
4.735422439e-09
6.021474656e-09
6.925235588e-09
7.387876579e-09
7.70181176e-09
7.406536238e-09
7.305198278e-09
6.665862472e-09
6.374678251e-09
5.679434068e-09
5.079343212e-09
4.583007541e-09
3.791359608e-09
3.077372264e-09
2.3738915e-09
1.577041166e-09
7.718163134e-10
-8.08166792e-11
-9.94590473e-10
-1.823929437e-09
-2.690818068e-09
-3.784313616e-09
-5.019038371e-09
-5.83079662e-09
-6.496746486e-09
-7.6318682e-09
-9.024356461e-09
-1.03440531e-08
-1.15076431e-08
-1.251588576e-08
-1.277485637e-08
-1.2337756e-08
-1.344359937e-08
-1.561105578e-08
-1.681494729e-08
-1.660013109e-08
-1.753341311e-08
-1.971739147e-08
-2.116035217e-08
-2.093196565e-08
-2.12676526e-08
-2.309188567e-08
-2.49146678e-08
-2.535734532e-08
-2.536323646e-08
-2.607702554e-08
-2.70091275e-08
-2.763862675e-08
-2.828404453e-08
-2.848249031e-08
-2.919381102e-08
-3.048468238e-08
-3.204889322e-08
-3.355661153e-08
-3.43156224e-08
-3.441385222e-08
-3.590787868e-08
-3.732734101e-08
-3.801082226e-08
-3.836538186e-08
-3.845747194e-08
-3.866933027e-08
-3.854402341e-08
-3.905208269e-08
-4.024588921e-08
-4.097898166e-08
-4.153727496e-08
-4.30726947e-08
-4.40190963e-08
-4.361640015e-08
-4.301730449e-08
-4.269551985e-08
-4.26739968e-08
-4.391711311e-08
-4.53381508e-08
-4.592925881e-08
-4.697542014e-08
-4.669331549e-08
-4.574659936e-08
-4.551926407e-08
-4.610355598e-08
-4.678460625e-08
-4.691660101e-08
-4.669079394e-08
-4.679727282e-08
-4.698991681e-08
-4.792117601e-08
-4.907386382e-08
-5.03978736e-08
-5.102639813e-08
-5.124500494e-08
-5.294413665e-08
-5.424950914e-08
-5.674282398e-08
-5.804780823e-08
-5.367030542e-08
-4.421816344e-08
-4.987257706e-08
-5.222894777e-08
-5.483271998e-08
)


100
(
4.735023799e-09
5.990429904e-09
6.962623337e-09
7.649959194e-09
7.936661887e-09
7.803003672e-09
7.706896877e-09
7.271955839e-09
6.788150527e-09
6.37801612e-09
5.626403425e-09
5.107462985e-09
4.520306343e-09
3.70167509e-09
2.9277249e-09
2.110213284e-09
1.245622618e-09
3.597951686e-10
-5.744897786e-10
-1.585984515e-09
-2.361516538e-09
-3.080913764e-09
-4.148944419e-09
-5.355949338e-09
-6.202778572e-09
-6.696746676e-09
-7.635198549e-09
-9.052394525e-09
-1.065048251e-08
-1.205913658e-08
-1.309156212e-08
-1.303193406e-08
-1.264231759e-08
-1.403913633e-08
-1.622748768e-08
-1.699688101e-08
-1.713781405e-08
-1.804399796e-08
-2.012554028e-08
-2.087851776e-08
-2.089087738e-08
-2.074214729e-08
-2.186367032e-08
-2.265618517e-08
-2.354592894e-08
-2.390071985e-08
-2.420948384e-08
-2.501769605e-08
-2.625438641e-08
-2.764359782e-08
-2.888230767e-08
-2.904863221e-08
-2.96849287e-08
-3.103090212e-08
-3.226284828e-08
-3.265315835e-08
-3.277032955e-08
-3.226750285e-08
-3.244437833e-08
-3.269940494e-08
-3.342513884e-08
-3.473585551e-08
-3.536188022e-08
-3.580732236e-08
-3.715200264e-08
-3.829509371e-08
-3.815653331e-08
-3.762001237e-08
-3.702014506e-08
-3.674108686e-08
-3.73057024e-08
-3.868720772e-08
-3.891734231e-08
-4.010467582e-08
-4.137739359e-08
-4.111838608e-08
-4.049303207e-08
-4.060455585e-08
-4.125616659e-08
-4.19390276e-08
-4.233927432e-08
-4.254150401e-08
-4.277120103e-08
-4.316281346e-08
-4.395872965e-08
-4.524192196e-08
-4.556276413e-08
-4.678155689e-08
-4.773485843e-08
-4.868123081e-08
-5.025712166e-08
-5.19613412e-08
-5.345416284e-08
-5.582768427e-08
-5.766342344e-08
-4.645139933e-08
-4.008160891e-08
-4.574775053e-08
-4.773073189e-08
-4.953717702e-08
)


100
(
4.545755906e-09
5.891099519e-09
7.024302941e-09
7.871569568e-09
8.030097483e-09
8.2570039e-09
7.952436076e-09
7.8909241e-09
7.255506806e-09
6.913864877e-09
6.377332643e-09
5.649601784e-09
5.153265982e-09
4.494307586e-09
3.648378333e-09
2.799175751e-09
1.906876127e-09
1.050884999e-09
2.399923152e-10
-7.439084427e-10
-1.799031115e-09
-2.496734675e-09
-3.021144479e-09
-4.032000217e-09
-5.222236766e-09
-6.188456459e-09
-6.616812917e-09
-7.28257495e-09
-8.700061986e-09
-1.036869523e-08
-1.221767055e-08
-1.331278254e-08
-1.269802786e-08
-1.285586286e-08
-1.425288264e-08
-1.624924321e-08
-1.666709315e-08
-1.682747624e-08
-1.729049303e-08
-1.83715579e-08
-1.885781311e-08
-1.898936906e-08
-1.884487538e-08
-1.937746349e-08
-2.046211108e-08
-2.18749604e-08
-2.326171582e-08
-2.374577816e-08
-2.390554726e-08
-2.510752498e-08
-2.642566241e-08
-2.744436815e-08
-2.791828466e-08
-2.767858152e-08
-2.742871363e-08
-2.76920506e-08
-2.768405216e-08
-2.823866337e-08
-2.903245146e-08
-2.914817353e-08
-2.966774354e-08
-3.117661367e-08
-3.26244705e-08
-3.303770834e-08
-3.262339049e-08
-3.223940431e-08
-3.209792598e-08
-3.224989698e-08
-3.30296303e-08
-3.303232413e-08
-3.380709874e-08
-3.530142422e-08
-3.602112131e-08
-3.587145183e-08
-3.578676091e-08
-3.630908919e-08
-3.692658893e-08
-3.744753509e-08
-3.798831339e-08
-3.846006919e-08
-3.898714584e-08
-3.953735547e-08
-4.045980913e-08
-4.172145338e-08
-4.233394101e-08
-4.313035274e-08
-4.367173631e-08
-4.486597981e-08
-4.581798853e-08
-4.734623169e-08
-4.915804191e-08
-5.048034733e-08
-5.311518858e-08
-5.449078009e-08
-5.61272952e-08
-3.758523512e-08
-3.684411262e-08
-4.243379632e-08
-4.4408424e-08
-4.615013667e-08
)


100
(
4.137239547e-09
5.766366834e-09
7.072371809e-09
7.854232534e-09
8.251450361e-09
8.550679446e-09
8.343188516e-09
8.242192285e-09
7.936768794e-09
7.381059999e-09
7.076728034e-09
6.444603243e-09
5.771730452e-09
5.241590398e-09
4.548448518e-09
3.719195521e-09
2.846531059e-09
1.954111994e-09
1.174160743e-09
4.658835528e-10
-5.148213914e-10
-1.55160791e-09
-2.257822237e-09
-2.706686878e-09
-3.549109065e-09
-4.727839068e-09
-5.814040286e-09
-6.273603024e-09
-6.695627543e-09
-7.962881602e-09
-9.601617897e-09
-1.166708193e-08
-1.253267893e-08
-1.22329435e-08
-1.22530426e-08
-1.326335058e-08
-1.418824227e-08
-1.469822934e-08
-1.463515729e-08
-1.480402456e-08
-1.540960257e-08
-1.638357079e-08
-1.748765529e-08
-1.804215278e-08
-1.813787746e-08
-1.89396462e-08
-2.036617727e-08
-2.175286319e-08
-2.255734646e-08
-2.260657796e-08
-2.245222807e-08
-2.282709052e-08
-2.298944783e-08
-2.309244591e-08
-2.348721721e-08
-2.336457674e-08
-2.320814774e-08
-2.409971839e-08
-2.551564598e-08
-2.685226313e-08
-2.7434827e-08
-2.70834289e-08
-2.706116176e-08
-2.722154361e-08
-2.726293118e-08
-2.761010193e-08
-2.769249747e-08
-2.822104523e-08
-2.977943603e-08
-3.113960006e-08
-3.11990466e-08
-3.092175125e-08
-3.133574519e-08
-3.14476765e-08
-3.183564019e-08
-3.235793275e-08
-3.314115831e-08
-3.391002357e-08
-3.465457749e-08
-3.545792999e-08
-3.638449723e-08
-3.72186985e-08
-3.80564582e-08
-3.902236356e-08
-3.98302707e-08
-4.06762722e-08
-4.178511241e-08
-4.257334281e-08
-4.394119011e-08
-4.577737858e-08
-4.710004011e-08
-4.830622286e-08
-4.954825153e-08
-5.055227856e-08
-5.022201499e-08
-3.144610789e-08
-3.73597767e-08
-4.106878488e-08
-4.351184652e-08
-4.566046103e-08
)


100
(
3.917206854e-09
5.647432455e-09
7.012200001e-09
7.778350684e-09
8.49805401e-09
8.6346332e-09
8.810442186e-09
8.497424535e-09
8.539286342e-09
8.05105966e-09
7.615479806e-09
7.295943724e-09
6.598951191e-09
5.973412874e-09
5.444549658e-09
4.777132955e-09
4.010421627e-09
3.16894287e-09
2.322861426e-09
1.610953318e-09
1.005778749e-09
5.268472751e-11
-9.757334602e-10
-1.737244385e-09
-2.147788985e-09
-2.780673907e-09
-3.900294394e-09
-4.95107517e-09
-5.5933333e-09
-5.947982741e-09
-6.728013889e-09
-8.107446059e-09
-9.974704955e-09
-1.046900874e-08
-1.026850326e-08
-9.995099175e-09
-1.038307702e-08
-1.097695199e-08
-1.192929434e-08
-1.264794051e-08
-1.286256274e-08
-1.338619925e-08
-1.453636544e-08
-1.584429087e-08
-1.691190164e-08
-1.708595112e-08
-1.710720854e-08
-1.777472459e-08
-1.856122932e-08
-1.86745508e-08
-1.864329422e-08
-1.823861563e-08
-1.774562389e-08
-1.792974368e-08
-1.892243376e-08
-2.025640996e-08
-2.140275921e-08
-2.121154786e-08
-2.132879444e-08
-2.210451622e-08
-2.244524054e-08
-2.247384598e-08
-2.230488637e-08
-2.190876233e-08
-2.225161055e-08
-2.372642606e-08
-2.52834648e-08
-2.579823758e-08
-2.586932913e-08
-2.688032952e-08
-2.705598238e-08
-2.708171085e-08
-2.735953497e-08
-2.772051929e-08
-2.816902817e-08
-2.88397199e-08
-2.978361419e-08
-3.059862403e-08
-3.134725162e-08
-3.209693618e-08
-3.286969192e-08
-3.363956322e-08
-3.466925039e-08
-3.539135485e-08
-3.625738617e-08
-3.699938475e-08
-3.835147638e-08
-3.91635062e-08
-4.089523309e-08
-4.103199172e-08
-4.197898089e-08
-4.231699929e-08
-4.364519303e-08
-4.436079634e-08
-4.03148332e-08
-2.927404087e-08
-3.920759576e-08
-4.151208709e-08
-4.473054499e-08
-4.707294359e-08
)


100
(
3.915997738e-09
5.556250455e-09
6.871523938e-09
7.847698649e-09
8.588343483e-09
8.78461469e-09
9.100945652e-09
8.978295595e-09
8.864442477e-09
8.808702881e-09
8.2584405e-09
7.918126092e-09
7.552159701e-09
6.891170384e-09
6.317202398e-09
5.81554258e-09
5.202716716e-09
4.513813288e-09
3.733931562e-09
2.931644627e-09
2.259957852e-09
1.694793365e-09
8.415655156e-10
-1.713405497e-10
-1.00688207e-09
-1.39745527e-09
-1.819277346e-09
-2.735261241e-09
-3.660661468e-09
-4.32524092e-09
-4.640560162e-09
-4.962021019e-09
-5.77587498e-09
-6.750787293e-09
-7.209173122e-09
-7.576985929e-09
-7.708567173e-09
-7.853721425e-09
-8.666562653e-09
-9.847535438e-09
-1.102981879e-08
-1.153818063e-08
-1.164068549e-08
-1.245715276e-08
-1.353033437e-08
-1.429257218e-08
-1.450246271e-08
-1.418775062e-08
-1.367432007e-08
-1.353431652e-08
-1.364346414e-08
-1.433709795e-08
-1.519506984e-08
-1.530701814e-08
-1.514423826e-08
-1.617018815e-08
-1.740642286e-08
-1.806614252e-08
-1.79825143e-08
-1.731938562e-08
-1.67451975e-08
-1.702228258e-08
-1.82403869e-08
-1.95627344e-08
-1.967833252e-08
-1.99557813e-08
-2.123865219e-08
-2.200376505e-08
-2.216879687e-08
-2.232459847e-08
-2.2734807e-08
-2.333386555e-08
-2.396743372e-08
-2.448300842e-08
-2.50349267e-08
-2.561322139e-08
-2.614829722e-08
-2.667299076e-08
-2.720028693e-08
-2.790594609e-08
-2.889667039e-08
-2.944023753e-08
-3.012231722e-08
-3.065276341e-08
-3.150596292e-08
-3.250927137e-08
-3.35441631e-08
-3.428832059e-08
-3.417780388e-08
-3.422498557e-08
-3.391528225e-08
-3.484422749e-08
-3.529818507e-08
-3.585331557e-08
-3.060689361e-08
-2.823726375e-08
-3.788789748e-08
-4.173932516e-08
-4.590549162e-08
-4.928935257e-08
)


100
(
3.915680421e-09
5.429309729e-09
6.776628588e-09
7.893207749e-09
8.491237625e-09
9.04592773e-09
9.194147142e-09
9.484280877e-09
9.219365052e-09
9.29091389e-09
9.106828317e-09
8.571145831e-09
8.318008038e-09
7.955604991e-09
7.343377909e-09
6.820371551e-09
6.348599335e-09
5.793323048e-09
5.17201061e-09
4.457955804e-09
3.685251238e-09
3.028742683e-09
2.503402248e-09
1.792667543e-09
8.401724815e-10
3.82072795e-11
-4.087629894e-10
-7.057668375e-10
-1.179816581e-09
-1.857937818e-09
-2.37714651e-09
-2.783087415e-09
-3.003086028e-09
-3.239948789e-09
-3.867107597e-09
-4.661367149e-09
-5.58695745e-09
-6.171930775e-09
-6.32011479e-09
-6.797691815e-09
-7.924514707e-09
-9.074742445e-09
-9.750531187e-09
-9.786578843e-09
-9.70123864e-09
-9.947363603e-09
-1.009538905e-08
-1.0110052e-08
-1.03471373e-08
-1.033511293e-08
-1.018284246e-08
-1.06165835e-08
-1.175535954e-08
-1.291826194e-08
-1.337045908e-08
-1.309223934e-08
-1.280632588e-08
-1.31221167e-08
-1.315738838e-08
-1.365303356e-08
-1.406650357e-08
-1.400887462e-08
-1.457963851e-08
-1.60519861e-08
-1.722011789e-08
-1.749475708e-08
-1.747819293e-08
-1.768841318e-08
-1.806219084e-08
-1.849547873e-08
-1.894509181e-08
-1.942014527e-08
-2.002647286e-08
-2.062420281e-08
-2.128058309e-08
-2.176200156e-08
-2.204299419e-08
-2.2370359e-08
-2.290824145e-08
-2.34617605e-08
-2.412996805e-08
-2.459052292e-08
-2.470903741e-08
-2.534101942e-08
-2.601571116e-08
-2.713281435e-08
-2.740152266e-08
-2.737175199e-08
-2.688494297e-08
-2.651417279e-08
-2.631176161e-08
-2.66991418e-08
-2.465683149e-08
-2.439209258e-08
-2.032191814e-08
-2.4434363e-08
-3.337036335e-08
-3.90051745e-08
-4.432808288e-08
-4.969940995e-08
)


100
(
3.696746611e-09
5.269752401e-09
6.686816526e-09
7.791615529e-09
8.454408543e-09
9.197001185e-09
9.375961161e-09
9.722086064e-09
9.814764229e-09
9.64332175e-09
9.779567483e-09
9.519188847e-09
9.063667845e-09
8.842489956e-09
8.504811245e-09
7.948088547e-09
7.467839371e-09
7.017860619e-09
6.516261523e-09
5.953822644e-09
5.306696933e-09
4.562616191e-09
3.930315986e-09
3.451711757e-09
2.935061461e-09
2.13084951e-09
1.4446049e-09
1.014519118e-09
8.487418112e-10
6.983782447e-10
3.295257303e-10
-1.345763435e-10
-6.879728783e-10
-1.15822735e-09
-1.42846774e-09
-1.764470047e-09
-2.653309429e-09
-3.770848919e-09
-4.720448849e-09
-4.968679963e-09
-5.053596512e-09
-5.59441649e-09
-6.311454481e-09
-6.584903658e-09
-6.562194991e-09
-6.276188211e-09
-5.946419941e-09
-5.988599262e-09
-6.525155241e-09
-7.463136591e-09
-8.31679473e-09
-8.354675915e-09
-8.395077525e-09
-9.181336953e-09
-9.8477102e-09
-9.826592787e-09
-9.68421982e-09
-9.312863851e-09
-9.171886776e-09
-9.959071053e-09
-1.129026229e-08
-1.242221476e-08
-1.235860633e-08
-1.246298397e-08
-1.330131596e-08
-1.36038169e-08
-1.376677254e-08
-1.402393051e-08
-1.43869348e-08
-1.477649171e-08
-1.513547974e-08
-1.56201376e-08
-1.60364444e-08
-1.654469502e-08
-1.70313958e-08
-1.748143354e-08
-1.765735987e-08
-1.773482446e-08
-1.837037568e-08
-1.887120761e-08
-1.862362157e-08
-1.893399261e-08
-1.885634578e-08
-1.977676068e-08
-2.028614183e-08
-2.054840049e-08
-2.039267064e-08
-1.990333297e-08
-1.961596138e-08
-1.866794195e-08
-1.80099158e-08
-1.733229925e-08
-1.579512414e-08
-1.44156813e-08
-9.577093873e-09
-1.755294761e-08
-2.657068101e-08
-3.312274422e-08
-3.930326004e-08
-4.543988431e-08
)


100
(
3.327751369e-09
5.084000483e-09
6.564467888e-09
7.585508373e-09
8.507019401e-09
9.109801487e-09
9.665162513e-09
9.825687457e-09
1.030397034e-08
1.023287246e-08
1.020393877e-08
1.039087707e-08
1.005087139e-08
9.653917119e-09
9.477535341e-09
9.18169265e-09
8.683220452e-09
8.239500933e-09
7.804571891e-09
7.368538412e-09
6.865587283e-09
6.300387024e-09
5.625379599e-09
5.055204406e-09
4.65922275e-09
4.310228149e-09
3.83981544e-09
3.361790641e-09
2.998432667e-09
2.779819505e-09
2.647626018e-09
2.499015264e-09
2.000928536e-09
1.238522899e-09
4.481231372e-10
4.970042574e-11
-1.419081354e-10
-7.600562681e-10
-1.747628778e-09
-2.580927261e-09
-2.892515907e-09
-2.716839293e-09
-2.451889575e-09
-2.448576094e-09
-2.491625439e-09
-2.757232425e-09
-3.171905742e-09
-3.325426882e-09
-3.297221436e-09
-3.97711332e-09
-5.020993577e-09
-5.845016254e-09
-5.981296499e-09
-5.700888932e-09
-5.445040767e-09
-5.551995499e-09
-5.938021797e-09
-6.725960531e-09
-7.157707182e-09
-7.118857082e-09
-7.873447363e-09
-9.048334943e-09
-9.631721398e-09
-9.716784753e-09
-9.751902883e-09
-9.764802941e-09
-9.918085059e-09
-1.021171113e-08
-1.053174539e-08
-1.08672977e-08
-1.120243656e-08
-1.153729489e-08
-1.193433373e-08
-1.238990034e-08
-1.26111358e-08
-1.27148446e-08
-1.262895841e-08
-1.275426523e-08
-1.298435181e-08
-1.328979666e-08
-1.292926483e-08
-1.315070465e-08
-1.332951542e-08
-1.327931659e-08
-1.366825886e-08
-1.302890869e-08
-1.236988259e-08
-1.170574946e-08
-1.062811722e-08
-9.995696583e-09
-8.114157289e-09
-6.154503516e-09
-6.100069645e-09
-3.30274303e-09
-3.541022965e-10
-8.655087068e-09
-1.804223036e-08
-2.518876136e-08
-3.20052457e-08
-3.940937502e-08
)


100
(
3.177770356e-09
4.913451902e-09
6.364762649e-09
7.450292023e-09
8.49675079e-09
9.028478385e-09
9.798461039e-09
1.011420756e-08
1.047223342e-08
1.088509514e-08
1.075717227e-08
1.084823498e-08
1.104378205e-08
1.068224115e-08
1.034017465e-08
1.020548045e-08
9.97617452e-09
9.538278964e-09
9.123620434e-09
8.720169191e-09
8.380122242e-09
7.947490852e-09
7.49696823e-09
6.976520816e-09
6.547589624e-09
6.324669518e-09
6.138789854e-09
5.920397883e-09
5.576529221e-09
5.195447052e-09
4.833622416e-09
4.513745909e-09
4.309247174e-09
3.888245902e-09
3.062817294e-09
2.16004731e-09
1.627512569e-09
1.517133503e-09
1.410497379e-09
9.784352372e-10
6.226650233e-10