/*--------------------------------*- C++ -*----------------------------------*\
| =========                 |                                                 |
| \\      /  F ield         | OpenFOAM: The Open Source CFD Toolbox           |
|  \\    /   O peration     | Version:  2.3.1                                 |
|   \\  /    A nd           | Web:      www.OpenFOAM.org                      |
|    \\/     M anipulation  |                                                 |
\*---------------------------------------------------------------------------*/
FoamFile
{
    version     2.0;
    format      ascii;
    class       dictionary;
    location    "constant";
    object      DPSI40;
}
// * * * * * * * * * * * * * * * * * * * * * * * * * * * * * * * * * * * * * //

DPSI40_table
100
(

100
(
-1.018647795e-08
-7.097515528e-09
-2.664984337e-09
-7.495205896e-10
2.765817344e-10
8.608646339e-10
1.132451553e-09
1.30514614e-09
1.389539247e-09
1.41489732e-09
1.396360221e-09
1.370470413e-09
1.3097446e-09
1.281136368e-09
1.244653992e-09
1.191642349e-09
1.158543984e-09
1.124765445e-09
1.087326765e-09
1.055865499e-09
1.024287183e-09
9.966922367e-10
9.672656144e-10
9.253905622e-10
8.876031517e-10
8.661887338e-10
8.442022644e-10
8.177498972e-10
7.93497396e-10
7.757213327e-10
7.500482741e-10
7.183267693e-10
6.969292993e-10
6.827682998e-10
6.707814524e-10
6.600026547e-10
6.460593618e-10
6.31427107e-10
6.171777769e-10
6.015081963e-10
5.85486193e-10
5.721802063e-10
5.576950758e-10
5.389132497e-10
5.225132095e-10
5.122380727e-10
5.032842354e-10
4.960293053e-10
4.864778292e-10
4.771983875e-10
4.676919532e-10
4.537186168e-10
4.398952379e-10
4.315310651e-10
4.192505125e-10
4.011521866e-10
3.871217697e-10
3.786739204e-10
3.694840978e-10
3.594713184e-10
3.494270539e-10
3.403243036e-10
3.340203619e-10
3.297859583e-10
3.226231589e-10
3.133167331e-10
3.0974816e-10
3.067059547e-10
2.982016261e-10
2.911996168e-10
2.893026142e-10
2.838324926e-10
2.746285095e-10
2.73238609e-10
2.694945172e-10
2.59975236e-10
2.593666985e-10
2.553693622e-10
2.486822984e-10
2.481056699e-10
2.406108787e-10
2.408614988e-10
2.387510577e-10
2.370985885e-10
2.365555203e-10
2.37922028e-10
2.410337963e-10
2.435901526e-10
2.542639525e-10
2.604044161e-10
2.683763437e-10
2.79995071e-10
2.945059174e-10
3.076673797e-10
3.147232197e-10
3.170721138e-10
3.12402011e-10
2.983235069e-10
2.517656367e-10
2.10087216e-10
)


100
(
-1.059813019e-08
-7.549179093e-09
-3.094604954e-09
-1.088988166e-09
2.358965619e-12
6.520930896e-10
1.001021613e-09
1.203822198e-09
1.326279164e-09
1.391691454e-09
1.380536215e-09
1.368117633e-09
1.32108406e-09
1.27010199e-09
1.254829504e-09
1.21845277e-09
1.151136078e-09
1.137655494e-09
1.129782897e-09
1.069723415e-09
1.040737758e-09
1.039386401e-09
1.010100202e-09
9.524644525e-10
9.310600705e-10
9.190009829e-10
8.775555084e-10
8.312892167e-10
8.291304654e-10
8.322574275e-10
7.945167639e-10
7.552174069e-10
7.419659895e-10
7.314872113e-10
7.031717033e-10
6.754493067e-10
6.647739686e-10
6.750621737e-10
6.649591564e-10
6.352127368e-10
6.141217975e-10
6.160191352e-10
6.101167644e-10
5.854283605e-10
5.635564802e-10
5.581867594e-10
5.524583963e-10
5.334505383e-10
5.150936641e-10
5.094440211e-10
5.15787211e-10
5.071550193e-10
4.880028541e-10
4.772657055e-10
4.747491067e-10
4.645302714e-10
4.449286393e-10
4.200435889e-10
3.610590448e-10
2.555814059e-10
3.024765104e-10
4.795961382e-10
4.374952225e-10
2.533439907e-10
2.761943366e-10
4.35465787e-10
3.634597179e-10
2.11948183e-10
3.006174724e-10
3.998569249e-10
2.7958746e-10
2.096225395e-10
3.421847267e-10
1.993225805e-10
-1.827308579e-11
3.60865671e-10
3.782515185e-10
6.85607885e-12
3.729367384e-10
2.780957425e-10
7.610959506e-11
3.38241136e-10
-1.238109892e-11
1.993883864e-10
2.57083228e-10
-8.336043454e-11
1.807469095e-10
-4.734673154e-11
-3.979163083e-11
5.180890851e-13
-2.375270239e-10
-3.92022243e-10
-4.674666089e-10
-5.690744137e-10
-6.077965771e-10
-5.932571926e-10
-4.154294862e-10
2.633110287e-09
4.305591957e-09
3.389137509e-09
)


100
(
-1.093708325e-08
-7.963352001e-09
-3.527286584e-09
-1.461153072e-09
-2.937606135e-10
4.275415079e-10
8.279533888e-10
1.084426905e-09
1.227945762e-09
1.332836061e-09
1.360144957e-09
1.344372809e-09
1.331743293e-09
1.269476623e-09
1.23321246e-09
1.23292693e-09
1.19067742e-09
1.124280387e-09
1.130552903e-09
1.132525603e-09
1.071304724e-09
1.041720671e-09
1.048460785e-09
1.025904681e-09
9.686784831e-10
9.428637676e-10
9.343995729e-10
9.018214869e-10
8.584393634e-10
8.388067351e-10
8.45317663e-10
8.285532596e-10
7.895941671e-10
7.626200238e-10
7.539029553e-10
7.377233967e-10
7.09457681e-10
6.841428047e-10
6.789444047e-10
6.88054544e-10
6.736405151e-10
6.465237497e-10
6.227644877e-10
6.262267137e-10
6.275374267e-10
6.053634015e-10
5.856226313e-10
5.756061578e-10
5.731200561e-10
5.592069266e-10
5.358056594e-10
4.990022565e-10
4.975986286e-10
5.075170307e-10
4.891906032e-10
4.416777524e-10
4.415025132e-10
4.613998131e-10
4.218076292e-10
3.033860046e-10
1.852367426e-10
2.527153546e-10
4.207124987e-10
4.791734556e-10
3.627848102e-10
2.943500519e-10
3.512080177e-10
3.79288291e-10
3.3277357e-10
3.114225153e-10
3.447105664e-10
3.347398812e-10
3.037763536e-10
2.409811079e-10
-4.849387573e-11
-4.195016253e-10
-7.520990086e-11
3.872124791e-10
1.092059054e-10
5.831631181e-11
-2.530641057e-11
-5.660792389e-11
-2.655885308e-10
-3.588423588e-10
-5.077348269e-11
-3.530952363e-10
-4.414112905e-10
-4.58285493e-10
-7.669332493e-10
-9.490745594e-10
-9.942504405e-10
-1.243716701e-09
-1.620254502e-09
-1.70626459e-09
-1.867104269e-09
-2.251292922e-09
1.300299804e-09
6.711699158e-09
7.372335932e-09
6.282310404e-09
)


100
(
-1.120701292e-08
-8.329453265e-09
-3.966257433e-09
-1.843706981e-09
-6.042595626e-10
1.768364696e-10
6.266638803e-10
9.356061124e-10
1.133845351e-09
1.246764206e-09
1.324034891e-09
1.310289309e-09
1.310621237e-09
1.302238859e-09
1.228973196e-09
1.209691137e-09
1.217347112e-09
1.17615686e-09
1.114994418e-09
1.13063739e-09
1.142835815e-09
1.087546661e-09
1.047845294e-09
1.055537854e-09
1.047658379e-09
9.954571743e-10
9.56905795e-10
9.491294319e-10
9.319642146e-10
8.919539529e-10
8.555013798e-10
8.548052884e-10
8.571627919e-10
8.241950872e-10
7.903602073e-10
7.683815048e-10
7.588297873e-10
7.409066283e-10
7.156610161e-10
6.876056579e-10
6.717507402e-10
6.788060255e-10
6.661494822e-10
6.347748978e-10
5.839485476e-10
5.872572167e-10
6.096405439e-10
5.865487077e-10
5.186648776e-10
5.155940659e-10
5.530555725e-10
5.298257509e-10
4.770621792e-10
4.756962377e-10
5.259651994e-10
5.104474428e-10
4.192062587e-10
4.050569631e-10
4.847565886e-10
4.599494057e-10
3.584804835e-10
2.939149439e-10
3.298408097e-10
4.139499941e-10
4.598852123e-10
4.233474039e-10
3.680674927e-10
3.325984312e-10
2.11625203e-10
8.7420837e-11
2.877086596e-11
-3.125174072e-11
-1.037776034e-10
-9.950035682e-11
-8.443757012e-11
-3.082215711e-10
-2.444950855e-10
-2.278830149e-11
-4.631181563e-10
-4.648276232e-10
-1.547542202e-10
-5.871727417e-10
-5.470529055e-10
-3.931058113e-10
-7.505695649e-10
-9.604546511e-10
-1.0586271e-09
-1.101907989e-09
-1.202030781e-09
-1.467000228e-09
-1.732962846e-09
-1.755309726e-09
-2.15992707e-09
-2.721132427e-09
-2.99325241e-09
-3.485166373e-09
3.041238099e-09
9.907278869e-09
9.468506067e-09
8.703705047e-09
)


100
(
-1.142935695e-08
-8.646041096e-09
-4.364722568e-09
-2.214714157e-09
-9.312668115e-10
-9.527386127e-11
4.24469585e-10
7.564653355e-10
1.005115036e-09
1.142633551e-09
1.251422683e-09
1.311547716e-09
1.277221659e-09
1.283130274e-09
1.271228668e-09
1.203856107e-09
1.194262658e-09
1.208009065e-09
1.1744153e-09
1.12252404e-09
1.132557124e-09
1.148817973e-09
1.108076482e-09
1.059807496e-09
1.060019109e-09
1.064205435e-09
1.02305926e-09
9.779629444e-10
9.5775899e-10
9.482349322e-10
9.193727496e-10
8.856828017e-10
8.488600234e-10
8.528876809e-10
8.516876632e-10
8.129587038e-10
7.491038276e-10
7.321122766e-10
7.416688161e-10
7.085461836e-10
6.751220844e-10
6.348398697e-10
6.551154231e-10
6.754651022e-10
6.264127283e-10
5.217864952e-10
5.535925097e-10
6.352898109e-10
5.765824265e-10
4.83962881e-10
5.004118668e-10
5.687305221e-10
5.305024103e-10
4.699839097e-10
4.869052017e-10
5.395201813e-10
4.694445101e-10
3.844284603e-10
4.017892689e-10
4.55333294e-10
4.548796146e-10
3.798612848e-10
2.720286394e-10
1.97046905e-10
1.630409332e-10
1.202088506e-10
4.552918287e-11
1.703806445e-11
2.197373045e-11
-1.602729194e-11
-5.197885052e-11
-1.061888519e-10
-1.990051822e-10
-3.052387258e-10
-2.565089462e-10
-2.630952724e-10
-5.569869428e-10
-5.160199968e-10
-4.021131719e-10
-6.454258069e-10
-7.145405565e-10
-5.455544337e-10
-5.580453228e-10
-8.714280198e-10
-9.973001611e-10
-1.0483187e-09
-1.135963139e-09
-9.727410474e-10
-5.186970401e-10
-8.699225884e-10
-1.753664684e-09
-1.403022463e-09
-1.464415226e-09
-2.095005261e-09
-2.417886777e-09
-3.410049573e-09
1.41858367e-09
7.648124111e-09
8.815587429e-09
8.971736078e-09
)


100
(
-1.158458103e-08
-8.917422589e-09
-4.749311126e-09
-2.595973235e-09
-1.272203808e-09
-3.857577333e-10
1.992534166e-10
5.714505656e-10
8.519154531e-10
1.054334443e-09
1.152440189e-09
1.246470974e-09
1.281665015e-09
1.253444326e-09
1.261227614e-09
1.246425682e-09
1.189366361e-09
1.183727217e-09
1.203233937e-09
1.180526787e-09
1.136618016e-09
1.13397645e-09
1.151113676e-09
1.126673391e-09
1.081562161e-09
1.060069741e-09
1.063774226e-09
1.04818662e-09
1.007114129e-09
9.545003987e-10
9.40412257e-10
9.361191346e-10
9.001631419e-10
8.286898069e-10
8.300417171e-10
8.576065967e-10
8.208515653e-10
6.982744134e-10
6.79527956e-10
7.455855154e-10
7.118725963e-10
6.413177306e-10
6.040925947e-10
6.671068194e-10
6.89822928e-10
5.76147328e-10
4.599504663e-10
5.631797274e-10
6.441384491e-10
5.414705283e-10
4.659640893e-10
5.044593877e-10
5.449846453e-10
5.065374068e-10
4.656693753e-10
4.636986875e-10
4.123451704e-10
3.154034763e-10
2.374601853e-10
1.394737575e-10
8.275913768e-11
1.361782207e-10
1.700840978e-10
8.641800517e-11
-1.713935734e-11
-1.765135644e-11
4.711779788e-11
2.75332456e-11
-2.73706195e-11
-6.069839806e-11
-5.315709416e-11
-3.947983313e-11
-1.009682221e-10
-3.43315068e-10
-5.136712511e-10
-3.43763914e-10
-3.734489571e-10
-5.284464164e-10
-2.671639075e-10
3.847696254e-11
-6.90062821e-11
-4.764609703e-10
-4.829520594e-10
-1.024997524e-10
2.473049849e-10
2.277916546e-10
1.804789974e-10
8.712179766e-10
9.575184297e-10
4.625375367e-10
8.574481264e-10
1.038378075e-09
8.354984076e-10
7.249263804e-10
-2.201388583e-10
-3.256599304e-09
-5.431367663e-09
-2.217826807e-09
2.310962456e-09
3.731374332e-09
)


100
(
-1.16601495e-08
-9.138066515e-09
-5.113020109e-09
-2.987675953e-09
-1.619391502e-09
-6.756231233e-10
-4.716005165e-11
3.814956055e-10
6.734070126e-10
9.185928463e-10
1.074970568e-09
1.15875493e-09
1.238001937e-09
1.252153364e-09
1.233605848e-09
1.244270432e-09
1.230760024e-09
1.184965467e-09
1.179747772e-09
1.203266532e-09
1.192055811e-09
1.154295213e-09
1.133878436e-09
1.147212116e-09
1.141420142e-09
1.100735091e-09
1.081681035e-09
1.083192096e-09
1.058616973e-09
9.948545733e-10
9.13938685e-10
9.158866211e-10
9.381762675e-10
8.795442867e-10
7.928208478e-10
8.175737127e-10
8.657988687e-10
7.794085113e-10
6.471083059e-10
6.72828007e-10
7.508121741e-10
6.943360046e-10
6.114137128e-10
6.004356622e-10
6.818998089e-10
6.319238201e-10
5.153384744e-10
4.697488431e-10
5.483520009e-10
5.71454651e-10
4.840671189e-10
4.460261587e-10
3.949073767e-10
3.796162927e-10
3.599862983e-10
3.14708408e-10
2.310928312e-10
1.515635726e-10
1.596857506e-10
1.65604091e-10
8.52241164e-11
-1.211556419e-11
-5.385527886e-11
3.589457778e-11
8.984004058e-11
4.94239572e-11
1.153478394e-10
1.473067817e-10
1.503883195e-10
2.041379213e-10
1.403246165e-10
-3.861474623e-11
-5.231914035e-11
4.731984553e-11
7.692399517e-11
4.186157645e-10
7.400972047e-10
8.271474051e-10
8.341233615e-10
7.065130531e-10
8.044549956e-10
1.28854081e-09
1.839068293e-09
1.954564198e-09
1.912798782e-09
2.173876726e-09
2.35129094e-09
2.385001469e-09
2.428728767e-09
2.324110231e-09
2.099028565e-09
1.913060812e-09
1.70465978e-09
1.29798636e-09
6.415479215e-10
-2.57511202e-09
-7.916524706e-09
-9.418448347e-09
-1.039227332e-08
-1.210071909e-08
)


100
(
-1.166216121e-08
-9.311924702e-09
-5.46472789e-09
-3.367056852e-09
-1.96446869e-09
-9.808087801e-10
-3.123872007e-10
1.70032753e-10
5.053419029e-10
7.56489311e-10
9.620928618e-10
1.075461631e-09
1.159595705e-09
1.229603307e-09
1.231988353e-09
1.221309866e-09
1.235506218e-09
1.228241137e-09
1.195901439e-09
1.186315594e-09
1.205940129e-09
1.205504666e-09
1.17201757e-09
1.126598086e-09
1.128355168e-09
1.138777317e-09
1.103460975e-09
1.092692313e-09
1.090549137e-09
1.055809722e-09
9.391052484e-10
8.65949072e-10
9.206255873e-10
9.388552796e-10
8.378552189e-10
7.555423385e-10
8.246599474e-10
8.56450873e-10
7.237554723e-10
6.08188382e-10
6.714751485e-10
7.385019268e-10
6.635277501e-10
5.902493677e-10
6.0484354e-10
6.215595323e-10
5.559312066e-10
4.871089216e-10
4.468762302e-10
4.178239097e-10
4.2118336e-10
4.175077518e-10
3.758920924e-10
2.619523475e-10
1.426391924e-10
2.071774533e-10
2.925436961e-10
2.224862902e-10
1.387567339e-10
1.210996963e-10
1.925954993e-10
2.15230635e-10
2.173029564e-10
3.960263211e-10
5.568131406e-10
5.410450457e-10
5.662718199e-10
6.265303232e-10
5.260161436e-10
4.95945149e-10
6.692028109e-10
8.240088173e-10
1.125599021e-09
1.582626345e-09
1.798288235e-09
1.827157651e-09
1.878294123e-09
2.036798119e-09
2.190612814e-09
2.439929531e-09
2.720389887e-09
2.731860142e-09
2.629992391e-09
2.559433624e-09
2.481154247e-09
2.228442826e-09
1.845179019e-09
1.468421514e-09
1.270341111e-09
1.127152036e-09
7.984731772e-10
5.246148133e-10
3.571782926e-10
1.756741723e-10
-2.89860385e-12
-7.362746675e-10
-2.609547726e-09
-5.525602487e-09
-2.045030715e-08
-3.297351227e-08
)


100
(
-1.162018587e-08
-9.44126702e-09
-5.783114175e-09
-3.719546881e-09
-2.309322794e-09
-1.294191777e-09
-5.797635337e-10
-6.424196476e-11
3.185619451e-10
5.881823852e-10
8.184927072e-10
9.935014045e-10
1.076770065e-09
1.163007186e-09
1.228425592e-09
1.229346052e-09
1.219666841e-09
1.23548121e-09
1.244625116e-09
1.221414525e-09
1.192093951e-09
1.196938212e-09
1.20561337e-09
1.17326479e-09
1.11143625e-09
1.089563012e-09
1.109282803e-09
1.09647138e-09
1.09521736e-09
1.092003421e-09
1.024503668e-09
8.777499314e-10
8.357741945e-10
9.236854091e-10
9.056053305e-10
7.952176172e-10
7.480165166e-10
8.307228474e-10
7.980184877e-10
6.672898728e-10
6.171216527e-10
6.68513197e-10
6.93735844e-10
6.298899093e-10
5.926027023e-10
5.571210218e-10
5.410257827e-10
5.245956189e-10
4.959089626e-10
4.405779703e-10
3.301588885e-10
2.833819201e-10
3.597412979e-10
3.988998969e-10
3.131278173e-10
2.355152523e-10
2.732437963e-10
3.927931396e-10
4.715806272e-10
5.369878066e-10
7.644531748e-10
9.969089613e-10
1.069937208e-09
1.130970896e-09
1.223550038e-09
1.235389189e-09
1.272566433e-09
1.429242065e-09
1.566309509e-09
1.811442924e-09
2.285069355e-09
2.716073358e-09
2.745598374e-09
2.549485479e-09
2.630200729e-09
2.82901295e-09
2.719728239e-09
2.546230134e-09
2.456140567e-09
2.245005966e-09
1.963738367e-09
1.672992557e-09
1.394178666e-09
1.09775124e-09
8.202149666e-10
6.275382432e-10
4.741303066e-10
3.666042342e-10
2.970672254e-10
2.192663931e-10
1.543959701e-10
1.062637066e-10
6.285060249e-11
-7.300765169e-13
-5.046001765e-11
-2.576125051e-10
-5.850258955e-10
-1.215085908e-09
-2.208563893e-08
-4.156225001e-08
)


100
(
-1.156724815e-08
-9.524036018e-09
-6.039309152e-09
-4.037425683e-09
-2.659008638e-09
-1.614764654e-09
-8.577433632e-10
-3.133193736e-10
1.125708668e-10
4.273190793e-10
6.585819581e-10
8.703799526e-10
1.019678616e-09
1.09340256e-09
1.179881998e-09
1.240204308e-09
1.243818972e-09
1.238777751e-09
1.246050855e-09
1.249453803e-09
1.226134862e-09
1.17195688e-09
1.165023304e-09
1.186862106e-09
1.159186499e-09
1.090622836e-09
1.040141835e-09
1.065801924e-09
1.084384768e-09
1.093330656e-09
1.08710428e-09
9.589912295e-10
8.179872268e-10
8.346044216e-10
9.201453404e-10
8.617442169e-10
7.617405296e-10
7.609395386e-10
7.969917629e-10
7.497891357e-10
6.73847994e-10
6.509096079e-10
6.634627861e-10
6.956152194e-10
6.889694782e-10
6.519491376e-10
5.625390044e-10
4.71624725e-10
4.938530395e-10
5.530425408e-10
5.347764249e-10
4.70682528e-10
4.549309295e-10
5.482330015e-10
6.671088623e-10
7.421510081e-10
8.758015392e-10
1.182749953e-09
1.527007872e-09
1.687234032e-09
1.704908042e-09
1.757159877e-09
1.884688831e-09
2.075884076e-09
2.246040048e-09
2.293069285e-09
2.417671681e-09
2.69713669e-09
3.020236862e-09
3.199773213e-09
3.001519221e-09
2.788729247e-09
2.780243685e-09
2.62055038e-09
2.180068662e-09
1.795906584e-09
1.548370735e-09
1.25863845e-09
9.908363651e-10
7.691756997e-10
5.888666167e-10
4.344451785e-10
3.202223699e-10
2.594179599e-10
2.188879693e-10
1.865487448e-10
1.722756963e-10
1.487791982e-10
1.192414697e-10
9.760477742e-11
7.119093631e-11
4.825457454e-11
1.647258252e-11
-2.397323672e-11
-3.249451337e-11
-1.456604087e-10
-2.844024859e-10
-3.855878978e-10
-2.025231617e-08
-3.925215333e-08
)


100
(
-1.146405083e-08
-9.56297015e-09
-6.264333879e-09
-4.358111415e-09
-2.994337481e-09
-1.928532972e-09
-1.14589113e-09
-5.659842363e-10
-1.118168846e-10
2.498514286e-10
5.206385199e-10
7.381850243e-10
9.253618184e-10
1.051397716e-09
1.132185083e-09
1.208982104e-09
1.255201931e-09
1.260186074e-09
1.235531983e-09
1.226775344e-09
1.236187753e-09
1.209332193e-09
1.141987209e-09
1.117706474e-09
1.146478285e-09
1.136478635e-09
1.065894102e-09
9.958612996e-10
1.021763805e-09
1.060304766e-09
1.077373907e-09
1.043773018e-09
9.01879976e-10
8.045141632e-10
8.480282225e-10
8.907307103e-10
8.452357281e-10
8.084552043e-10
8.044722468e-10
8.137254703e-10
8.248712731e-10
8.259303368e-10
7.937011966e-10
7.207658757e-10
6.969552723e-10
7.463251995e-10
7.665604137e-10
7.146391588e-10
6.723764434e-10
7.466382604e-10
8.700193187e-10
9.641288006e-10
1.068610639e-09
1.24280452e-09
1.553092514e-09
2.000139421e-09
2.219386495e-09
2.304272989e-09
2.495499163e-09
2.664538614e-09
2.875899981e-09
2.900547032e-09
2.74656247e-09
2.838168558e-09
3.05726166e-09
3.126597121e-09
3.104892221e-09
2.807136943e-09
2.453939031e-09
2.426273483e-09
2.291884948e-09
1.74428484e-09
1.27846921e-09
1.035025516e-09
7.901546381e-10
5.910789279e-10
4.453001545e-10
3.494934894e-10
2.7790838e-10
2.201684195e-10
1.817948714e-10
1.631454812e-10
1.495137538e-10
1.315278438e-10
1.199891263e-10
1.028395809e-10
9.168034382e-11
8.985030414e-11
7.386733516e-11
5.921975777e-11
4.311540118e-11
2.576120061e-11
-6.654814896e-14
-1.608551258e-11
-2.948947783e-11
-1.110241737e-10
-1.694580338e-10
-2.207702848e-10
-1.746744072e-08
-3.404033918e-08
)


100
(
-1.124550146e-08
-9.520346685e-09
-6.4524858e-09
-4.66142266e-09
-3.315409909e-09
-2.244440714e-09
-1.439549402e-09
-8.225025775e-10
-3.459824263e-10
5.78119411e-11
3.737137518e-10
6.227622312e-10
8.298247118e-10
9.875307611e-10
1.093170925e-09
1.165754665e-09
1.216989945e-09
1.247800582e-09
1.244915264e-09
1.202125418e-09
1.190179128e-09
1.205551942e-09
1.177481943e-09
1.105990505e-09
1.066847086e-09
1.099729686e-09
1.108715716e-09
1.043721344e-09
9.791314699e-10
9.73588232e-10
1.02395925e-09
1.073107058e-09
9.881661914e-10
8.828261552e-10
8.730432594e-10
9.059755971e-10
9.456958689e-10
9.738070286e-10
9.937285433e-10
9.699616878e-10
9.41815052e-10
9.521538026e-10
9.857899844e-10
9.797351474e-10
9.407819602e-10
9.761794671e-10
1.082231687e-09
1.157847285e-09
1.239259071e-09
1.386343742e-09
1.629027697e-09
2.005717948e-09
2.350865283e-09
2.574472419e-09
2.80142973e-09
2.996430902e-09
3.316786922e-09
3.627275667e-09
3.389023663e-09
3.142215358e-09
3.262813112e-09
3.30121693e-09
3.189059458e-09
2.91343636e-09
2.47622353e-09
2.104853332e-09
1.942183085e-09
1.747111103e-09
1.258228023e-09
8.993386639e-10
7.640594012e-10
5.673805021e-10
4.169847573e-10
3.219133375e-10
2.642990222e-10
2.197249089e-10
1.782932547e-10
1.502081155e-10
1.351639331e-10
1.256490155e-10
1.170348599e-10
1.060100099e-10
9.655904329e-11
8.233070717e-11
7.15101202e-11
6.370329222e-11
6.310500592e-11
5.852962329e-11
4.459732422e-11
3.81685685e-11
2.865146615e-11
1.570545831e-11
-2.330145055e-12
-8.577605838e-12
-3.209851262e-11
-8.865851179e-11
-1.073441379e-10
-1.412438455e-10
-1.48485359e-08
-2.902320755e-08
)


100
(
-1.091008825e-08
-9.39477102e-09
-6.629476818e-09
-4.926639077e-09
-3.602749263e-09
-2.551424775e-09
-1.737740448e-09
-1.08546854e-09
-5.7450051e-10
-1.388016199e-10
2.228822602e-10
4.998641896e-10
7.367411261e-10
9.162030941e-10
1.032864189e-09
1.112248818e-09
1.162485137e-09
1.190954627e-09
1.21176001e-09
1.204331135e-09
1.158929687e-09
1.144777971e-09
1.162092143e-09
1.140485643e-09
1.07254611e-09
1.025404589e-09
1.053611768e-09
1.078131197e-09
1.035380468e-09
9.877713488e-10
9.802134776e-10
1.022218892e-09
1.062308837e-09
1.043931208e-09
1.046259691e-09
1.095578069e-09
1.13126153e-09
1.146067049e-09
1.171806442e-09
1.198394629e-09
1.189701982e-09
1.216718567e-09
1.280122947e-09
1.348666274e-09
1.432396984e-09
1.542587083e-09
1.732122417e-09
2.057427895e-09
2.322290439e-09
2.513021309e-09
2.835706735e-09
3.184357904e-09
3.51539676e-09
4.009086516e-09
3.914341081e-09
3.468030422e-09
3.517722173e-09
3.625788539e-09
3.575415966e-09
3.31335857e-09
2.733784829e-09
2.180634333e-09
1.88113994e-09
1.651012269e-09
1.428211183e-09
9.998812356e-10
6.721595631e-10
5.729065015e-10
4.5428077e-10
3.420446692e-10
2.634806372e-10
2.131221783e-10
1.836655006e-10
1.636074385e-10
1.44394254e-10
1.30181202e-10
1.188109374e-10
1.068173548e-10
9.825560155e-11
8.871144595e-11
7.5343666e-11
6.575351878e-11
6.290919574e-11
5.938562853e-11
5.340705602e-11
4.508079011e-11
4.037700977e-11
3.734694465e-11
3.109414023e-11
2.635595218e-11
2.011337971e-11
9.664746449e-12
-2.385309049e-12
-8.753793276e-12
-3.314399944e-11
-6.17230348e-11
-7.118382443e-11
-9.878940196e-11
-1.209153013e-08
-2.369720353e-08
)


100
(
-1.05843346e-08
-9.254002782e-09
-6.73014657e-09
-5.129324854e-09
-3.894805928e-09
-2.845431767e-09
-2.018356543e-09
-1.350549461e-09
-7.996911014e-10
-3.529278079e-10
7.226354364e-11
3.859626535e-10
6.132002033e-10
8.246552574e-10
9.599384515e-10
1.039358885e-09
1.096409632e-09
1.125665861e-09
1.141785931e-09
1.160650253e-09
1.155818898e-09
1.113989411e-09
1.096888798e-09
1.116227625e-09
1.106778087e-09
1.052491533e-09
1.015226872e-09
1.031626429e-09
1.068266849e-09
1.073673458e-09
1.071767948e-09
1.106497622e-09
1.178447865e-09
1.237085663e-09
1.273242406e-09
1.331857102e-09
1.373406658e-09
1.411493638e-09
1.465939392e-09
1.501430475e-09
1.55371373e-09
1.655453675e-09
1.808904556e-09
2.074981425e-09
2.261801965e-09
2.385836713e-09
2.694581049e-09
3.105052325e-09
3.534238736e-09
4.058733097e-09
4.179062736e-09
3.8923701e-09
3.803988146e-09
3.954892901e-09
4.080739471e-09
3.921348694e-09
3.179677085e-09
2.563642911e-09
2.342864014e-09
1.891849173e-09
1.548832697e-09
1.234381665e-09
8.429105056e-10
5.970881432e-10
5.129261728e-10
4.285675662e-10
3.189120395e-10
2.403211455e-10
2.000838775e-10
1.753873376e-10
1.566377693e-10
1.388774004e-10
1.230753098e-10
1.11230955e-10
1.028609833e-10
9.523535507e-11
8.28991307e-11
7.199279119e-11
6.507986842e-11
5.915809836e-11
5.461549129e-11
5.282269939e-11
5.001755909e-11
4.043499146e-11
3.336830604e-11
3.453400616e-11
3.390224416e-11
2.707716989e-11
1.998604859e-11
1.626736776e-11
1.358749213e-11
5.783679333e-12
-4.351651438e-12
-6.936858417e-12
-2.459285236e-11
-4.433466943e-11
-4.950687614e-11
-6.847140017e-11
-1.064849e-08
-2.090894816e-08
)


100
(
-1.027483387e-08
-9.079514211e-09
-6.771571547e-09
-5.309680848e-09
-4.154156203e-09
-3.125391252e-09
-2.290294456e-09
-1.621011798e-09
-1.017063704e-09
-5.348225266e-10
-1.262420667e-10
2.635676061e-10
5.152853563e-10
6.880438319e-10
8.584981097e-10
9.560097791e-10
1.010733739e-09
1.05585405e-09
1.073309759e-09
1.085390776e-09
1.107431573e-09
1.108418448e-09
1.07376245e-09
1.058684751e-09
1.082475956e-09
1.089913532e-09
1.06705234e-09
1.061184613e-09
1.105193433e-09
1.172996167e-09
1.229435591e-09
1.305450583e-09
1.400056774e-09
1.484950969e-09
1.570670884e-09
1.606229309e-09
1.66220299e-09
1.757996102e-09
1.872973996e-09
2.088536304e-09
2.250840698e-09
2.291519203e-09
2.500225706e-09
2.868906757e-09
3.266813027e-09
3.774596522e-09
4.077176566e-09
4.113316541e-09
4.230166601e-09
4.330237092e-09
4.48897938e-09
4.580128978e-09
3.835374593e-09
3.047530063e-09
2.923255509e-09
2.659028044e-09
2.154537855e-09
1.661415636e-09
1.149274633e-09
7.831865246e-10
6.10519221e-10
5.122822957e-10
4.340530477e-10
3.000350885e-10
2.256700351e-10
2.129781622e-10
1.852160798e-10
1.615207949e-10
1.413748546e-10
1.264831674e-10
1.153656343e-10
1.015505467e-10
8.651615382e-11
7.653547715e-11
7.058901415e-11
6.567230173e-11
6.086448664e-11
5.516052597e-11
5.110907725e-11
4.840454701e-11
4.159832901e-11
3.574436113e-11
3.33880779e-11
3.134584598e-11
3.155114466e-11
2.822268058e-11
2.210473706e-11
1.724375315e-11
1.584002812e-11
1.388060597e-11
1.341524615e-11
2.890833377e-12
-5.792439963e-12
-2.604344223e-12
-2.094140002e-11
-3.578387703e-11
-3.644186425e-11
-4.718111847e-11
-9.157443851e-09
-1.8018643e-08
)


100
(
-9.957366208e-09
-8.882437275e-09
-6.771562146e-09
-5.473592371e-09
-4.378859755e-09
-3.386958281e-09
-2.546478734e-09
-1.858906004e-09
-1.266165552e-09
-7.109445542e-10
-2.884706933e-10
8.02621868e-11
4.012072359e-10
5.840237974e-10
7.096458357e-10
8.441747231e-10
9.202657167e-10
9.638887756e-10
1.004263734e-09
1.018227168e-09
1.032806868e-09
1.060653319e-09
1.070442393e-09
1.054270101e-09
1.056208313e-09
1.096033443e-09
1.13461321e-09
1.171433005e-09
1.237635897e-09
1.345206129e-09
1.497386792e-09
1.579700591e-09
1.641043211e-09
1.760778127e-09
1.868808644e-09
2.055785857e-09
2.199464911e-09
2.247896822e-09
2.390217282e-09
2.675077975e-09
3.033113685e-09
3.489487254e-09
3.701247107e-09
3.815780899e-09
4.166891839e-09
4.482428688e-09
4.714265723e-09
5.138944123e-09
4.784030261e-09
3.929623074e-09
3.638209726e-09
3.407800438e-09
3.038314098e-09
2.43420605e-09
1.752526452e-09
1.252089962e-09
9.684606466e-10
7.058683362e-10
5.587913221e-10
4.253297302e-10
2.832542935e-10
2.391013997e-10
2.318959502e-10
2.068798437e-10
1.75770207e-10
1.465098724e-10
1.240852989e-10
1.107735673e-10
1.013556285e-10
9.086423187e-11
8.051715075e-11
7.467843455e-11
6.928155562e-11
6.258963063e-11
5.762742781e-11
5.271140354e-11
4.509033336e-11
3.917771595e-11
3.641136687e-11
3.481540787e-11
3.328996362e-11
3.031123185e-11
2.800031075e-11
2.44964685e-11
2.231821466e-11
2.125114184e-11
1.850573689e-11
1.543520929e-11
1.202512384e-11
1.022967508e-11
9.995889464e-12
2.369550319e-12
-3.798454395e-12
-3.784913493e-12
-1.606444512e-11
-2.762674525e-11
-2.845407416e-11
-3.404591838e-11
-8.147131438e-09
-1.605929911e-08
)


100
(
-9.50111013e-09
-8.593032863e-09
-6.752548797e-09
-5.586918768e-09
-4.556599276e-09
-3.62255942e-09
-2.813245848e-09
-2.08133632e-09
-1.482551882e-09
-9.097548839e-10
-4.339238107e-10
-9.545393556e-11
2.229056157e-10
4.696311999e-10
5.974662196e-10
6.940464782e-10
8.025000878e-10
8.718779645e-10
9.136959111e-10
9.524820322e-10
9.700409303e-10
9.981658362e-10
1.036065249e-09
1.059899633e-09
1.08664623e-09
1.135580172e-09
1.24733329e-09
1.344248939e-09
1.438397632e-09
1.591752125e-09
1.743671642e-09
1.937905352e-09
2.086641338e-09
2.127672633e-09
2.235601822e-09
2.460715649e-09
2.771055724e-09
3.198487624e-09
3.368794947e-09
3.405838435e-09
3.797189185e-09
4.283414764e-09
4.711686706e-09
5.169407314e-09
5.168015572e-09
4.748511807e-09
4.499920001e-09
4.337905392e-09
4.162606114e-09
3.723836292e-09
2.73364476e-09
1.957565856e-09
1.642955794e-09
1.252108887e-09
8.811785496e-10
6.339225538e-10
4.494540567e-10
3.112097508e-10
2.681674337e-10
2.496449603e-10
2.240127759e-10
1.731201554e-10
1.434935118e-10
1.381931519e-10
1.220363298e-10
1.088864086e-10
9.688060035e-11
8.692727754e-11
7.900551228e-11
7.150306345e-11
6.615645761e-11
5.826926405e-11
5.027173473e-11
4.646774619e-11
4.242185757e-11
3.840977796e-11
3.506501164e-11
3.387474365e-11
3.318009147e-11
2.848140844e-11
2.366251872e-11
2.099017346e-11
2.181155198e-11
2.289452839e-11
2.044250564e-11
1.666675896e-11
1.306721267e-11
1.145694997e-11
1.053511845e-11
8.353940828e-12
2.018447438e-12
1.90853262e-12
3.488151076e-12
-4.549608891e-12
-1.397818354e-11
-2.001707907e-11
-2.319074718e-11
-2.754139323e-11
-7.64424193e-09
-1.508788781e-08
)


100
(
-8.971783621e-09
-8.248082399e-09
-6.692870672e-09
-5.648718617e-09
-4.725557917e-09
-3.821397034e-09
-3.033702545e-09
-2.297413732e-09
-1.66722602e-09
-1.144686345e-09
-5.902286178e-10
-2.254047395e-10
1.356546409e-11
2.934101963e-10
4.855040644e-10
5.785938526e-10
6.606535226e-10
7.510041764e-10
8.250103103e-10
8.730450539e-10
9.111325133e-10
9.487996216e-10
1.000424803e-09
1.075789866e-09
1.144281266e-09
1.239276905e-09
1.383990435e-09
1.580392924e-09
1.791968436e-09
1.907110555e-09
2.034556336e-09
2.23195852e-09
2.48104596e-09
2.863029144e-09
2.960443098e-09
2.962501403e-09
3.343224396e-09
3.832717754e-09
4.327407601e-09
4.908223608e-09
4.985943666e-09
4.86431512e-09
5.059405334e-09
5.107973051e-09
5.172273999e-09
5.176006542e-09
4.182419542e-09
3.061413508e-09
2.699584867e-09
2.273384918e-09
1.733978139e-09
1.216270525e-09
7.860301949e-10
5.190210871e-10
3.899361697e-10
3.155219686e-10
2.839855243e-10
2.282779605e-10
1.684068202e-10
1.606376924e-10
1.575184722e-10
1.389610456e-10
1.208142938e-10
1.046844456e-10
9.038360787e-11
7.92925475e-11
7.266941655e-11
6.470011337e-11
5.78057324e-11
5.431260614e-11
5.056410735e-11
4.650842461e-11
4.305292349e-11
3.926778823e-11
3.601912361e-11
3.125295897e-11
2.623247312e-11
2.462061752e-11
2.424221311e-11
2.292098323e-11
2.190881127e-11
2.0255671e-11
1.745256305e-11
1.665727348e-11
1.51572858e-11
1.283456749e-11
1.173788288e-11
1.000188391e-11
9.079760926e-12
6.947318965e-12
3.006861659e-12
2.160666622e-12
1.451780138e-12
-2.58017248e-12
-1.197689348e-11
-1.821992308e-11
-1.893039195e-11
-2.289361635e-11
-7.327992238e-09
-1.447918834e-08
)


100
(
-8.507162438e-09
-7.907621367e-09
-6.563621173e-09
-5.651798184e-09