/*--------------------------------*- C++ -*----------------------------------*\
| =========                 |                                                 |
| \\      /  F ield         | OpenFOAM: The Open Source CFD Toolbox           |
|  \\    /   O peration     | Version:  2.3.1                                 |
|   \\  /    A nd           | Web:      www.OpenFOAM.org                      |
|    \\/     M anipulation  |                                                 |
\*---------------------------------------------------------------------------*/
FoamFile
{
    version     2.0;
    format      ascii;
    class       dictionary;
    location    "constant";
    object      DPSI38;
}
// * * * * * * * * * * * * * * * * * * * * * * * * * * * * * * * * * * * * * //

DPSI38_table
100
(

100
(
-8.569916946e-08
-6.691361081e-08
-3.893021873e-08
-2.517842711e-08
-1.633944162e-08
-9.548140176e-09
-4.649752623e-09
-4.97367294e-10
3.51786519e-09
6.005373876e-09
9.763369746e-09
1.307353713e-08
1.344328082e-08
1.672415555e-08
1.892727528e-08
1.849414503e-08
2.136540192e-08
2.382310437e-08
2.306782302e-08
2.499757101e-08
2.774322643e-08
2.789648398e-08
2.812546713e-08
3.07259825e-08
3.235845481e-08
3.16282228e-08
3.220217975e-08
3.446027503e-08
3.536247251e-08
3.4608902e-08
3.578477088e-08
3.801647722e-08
3.83549528e-08
3.760112557e-08
3.768257251e-08
3.94119441e-08
4.016284232e-08
3.927904971e-08
3.920229045e-08
4.064232703e-08
4.12619726e-08
4.039738632e-08
4.031065367e-08
4.166796193e-08
4.225076423e-08
4.144840985e-08
4.078292258e-08
4.18157165e-08
4.257128462e-08
4.177517084e-08
4.139346135e-08
4.234038789e-08
4.287308605e-08
4.213791152e-08
4.20967449e-08
4.295537823e-08
4.309372886e-08
4.232465396e-08
4.202041409e-08
4.242527291e-08
4.230018291e-08
4.145720105e-08
4.112963689e-08
4.125597156e-08
4.083689362e-08
3.994570308e-08
3.976711787e-08
3.963507763e-08
3.884239133e-08
3.817736728e-08
3.792001961e-08
3.735179458e-08
3.648557334e-08
3.608136619e-08
3.549756884e-08
3.460232582e-08
3.403684022e-08
3.330185343e-08
3.243468361e-08
3.167112261e-08
3.073559601e-08
2.9877429e-08
2.891688637e-08
2.792247038e-08
2.687777452e-08
2.581826566e-08
2.469682337e-08
2.355714829e-08
2.237601081e-08
2.11599282e-08
1.992142573e-08
1.863548012e-08
1.730291852e-08
1.592835525e-08
1.452149393e-08
1.305725702e-08
1.151620624e-08
9.931436147e-09
8.103240259e-09
6.955179228e-09
)


100
(
-8.685307568e-08
-6.825086317e-08
-4.041359781e-08
-2.692717468e-08
-1.838706031e-08
-1.153106037e-08
-6.558685644e-09
-2.512475205e-09
1.389404089e-09
4.325955032e-09
7.389420089e-09
1.077725595e-08
1.232108268e-08
1.428980256e-08
1.688075276e-08
1.786117181e-08
1.880627223e-08
2.135505919e-08
2.282526613e-08
2.321293448e-08
2.502534996e-08
2.701476056e-08
2.767570603e-08
2.815247227e-08
3.029542672e-08
3.189680329e-08
3.183839014e-08
3.183939354e-08
3.381085234e-08
3.543264276e-08
3.523253319e-08
3.546572703e-08
3.720550414e-08
3.861972063e-08
3.840427295e-08
3.791433938e-08
3.850116434e-08
4.019755022e-08
4.055169756e-08
3.978925301e-08
3.973199755e-08
4.115947256e-08
4.190223439e-08
4.131477366e-08
4.103389338e-08
4.225966511e-08
4.327188446e-08
4.274030955e-08
4.198070317e-08
4.230505982e-08
4.377324342e-08
4.3950626e-08
4.30659486e-08
4.310220821e-08
4.424705208e-08
4.457333325e-08
4.388427988e-08
4.390419287e-08
4.45544656e-08
4.498944632e-08
4.3039799e-08
4.244187854e-08
4.540398243e-08
4.535909413e-08
4.171005777e-08
4.130956963e-08
4.528378545e-08
4.326337948e-08
3.966241332e-08
4.185395592e-08
4.323434952e-08
3.972579383e-08
3.855007578e-08
4.158670483e-08
3.933554946e-08
3.664272881e-08
3.922888383e-08
3.824415706e-08
3.547141236e-08
3.695391364e-08
3.563963922e-08
3.400086373e-08
3.423313611e-08
3.25296461e-08
3.209390851e-08
3.123790785e-08
2.978726676e-08
2.887076744e-08
2.761646926e-08
2.648964175e-08
2.486058446e-08
2.308974398e-08
2.158583297e-08
1.993368016e-08
1.850514955e-08
1.740735638e-08
1.752809563e-08
4.506011274e-08
7.109255034e-08
7.031016309e-08
)


100
(
-8.773219008e-08
-6.944267691e-08
-4.179466177e-08
-2.876895217e-08
-2.029290404e-08
-1.349577512e-08
-8.454515026e-09
-4.368668408e-09
-7.231554417e-10
2.50229753e-09
5.357067809e-09
8.43047201e-09
1.079986966e-08
1.245224787e-08
1.453058932e-08
1.65344226e-08
1.767217751e-08
1.869394099e-08
2.087520613e-08
2.268059306e-08
2.329803754e-08
2.455505373e-08
2.655582214e-08
2.776344637e-08
2.818217212e-08
2.961568741e-08
3.144711437e-08
3.212862985e-08
3.210570583e-08
3.293858509e-08
3.486738134e-08
3.582148343e-08
3.574880193e-08
3.635000983e-08
3.803986939e-08
3.909956751e-08
3.885513854e-08
3.829956818e-08
3.899108323e-08
4.075058148e-08
4.108691816e-08
4.038898853e-08
3.993747569e-08
4.152054202e-08
4.286486882e-08
4.232009679e-08
4.191273377e-08
4.26222013e-08
4.40178862e-08
4.428779085e-08
4.368535326e-08
4.271386763e-08
4.417879285e-08
4.589130692e-08
4.541235873e-08
4.310383934e-08
4.44157105e-08
4.702901063e-08
4.610561989e-08
4.370763479e-08
4.490487635e-08
4.489360844e-08
4.255157962e-08
4.561516472e-08
4.768082313e-08
4.4423305e-08
4.160995144e-08
4.581667423e-08
4.606552498e-08
4.22133132e-08
4.190585738e-08
4.410170969e-08
4.387531049e-08
4.06634598e-08
4.004746012e-08
4.122681816e-08
4.023106014e-08
3.817481485e-08
3.946779029e-08
3.899143925e-08
3.767122655e-08
3.58781184e-08
3.530624552e-08
3.539946191e-08
3.309456461e-08
3.262536718e-08
3.169567043e-08
2.960073667e-08
2.807391932e-08
2.647777501e-08
2.50403703e-08
2.297487369e-08
2.018804263e-08
1.91293922e-08
1.822061183e-08
1.657890487e-08
3.350516397e-08
8.589512978e-08
1.160103467e-07
1.099619286e-07
)


100
(
-8.835621397e-08
-7.039891629e-08
-4.33419101e-08
-3.040268044e-08
-2.182477361e-08
-1.54059086e-08
-1.035109639e-08
-6.225608684e-09
-2.739152731e-09
5.444123182e-10
3.459022067e-09
6.140424285e-09
8.816726288e-09
1.098459568e-08
1.247548751e-08
1.439009655e-08
1.637401808e-08
1.750705021e-08
1.831424254e-08
2.055131065e-08
2.262607451e-08
2.320315659e-08
2.39972933e-08
2.610444928e-08
2.779733101e-08
2.815257405e-08
2.889219991e-08
3.083772736e-08
3.230148988e-08
3.240147688e-08
3.234565718e-08
3.399319061e-08
3.593293401e-08
3.617953544e-08
3.614700971e-08
3.699242201e-08
3.873812089e-08
3.961757608e-08
3.924799972e-08
3.850601853e-08
3.900057435e-08
4.110048302e-08
4.192210577e-08
4.129631565e-08
3.987033691e-08
4.161441883e-08
4.405250039e-08
4.348783913e-08
4.07478936e-08
4.242066504e-08
4.623986199e-08
4.556774199e-08
4.229588293e-08
4.278544328e-08
4.710383045e-08
4.717505479e-08
4.230479959e-08
4.251333251e-08
4.816853829e-08
4.684790024e-08
4.244860152e-08
4.453867912e-08
4.609319317e-08
4.40692916e-08
4.481310677e-08
4.691669788e-08
4.643800767e-08
4.425986171e-08
4.349553543e-08
4.452405601e-08
4.504475213e-08
4.358590278e-08
4.1861432e-08
4.119461018e-08
4.208080029e-08
4.238294543e-08
4.011556282e-08
3.798001446e-08
4.002871879e-08
3.96091277e-08
3.646521933e-08
3.619388987e-08
3.612041515e-08
3.463212337e-08
3.233035625e-08
3.083913845e-08
2.970696132e-08
2.858365227e-08
2.647383695e-08
2.348946598e-08
2.213362045e-08
2.070268104e-08
1.846673553e-08
1.586571242e-08
1.34710732e-08
1.436337757e-08
6.253447619e-08
1.285791875e-07
1.480305826e-07
1.443072443e-07
)


100
(
-8.889740411e-08
-7.123849197e-08
-4.44760133e-08
-3.16616422e-08
-2.354100174e-08
-1.71616921e-08
-1.212499851e-08
-8.043169175e-09
-4.575622375e-09
-1.463428668e-09
1.543103404e-09
4.219521028e-09
6.586178583e-09
9.054898611e-09
1.10194486e-08
1.231622256e-08
1.418212363e-08
1.619086711e-08
1.729430784e-08
1.80878235e-08
2.017296245e-08
2.229619807e-08
2.30379465e-08
2.354152662e-08
2.54995359e-08
2.756447449e-08
2.812433042e-08
2.844079563e-08
2.994712513e-08
3.190469033e-08
3.260921739e-08
3.254926872e-08
3.265074e-08
3.487829279e-08
3.680941407e-08
3.667265351e-08
3.564045939e-08
3.741967062e-08
4.024061239e-08
4.001597601e-08
3.869732246e-08
3.760564227e-08
4.020204731e-08
4.269516899e-08
4.107857588e-08
3.691868845e-08
4.013131933e-08
4.554751538e-08
4.308798883e-08
3.87662523e-08
4.143452238e-08
4.68921355e-08
4.504751605e-08
4.10244102e-08
4.285440446e-08
4.788350078e-08
4.538642903e-08
4.128544496e-08
4.302059831e-08
4.634096473e-08
4.597047644e-08
4.342428488e-08
4.355392052e-08
4.54055138e-08
4.584948946e-08
4.495501957e-08
4.329517048e-08
4.397904504e-08
4.565558263e-08
4.45648597e-08
4.292769892e-08
4.144335743e-08
4.1920328e-08
4.29307163e-08
4.118058846e-08
3.875199631e-08
3.966003064e-08
4.073067838e-08
3.85930424e-08
3.600798316e-08
3.544593297e-08
3.57250063e-08
3.358163215e-08
3.066838125e-08
3.047664667e-08
2.873234273e-08
2.541765202e-08
2.403998568e-08
2.111123273e-08
2.080912576e-08
1.985009889e-08
1.614406509e-08
1.358039527e-08
9.906411655e-09
7.467671449e-09
1.645508592e-08
9.600669593e-08
1.698315917e-07
1.773474073e-07
1.756169021e-07
)


100
(
-8.918723598e-08
-7.19001387e-08
-4.551986841e-08
-3.288806172e-08
-2.515304312e-08
-1.881827236e-08
-1.38416303e-08
-9.86947022e-09
-6.378408162e-09
-3.379673102e-09
-4.605287681e-10
2.296545709e-09
4.671506497e-09
6.858635603e-09
9.143638109e-09
1.089159488e-08
1.208107875e-08
1.386946578e-08
1.588757965e-08
1.707854751e-08
1.786771429e-08
1.957592555e-08
2.170053889e-08
2.278978933e-08
2.332832159e-08
2.472469963e-08
2.690813577e-08
2.818463687e-08
2.847270139e-08
2.891845024e-08
3.103078987e-08
3.286145165e-08
3.268889445e-08
3.144227207e-08
3.37267011e-08
3.691409863e-08
3.673679916e-08
3.32409396e-08
3.508293605e-08
4.033447933e-08
4.003864921e-08
3.668302269e-08
3.565143056e-08
4.04823367e-08
4.327419967e-08
3.851264793e-08
3.377501767e-08
4.037566436e-08
4.573782299e-08
4.100270549e-08
3.752831409e-08
4.117811632e-08
4.49119264e-08
4.304912599e-08
4.083649939e-08
4.247827689e-08
4.374614631e-08
4.387603874e-08
4.419467137e-08
4.257427852e-08
4.208217165e-08
4.45602114e-08
4.585933899e-08
4.392639701e-08
4.172353902e-08
4.239816122e-08
4.484293168e-08
4.436205333e-08
4.267978744e-08
4.130573731e-08
4.16699849e-08
4.249218506e-08
4.126200645e-08
3.754934426e-08
3.804300104e-08
4.04047815e-08
3.836854136e-08
3.588223022e-08
3.430902416e-08
3.544547619e-08
3.454436655e-08
2.897154845e-08
2.903707438e-08
2.941153381e-08
2.49004702e-08
2.376326625e-08
2.273997019e-08
1.838719265e-08
1.750849074e-08
1.803281473e-08
1.248613238e-08
9.675093554e-09
6.72747452e-09
2.538904345e-09
1.581527302e-09
3.211319336e-08
1.304205059e-07
1.987962303e-07
2.033864585e-07
2.016901974e-07
)


100
(
-8.960000139e-08
-7.262301588e-08
-4.646138364e-08
-3.434129466e-08
-2.658481525e-08
-2.030759532e-08
-1.545032245e-08
-1.156134785e-08
-8.1347197e-09
-5.13447329e-09
-2.405600015e-09
3.067464959e-10
2.781553947e-09
4.908364944e-09
6.944806809e-09
9.060206756e-09
1.065834819e-08
1.17588964e-08
1.338004802e-08
1.541997615e-08
1.676305794e-08
1.747235392e-08
1.863635677e-08
2.077498437e-08
2.23995135e-08
2.306312343e-08
2.466138596e-08
2.705475553e-08
2.813124728e-08
2.758345977e-08
2.714837803e-08
2.995426672e-08
3.264987071e-08
3.147880508e-08
2.957125919e-08
3.286290677e-08
3.690717046e-08
3.47073216e-08
3.069235248e-08
3.424753299e-08
3.992091509e-08
3.830518386e-08
3.427299905e-08
3.474623621e-08
4.079032919e-08
4.03521774e-08
3.553470841e-08
3.417730358e-08
3.964402097e-08
4.210888384e-08
3.847477085e-08
3.771855875e-08
3.860301591e-08
4.16247214e-08
4.276190986e-08
4.197932521e-08
4.078969556e-08
4.051602232e-08
4.275716581e-08
4.426033044e-08
4.299680875e-08
4.101224292e-08
3.93839505e-08
4.195966411e-08
4.410194161e-08
4.197618368e-08
4.089353906e-08
3.861460724e-08
3.905403896e-08
4.168821358e-08
4.029543312e-08
3.664485791e-08
3.62708066e-08
3.859066898e-08
3.688740086e-08
3.510748812e-08
3.373669774e-08
3.394125696e-08
3.350755961e-08
2.842901114e-08
2.826874635e-08
2.838219827e-08
2.467729653e-08
2.318453497e-08
2.21627124e-08
1.900846393e-08
1.644284588e-08
1.455560014e-08
1.216249105e-08
1.005144206e-08
7.851835801e-09
3.263349725e-09
-1.880308883e-09
-4.690159366e-09
-6.412206167e-09
5.052135349e-08
1.642236979e-07
2.151216775e-07
2.216413957e-07
2.289659173e-07
)


100
(
-8.995119246e-08
-7.33433627e-08
-4.750751934e-08
-3.561578454e-08
-2.776850467e-08
-2.180315452e-08
-1.699066625e-08
-1.313276639e-08
-9.96406203e-09
-6.876021832e-09
-4.196821668e-09
-1.657731972e-09
8.175789018e-10
3.054160021e-09
4.955717125e-09
6.814944423e-09
8.796775588e-09
1.030292775e-08
1.129479212e-08
1.265558463e-08
1.470536778e-08
1.623553025e-08
1.682247367e-08
1.738424939e-08
1.956149208e-08
2.182937236e-08
2.277969576e-08
2.485641838e-08
2.725587536e-08
2.781633095e-08
2.542139855e-08
2.52299017e-08
2.974170158e-08
3.214092825e-08
2.921503943e-08
2.749127532e-08
3.259704278e-08
3.608395369e-08
3.19594264e-08
2.848086966e-08
3.33478733e-08
3.82511346e-08
3.553593468e-08
3.218985693e-08
3.424904716e-08
3.769635994e-08
3.678645146e-08
3.464420996e-08
3.43208535e-08
3.599385142e-08
3.879800509e-08
3.976343363e-08
3.929994153e-08
3.757209795e-08
3.56204988e-08
3.900980142e-08
4.234626776e-08
4.0669027e-08
3.888597279e-08
3.804194025e-08
4.058761827e-08
4.21510355e-08
4.026605154e-08
3.930274107e-08
3.755490958e-08
3.627499805e-08
3.879513646e-08
4.072300561e-08
3.669969844e-08
3.242155838e-08
3.469683574e-08
3.659631197e-08
3.516128004e-08
3.344073867e-08
3.078091278e-08
3.25616344e-08
3.194793939e-08
2.627101007e-08
2.629027742e-08
2.686202726e-08
2.425189498e-08
2.268804682e-08
2.17059917e-08
1.941659583e-08
1.516374433e-08
1.319274474e-08
1.309247507e-08
1.0743385e-08
5.928467233e-09
1.57678439e-09
-6.084753701e-10
-3.478557337e-09
-7.253629299e-09
-1.098506852e-08
-1.130586106e-08
7.112158363e-08
1.895324082e-07
2.243978551e-07
2.3192788e-07
2.387746563e-07
)


100
(
-9.007468434e-08
-7.393287093e-08
-4.849456551e-08
-3.663817361e-08
-2.898699933e-08
-2.314244918e-08
-1.849094739e-08
-1.461988407e-08
-1.151784935e-08
-8.607960475e-09
-5.901351307e-09
-3.52512835e-09
-1.194363701e-09
1.078879996e-09
3.122928589e-09
4.792058374e-09
6.428260087e-09
8.303423754e-09
9.795052783e-09
1.06706903e-08
1.168242067e-08
1.377781743e-08
1.56251328e-08
1.616164368e-08
1.642696423e-08
1.816904988e-08
2.078229955e-08
2.247896866e-08
2.502287445e-08
2.733120388e-08
2.657045283e-08
2.297035049e-08
2.37488941e-08
2.929301416e-08
3.015168229e-08
2.665189679e-08
2.632607238e-08
3.218376978e-08
3.318660441e-08
2.895658287e-08
2.775168897e-08
3.181191857e-08
3.453875317e-08
3.233732624e-08
3.114534661e-08
3.168257932e-08
3.428238808e-08
3.600049632e-08
3.583344393e-08
3.502194538e-08
3.336133301e-08
3.363980855e-08
3.709292049e-08
3.915822039e-08
3.724143732e-08
3.499067566e-08
3.41849185e-08
3.645469814e-08
3.898971599e-08
3.786629278e-08
3.709196649e-08
3.587523455e-08
3.487234064e-08
3.695045653e-08
3.810096359e-08
3.531204476e-08
3.171852445e-08
3.209290547e-08
3.506587249e-08
3.415040989e-08
3.223924205e-08
2.889569331e-08
2.823640519e-08
3.263198388e-08
2.874130675e-08
2.234364715e-08
2.380167042e-08
2.522019224e-08
2.291725418e-08
2.110130555e-08
2.009468108e-08
1.866715456e-08
1.499280262e-08
1.256467971e-08
1.266514512e-08
1.113614236e-08
7.830569305e-09
2.198239337e-09
-1.150203259e-09
-2.297748822e-09
-5.279518603e-09
-1.02582656e-08
-1.544023988e-08
-1.652017055e-08
-1.112701724e-08
9.024501631e-08
2.062703924e-07
2.277736231e-07
2.402722269e-07
2.487447455e-07
)


100
(
-9.017049627e-08
-7.435379536e-08
-4.918754413e-08
-3.740925364e-08
-3.024489755e-08
-2.438083367e-08
-1.984068273e-08
-1.612858041e-08
-1.298623606e-08
-1.037007127e-08
-7.59168533e-09
-5.199458802e-09
-3.098130524e-09
-1.015778183e-09
1.085548042e-09
2.969609517e-09
4.388343346e-09
5.768167467e-09
7.628323673e-09
9.223415431e-09
1.00198631e-08
1.066131267e-08
1.273974541e-08
1.493859147e-08
1.554692051e-08
1.568340292e-08
1.662416623e-08
1.935668554e-08
2.20137491e-08
2.496398785e-08
2.708000895e-08
2.411478092e-08
2.038125701e-08
2.295969793e-08
2.830773292e-08
2.736595942e-08
2.402305651e-08
2.541031828e-08
2.960489309e-08
2.977078402e-08
2.723069275e-08
2.652017002e-08
2.831876761e-08
3.151017006e-08
3.22174332e-08
3.164364127e-08
3.046174223e-08
2.955980817e-08
3.224068337e-08
3.491137211e-08
3.436169539e-08
3.275232505e-08
3.132603099e-08
3.183129608e-08
3.52786781e-08
3.622503981e-08
3.412709979e-08
3.335589128e-08
3.183180284e-08
3.124575153e-08
3.415606028e-08
3.600942751e-08
3.289794006e-08
2.9212839e-08
3.013002348e-08
3.335494256e-08
3.244967559e-08
3.023998924e-08
2.877717762e-08
2.65986294e-08
2.889249941e-08
2.953400675e-08
2.349349673e-08
1.967050118e-08
2.22025985e-08
2.31015448e-08
2.027831001e-08
1.888185853e-08
1.808102617e-08
1.659414696e-08
1.359680835e-08
1.236754067e-08
1.258839974e-08
1.045281941e-08
7.418602818e-09
3.800090397e-09
-1.128070021e-09
-2.569638406e-09
-4.403189145e-09
-8.012239447e-09
-1.172634564e-08
-1.451653216e-08
-1.800935528e-08
-2.181854603e-08
-9.208520465e-09
1.126176005e-07
2.191037992e-07
2.245215844e-07
2.464361295e-07
2.591546154e-07
)


100
(
-9.002048823e-08
-7.459573297e-08
-4.979155969e-08
-3.839112615e-08
-3.132678348e-08
-2.551950133e-08
-2.107207949e-08
-1.759070528e-08
-1.440148287e-08
-1.179166251e-08
-9.391613168e-09
-6.896509128e-09
-4.783231714e-09
-2.923597439e-09
-1.120098576e-09
8.405771525e-10
2.610489258e-09
3.828675386e-09
4.978430212e-09
6.885058478e-09
8.673209508e-09
9.41758425e-09
9.920195057e-09
1.15702349e-08
1.384585244e-08
1.490290758e-08
1.494609246e-08
1.515307816e-08
1.76724919e-08
2.094423651e-08
2.443301495e-08
2.537801618e-08
2.132760527e-08
1.865569275e-08
2.189740069e-08
2.539501702e-08
2.430043393e-08
2.27432302e-08
2.350672578e-08
2.590288466e-08
2.763970533e-08
2.772972277e-08
2.704546294e-08
2.553752188e-08
2.654739091e-08
2.984390308e-08
3.092980186e-08
2.944065431e-08
2.762467759e-08
2.730043997e-08
3.048525769e-08
3.301846164e-08
3.16983429e-08
3.029879555e-08
2.943769422e-08
2.823111775e-08
3.014014241e-08
3.279135259e-08
3.196106835e-08
2.914600204e-08
2.56767608e-08
2.723580934e-08
3.147605527e-08
3.022836122e-08
2.673668983e-08
2.665239642e-08
2.589189553e-08
2.725476215e-08
2.944983267e-08
2.303002144e-08
1.642396789e-08
2.051206069e-08
2.257801445e-08
1.888743483e-08
1.697949121e-08
1.606682854e-08
1.554629696e-08
1.388767047e-08
1.22999575e-08
1.212464977e-08
1.146057349e-08
9.140643252e-09
6.714044391e-09
3.822860675e-09
-5.210241338e-10
-1.378877873e-10
-1.437627219e-09
-7.983875195e-09
-1.062895063e-08
-1.386444199e-08
-1.670478235e-08
-1.900226455e-08
-2.260423843e-08
-2.589128186e-08
7.117276835e-09
1.432384853e-07
2.219630281e-07
2.179152891e-07
2.465443125e-07
2.57060834e-07
)


100
(
-8.99457336e-08
-7.484063752e-08
-5.032819445e-08
-3.935012888e-08
-3.227812848e-08
-2.666031967e-08
-2.220223454e-08
-1.881611619e-08
-1.601210694e-08
-1.320205766e-08
-1.091050676e-08
-8.652182378e-09
-6.487775589e-09
-4.645943418e-09
-3.006379736e-09
-1.428207709e-09
4.345632446e-10
2.141197148e-09
3.22764266e-09
4.179845417e-09
6.096990389e-09
8.052539337e-09
8.801469172e-09
9.19738882e-09
1.028040635e-08
1.255764561e-08
1.415211545e-08
1.422163329e-08
1.430452103e-08
1.574053187e-08
1.906092689e-08
2.349703269e-08
2.228203111e-08
1.810114464e-08
1.733655974e-08
1.944233549e-08
2.193581805e-08
2.257650149e-08
2.268059241e-08
2.198770881e-08
2.274916091e-08
2.521020102e-08
2.647957474e-08
2.596799322e-08
2.424984155e-08
2.284331779e-08
2.509206708e-08
2.876304644e-08
2.836211437e-08
2.639017147e-08
2.573805956e-08
2.507336416e-08
2.660256321e-08
2.896821448e-08
2.90678769e-08
2.807828643e-08
2.445664368e-08
2.188732493e-08
2.650246827e-08
2.973612209e-08
2.663395794e-08
2.35968147e-08
2.246030385e-08
2.337779982e-08
2.612124995e-08
2.697292782e-08
2.158640917e-08
1.512389547e-08
2.069159543e-08
2.285534581e-08
1.640609185e-08
1.508798345e-08
1.440099693e-08
1.337250685e-08
1.203591963e-08
1.143174513e-08
1.262931313e-08
1.228312787e-08
9.748062324e-09
7.003359115e-09
4.374122009e-09
2.286320033e-09
-2.323139665e-10
2.895100525e-10
-6.558870241e-10
-3.188644235e-09
-9.067987985e-09
-1.243751432e-08
-1.375702986e-08
-1.920940654e-08
-2.086692925e-08
-2.288108384e-08
-2.514547429e-08
-2.884507045e-08
3.139033841e-08
1.750798844e-07
2.145298102e-07
2.045664089e-07
2.475257438e-07
2.599056154e-07
)


100
(
-8.993714222e-08
-7.51326285e-08
-5.10948433e-08
-4.01286244e-08
-3.301637667e-08
-2.766636349e-08
-2.34330921e-08
-1.992469563e-08
-1.729317187e-08
-1.467918891e-08
-1.230395763e-08
-1.031034309e-08
-8.22827313e-09
-6.338312544e-09
-4.689445024e-09
-3.216730736e-09
-1.808178913e-09
-6.052853517e-11
1.600331381e-09
2.627182595e-09
3.518054965e-09
5.213082002e-09
7.167802602e-09
8.131738921e-09
8.457082794e-09
9.031998416e-09
1.105271551e-08
1.305747793e-08
1.344512543e-08
1.345699065e-08
1.397657665e-08
1.635245689e-08
1.934607756e-08
1.877749657e-08
1.694691353e-08
1.697123753e-08
1.718200727e-08
1.930637242e-08
2.15067102e-08
2.14237899e-08
2.040930741e-08
1.921710286e-08
2.108403811e-08
2.418379309e-08
2.461267596e-08
2.311024855e-08
2.171077382e-08
2.1154774e-08
2.273025359e-08
2.461606127e-08
2.514354395e-08
2.49866719e-08
2.312840582e-08
1.937782166e-08
2.150364056e-08
2.663091059e-08
2.5472703e-08
2.182312831e-08
1.942934544e-08
1.886482272e-08
2.19741628e-08
2.522888406e-08
2.437458425e-08
1.961623217e-08
1.329475752e-08
1.800479897e-08
2.20319632e-08
1.554873255e-08
1.161510037e-08
1.159795898e-08
1.271205858e-08
1.345082163e-08
1.295546381e-08
1.192631351e-08
1.122301958e-08
9.112984992e-09
6.151936025e-09
4.043182841e-09
1.840896546e-09
3.525792611e-10
1.571144339e-09
1.914678558e-09
-1.607447459e-09
-5.905904713e-09
-8.902629776e-09
-7.622967063e-09
-8.930197552e-09
-1.551702111e-08
-1.988659418e-08
-2.271755403e-08
-2.347411235e-08
-2.454174187e-08
-2.772353347e-08
-2.578395896e-08
5.932503466e-08
1.910745655e-07
1.996647916e-07
1.919920017e-07
2.387038846e-07
2.511535066e-07
)


100
(
-8.976501357e-08
-7.538985227e-08
-5.160708774e-08
-4.061451067e-08
-3.392008393e-08
-2.853869739e-08
-2.442660692e-08
-2.104714095e-08
-1.840209782e-08
-1.624690231e-08
-1.369628221e-08
-1.168522565e-08
-9.942978198e-09
-8.037936924e-09
-6.347562698e-09
-4.828764244e-09
-3.480630742e-09
-2.223317398e-09
-6.356689256e-10
9.867074264e-10
2.035193977e-09
2.840191703e-09
4.191656552e-09
6.126060722e-09
7.394306644e-09
7.729800147e-09
8.142745854e-09
9.335087658e-09
1.12920139e-08
1.243485165e-08
1.247807495e-08
1.264467875e-08
1.3071554e-08
1.491327233e-08
1.656027916e-08
1.650789905e-08
1.608331377e-08
1.500903989e-08
1.542710195e-08
1.835891925e-08
2.012687996e-08
1.903662643e-08
1.754044995e-08
1.728652112e-08
1.952309711e-08
2.17887076e-08
2.130325786e-08
2.016349205e-08
1.958848019e-08
1.808796924e-08
1.863337116e-08
2.183850809e-08
2.294829946e-08
2.015730824e-08
1.625578556e-08
1.488197104e-08
1.970103042e-08
2.209238516e-08
1.929689847e-08
1.975017739e-08
1.721926903e-08
1.428852715e-08
1.847367871e-08
2.052032688e-08
1.365363255e-08
7.942894703e-09
9.105513432e-09
1.194141527e-08
1.212662675e-08
1.059331804e-08
9.342655532e-09
9.113988597e-09
8.659938102e-09
7.065628458e-09
4.489426672e-09
1.553935139e-09
2.43005846e-09
3.594136155e-09
1.899222623e-09
1.240191313e-10
-2.513516758e-09
-7.118847363e-09
-1.048892301e-08
-6.902171218e-09
-4.582089739e-09
-1.231381909e-08
-1.926828658e-08
-2.028482443e-08
-1.870085318e-08
-1.977015184e-08
-2.302861536e-08
-2.582960493e-08
-2.742673968e-08
-2.005868061e-08
7.342802187e-08
1.905043373e-07
1.837097384e-07
1.777619755e-07
2.335506432e-07
2.569961465e-07
)


100
(
-8.948703772e-08
-7.54368634e-08
-5.196646323e-08
-4.116575542e-08
-3.467204542e-08
-2.936641013e-08
-2.530558811e-08
-2.224041942e-08
-1.940648374e-08
-1.731945441e-08
-1.535563912e-08
-1.305713961e-08
-1.126091858e-08
-9.688988207e-09
-8.004873734e-09
-6.461438375e-09
-5.03893646e-09
-3.797781589e-09
-2.688642711e-09
-1.291902525e-09
3.036942943e-10
1.420262317e-09
2.124487154e-09
3.071821734e-09
4.921310618e-09
6.502506452e-09
6.952117526e-09
7.233860714e-09
7.689312023e-09
9.078711485e-09
1.0642779e-08
1.127221217e-08
1.13576685e-08
1.107850881e-08
1.115013775e-08
1.31478176e-08
1.501673321e-08
1.485283485e-08
1.357497745e-08
1.254192842e-08
1.431129485e-08
1.736155885e-08
1.750979751e-08
1.603713496e-08
1.540851545e-08
1.497721246e-08
1.61978673e-08
1.828207455e-08
1.87235718e-08
1.779990317e-08
1.487074455e-08
1.203151264e-08
1.590317649e-08
2.036396877e-08
1.750359076e-08
1.406548871e-08
1.297025382e-08
1.283193706e-08
1.653211206e-08
1.96489687e-08
1.818184953e-08
1.123628773e-08
4.758153015e-09
1.098792611e-08
1.360572275e-08
8.376511154e-09
7.387827546e-09
6.640140767e-09
6.175673785e-09
5.516001365e-09
4.09408142e-09
3.845817262e-09
5.422117783e-09
5.569171646e-09
3.602840336e-09
1.43450979e-09
-4.935375718e-10
-1.656614467e-09
-4.050777384e-09
-8.082561037e-09
-6.395146465e-09
-5.210649114e-09
-7.187371865e-09
-1.02192956e-08
-1.763684046e-08
-1.851514634e-08
-1.663502439e-08
-1.739102711e-08
-1.978929302e-08
-2.173413448e-08
-2.335235268e-08
-2.410724117e-08
-2.859373388e-08
-1.794316669e-08
8.493031646e-08
1.85480308e-07
1.659596762e-07
1.612615677e-07
2.146757452e-07
2.371891764e-07
)


100
(
-8.901213499e-08
-7.53312628e-08
-5.223252465e-08
-4.18318632e-08
-3.529770437e-08
-3.014223177e-08
-2.607306908e-08
-2.310093256e-08
-2.070163219e-08
-1.833197265e-08
-1.652725235e-08
-1.460705376e-08
-1.25782342e-08
-1.099344552e-08
-9.580842028e-09
-8.084404198e-09
-6.671022335e-09
-5.331235495e-09
-4.179838062e-09
-3.213021222e-09
-2.024125649e-09
-4.517467588e-10
7.709207244e-10
1.407004299e-09
2.153713458e-09
3.515416238e-09
5.090289836e-09
5.939654187e-09
6.137364095e-09
6.262087579e-09
6.529557565e-09
8.087586515e-09
9.706586995e-09
9.921908426e-09
9.39013226e-09
8.458811055e-09
9.664032885e-09
1.245044813e-08
1.338690273e-08
1.224565928e-08
1.107046023e-08
1.084077584e-08
1.264877729e-08
1.43212097e-08
1.428514122e-08
1.408971489e-08
1.317301631e-08
1.047461916e-08
1.180626597e-08
1.576030685e-08
1.552331244e-08
1.240294579e-08
9.645826313e-09
9.860338949e-09
1.307649878e-08
1.507550768e-08
1.469243104e-08
1.39059407e-08
8.626991861e-09
7.636530653e-09
1.367070164e-08
1.231667925e-08
5.490483331e-09
2.235871537e-09
2.633753508e-09
4.689650287e-09
6.09409862e-09
5.856087483e-09
4.716939821e-09
4.293744475e-09
3.835491146e-09
1.915117057e-09
-1.077946554e-10
-1.786857901e-09
-3.687628272e-09
-5.0117338e-09
-2.795194297e-09
-1.12241028e-09
-2.938292943e-09
-6.958366946e-09
-1.073248355e-08
-1.126798176e-08
-1.249035576e-08
-1.229863473e-08
-1.547268394e-08
-2.000308941e-08
-2.012970085e-08
-2.053993999e-08
-1.921107684e-08
-2.133700575e-08
-2.441316205e-08
-2.212410275e-08
-2.38288328e-08
-6.685757382e-09
8.667550756e-08
1.724923491e-07
1.484864534e-07
1.415435408e-07
1.948174146e-07
2.165328691e-07
)


100
(
-8.871969576e-08
-7.530653827e-08
-5.260849582e-08
-4.234383297e-08
-3.57593369e-08
-3.081331162e-08
-2.701214667e-08
-2.385051723e-08
-2.165906401e-08
-1.94781608e-08
-1.750675213e-08
-1.58900561e-08
-1.403483337e-08
-1.225109346e-08
-1.085154623e-08
-9.580008476e-09
-8.265083362e-09
-6.978982302e-09
-5.708005202e-09
-4.623781543e-09
-3.780169856e-09
-2.807974562e-09
-1.315336453e-09
-1.090655793e-12
6.438620898e-10
1.193032528e-09
1.879395385e-09
3.244423625e-09
4.533178469e-09
4.91703274e-09
4.876636037e-09
4.492072046e-09
5.195457746e-09
7.291451264e-09
8.544296816e-09
7.993378478e-09
6.840528413e-09
6.555540722e-09
8.703593436e-09
1.099747326e-08
1.068336984e-08
9.624849352e-09
8.972075432e-09
8.479460007e-09
9.399257285e-09
1.143968544e-08
1.209928609e-08
1.050599452e-08
7.400781851e-09
5.8267782e-09
9.820527815e-09
1.258294623e-08
1.014581652e-08
8.373144625e-09
8.803528942e-09
8.079310613e-09
9.701625915e-09
1.273276125e-08
9.494791914e-09
3.401077732e-09
3.39108694e-10
5.194151981e-09
6.573342304e-09
3.204401764e-09
2.883760836e-09
2.011230532e-09
1.748007951e-09
1.253754829e-09
2.127368162e-10
-8.749636287e-10
-2.687596612e-09
-2.058828929e-09
-8.21913096e-10
-2.210346432e-09
-3.653318111e-09
-4.290647655e-09
-4.236494815e-09
-8.075989503e-09
-1.309287224e-08
-1.092997398e-08
-7.105117191e-09
-6.092612586e-09
-1.317370484e-08
-2.14889524e-08
-2.229554075e-08
-1.954081568e-08
-1.698080029e-08
-1.834397296e-08
-1.957450765e-08
-1.956400397e-08
-1.834472213e-08
-1.922951971e-08
-2.374440746e-08
3.831077376e-09
8.808917724e-08
1.530961109e-07
1.309821413e-07
1.258823158e-07
1.783269127e-07
2.016539438e-07
)


100
(
-8.844660936e-08
-7.533937491e-08
-5.298865691e-08
-4.272098527e-08
-3.636630401e-08
-3.13418175e-08
-2.766032819e-08
-2.463541278e-08
-2.241763485e-08
-2.070874114e-08
-1.847891027e-08
-1.681668735e-08
-1.541823578e-08
-1.363216652e-08
-1.205127965e-08
-1.081338073e-08
-9.672206885e-09
-8.537291684e-09
-7.372930506e-09
-6.160694446e-09
-5.119339207e-09
-4.351951579e-09
-3.534531434e-09
-2.335389186e-09
-1.07569059e-09
-2.818476858e-10
9.678007099e-11
4.510954572e-10
1.081729398e-09
2.377336876e-09
3.477132117e-09
3.553878947e-09
2.912090591e-09
2.467878811e-09
4.454516971e-09
6.825961686e-09
6.633813572e-09
5.487408693e-09
4.902677844e-09
4.926660015e-09
6.595847572e-09
8.35567359e-09
8.471602207e-09
7.874906609e-09
5.81901358e-09
3.22683537e-09
5.939100942e-09
9.7781084e-09
8.102027399e-09
5.048034195e-09
3.559630544e-09
3.919914519e-09
6.788478101e-09
9.359269202e-09
9.155869929e-09
6.263501889e-09
1.109319266e-09
2.825561264e-09
7.95497653e-09
4.426630313e-09
-9.080083143e-10
-1.878645152e-09
-1.268744332e-09
-7.221683276e-10
3.709269955e-10
1.1623389e-09
2.469559205e-10
-1.137338783e-12
-3.851198263e-10
-1.983007968e-09
-3.596190682e-09
-5.357712833e-09
-7.171695891e-09
-8.217654931e-09
-9.084287108e-09
-6.928563681e-09
-4.200011054e-09
-6.52448024e-09
-1.078416186e-08
-1.13794177e-08
-1.298874213e-08
-1.484693001e-08
-1.450499878e-08
-1.761835751e-08
-1.916218388e-08
-1.862094463e-08
-1.916101053e-08
-1.871662244e-08
-1.851546347e-08
-1.701153881e-08
-1.399447616e-08
-1.512324033e-08
-1.791670464e-08
8.204519317e-09
8.819091833e-08
1.411756778e-07
1.102725014e-07
1.098669694e-07
1.594871596e-07