/*--------------------------------*- C++ -*----------------------------------*\
| =========                 |                                                 |
| \\      /  F ield         | OpenFOAM: The Open Source CFD Toolbox           |
|  \\    /   O peration     | Version:  2.3.1                                 |
|   \\  /    A nd           | Web:      www.OpenFOAM.org                      |
|    \\/     M anipulation  |                                                 |
\*---------------------------------------------------------------------------*/
FoamFile
{
    version     2.0;
    format      ascii;
    class       dictionary;
    location    "constant";
    object      DPSI24;
}
// * * * * * * * * * * * * * * * * * * * * * * * * * * * * * * * * * * * * * //

DPSI24_table
100
(

100
(
-3.669340599e-06
-3.189086819e-06
-2.469579821e-06
-2.111947939e-06
-1.93423384e-06
-1.799502968e-06
-1.697556263e-06
-1.628067922e-06
-1.588386212e-06
-1.538732484e-06
-1.501714965e-06
-1.460193342e-06
-1.3988504e-06
-1.383823751e-06
-1.356440408e-06
-1.302226884e-06
-1.303174128e-06
-1.299399483e-06
-1.256268446e-06
-1.256990153e-06
-1.269773302e-06
-1.248449779e-06
-1.22716043e-06
-1.231286171e-06
-1.224488775e-06
-1.195521067e-06
-1.189678589e-06
-1.211072619e-06
-1.209829458e-06
-1.183315541e-06
-1.174513131e-06
-1.1740319e-06
-1.158371129e-06
-1.134973762e-06
-1.130534523e-06
-1.161336509e-06
-1.170116809e-06
-1.144085366e-06
-1.132560491e-06
-1.1470438e-06
-1.146876281e-06
-1.122050217e-06
-1.106844622e-06
-1.10803426e-06
-1.100603231e-06
-1.079177518e-06
-1.06230799e-06
-1.095193419e-06
-1.120300066e-06
-1.09928152e-06
-1.087501726e-06
-1.104212483e-06
-1.111781537e-06
-1.092378014e-06
-1.080908581e-06
-1.079177791e-06
-1.069237845e-06
-1.049948745e-06
-1.046413932e-06
-1.06645427e-06
-1.069430594e-06
-1.048491694e-06
-1.047328864e-06
-1.064707456e-06
-1.061381605e-06
-1.038750138e-06
-1.0488229e-06
-1.063499608e-06
-1.046332277e-06
-1.036489802e-06
-1.050333331e-06
-1.048341329e-06
-1.028746613e-06
-1.040477023e-06
-1.043491162e-06
-1.023903274e-06
-1.032661789e-06
-1.031147615e-06
-1.019700208e-06
-1.023597648e-06
-1.010264831e-06
-1.011317438e-06
-1.006561615e-06
-9.995729643e-07
-9.935147486e-07
-9.86999143e-07
-9.805283039e-07
-9.695765227e-07
-9.647462088e-07
-9.501921183e-07
-9.371337311e-07
-9.277158259e-07
-9.182446122e-07
-9.077693522e-07
-8.937250232e-07
-8.851288411e-07
-8.856319765e-07
-8.910447468e-07
-1.079587017e-06
-1.236955889e-06
)


100
(
-3.556101792e-06
-3.108258847e-06
-2.413622828e-06
-2.072655058e-06
-1.909211686e-06
-1.759956135e-06
-1.675372738e-06
-1.611602401e-06
-1.568782657e-06
-1.541483394e-06
-1.487741276e-06
-1.454369834e-06
-1.404739771e-06
-1.361974585e-06
-1.351970872e-06
-1.319894894e-06
-1.275108874e-06
-1.283654927e-06
-1.285358033e-06
-1.248687564e-06
-1.249289059e-06
-1.267056178e-06
-1.252803094e-06
-1.22145893e-06
-1.230266988e-06
-1.236461993e-06
-1.207276575e-06
-1.180562482e-06
-1.206571062e-06
-1.23011724e-06
-1.204905252e-06
-1.179107403e-06
-1.184326691e-06
-1.186705883e-06
-1.161220308e-06
-1.137686257e-06
-1.143781833e-06
-1.1768596e-06
-1.179250009e-06
-1.152842985e-06
-1.13997006e-06
-1.1603972e-06
-1.166501366e-06
-1.141087216e-06
-1.119584716e-06
-1.12748498e-06
-1.131870593e-06
-1.11037185e-06
-1.090803445e-06
-1.101801736e-06
-1.139973023e-06
-1.147693518e-06
-1.127476446e-06
-1.125642806e-06
-1.147268289e-06
-1.149013103e-06
-1.126751726e-06
-1.116484337e-06
-1.120370991e-06
-1.130969592e-06
-1.08709285e-06
-1.050773357e-06
-1.119289227e-06
-1.156635509e-06
-1.070215755e-06
-1.02947003e-06
-1.14636742e-06
-1.136409609e-06
-1.029594297e-06
-1.069761948e-06
-1.145554523e-06
-1.068273412e-06
-1.016124221e-06
-1.154964079e-06
-1.144021495e-06
-9.839281468e-07
-1.07977895e-06
-1.143180878e-06
-9.77909301e-07
-1.07081172e-06
-1.082511212e-06
-9.793664348e-07
-1.110385322e-06
-9.824648781e-07
-9.784106417e-07
-1.07696434e-06
-9.435111957e-07
-1.020178575e-06
-9.862258264e-07
-9.588717992e-07
-9.913849479e-07
-9.983190523e-07
-1.013514977e-06
-1.026280651e-06
-1.031080071e-06
-1.053096942e-06
-1.308206467e-06
-2.106584081e-06
-2.546983242e-06
-2.347258366e-06
)


100
(
-3.445338888e-06
-3.031038548e-06
-2.360066598e-06
-2.046074983e-06
-1.880097648e-06
-1.739820125e-06
-1.645500705e-06
-1.589604565e-06
-1.543607692e-06
-1.524124818e-06
-1.486903716e-06
-1.443313691e-06
-1.414056636e-06
-1.358721311e-06
-1.330390157e-06
-1.325862928e-06
-1.293615668e-06
-1.254296023e-06
-1.270332735e-06
-1.281194762e-06
-1.249681899e-06
-1.243321361e-06
-1.264100005e-06
-1.26074647e-06
-1.231055339e-06
-1.228173043e-06
-1.237770636e-06
-1.223055164e-06
-1.19756046e-06
-1.197757586e-06
-1.226562641e-06
-1.230409344e-06
-1.205594818e-06
-1.190167544e-06
-1.195911258e-06
-1.191180729e-06
-1.166778357e-06
-1.144535604e-06
-1.154950226e-06
-1.189514341e-06
-1.190839577e-06
-1.166532613e-06
-1.147276075e-06
-1.171420228e-06
-1.189338707e-06
-1.166257017e-06
-1.144991087e-06
-1.14453867e-06
-1.154853264e-06
-1.146462568e-06
-1.129510042e-06
-1.116529126e-06
-1.158119938e-06
-1.200102706e-06
-1.187536998e-06
-1.13554675e-06
-1.158218001e-06
-1.209260105e-06
-1.188161467e-06
-1.138250691e-06
-1.1629763e-06
-1.156588201e-06
-1.091644567e-06
-1.136264845e-06
-1.188285529e-06
-1.117710367e-06
-1.042983549e-06
-1.144377551e-06
-1.159239652e-06
-1.058844603e-06
-1.044276038e-06
-1.117151946e-06
-1.121604395e-06
-1.049276047e-06
-1.10506921e-06
-1.231419929e-06
-1.137016462e-06
-9.787067363e-07
-1.075611144e-06
-1.096424595e-06
-1.089034745e-06
-1.033239129e-06
-1.09963957e-06
-1.142710079e-06
-9.704328207e-07
-1.055533121e-06
-1.068785709e-06
-9.879221881e-07
-1.046292601e-06
-1.074075671e-06
-1.053754887e-06
-1.053757878e-06
-1.116353744e-06
-1.099546118e-06
-1.082224028e-06
-1.221267179e-06
-1.902233334e-06
-2.755508286e-06
-2.935640028e-06
-2.802949972e-06
)


100
(
-3.343419585e-06
-2.954497604e-06
-2.324384505e-06
-2.010878631e-06
-1.83081723e-06
-1.719692379e-06
-1.61853641e-06
-1.566879409e-06
-1.538432796e-06
-1.501055318e-06
-1.482539159e-06
-1.430572791e-06
-1.40435946e-06
-1.379443462e-06
-1.320627309e-06
-1.303182595e-06
-1.304463889e-06
-1.275159351e-06
-1.238047309e-06
-1.261616484e-06
-1.282923501e-06
-1.253706612e-06
-1.235843177e-06
-1.25965357e-06
-1.270765752e-06
-1.242603464e-06
-1.224751057e-06
-1.238059391e-06
-1.241223273e-06
-1.216538153e-06
-1.194756475e-06
-1.21822642e-06
-1.247479686e-06
-1.232628287e-06
-1.208703233e-06
-1.199885994e-06
-1.206021461e-06
-1.196850253e-06
-1.173594081e-06
-1.152525876e-06
-1.162390217e-06
-1.204834752e-06
-1.216660634e-06
-1.195884475e-06
-1.158538817e-06
-1.182947787e-06
-1.222201759e-06
-1.202814598e-06
-1.137844687e-06
-1.150888606e-06
-1.20663219e-06
-1.190073286e-06
-1.138129766e-06
-1.159568773e-06
-1.24077339e-06
-1.228781911e-06
-1.117340514e-06
-1.116728973e-06
-1.232696603e-06
-1.212206805e-06
-1.125886082e-06
-1.166269349e-06
-1.196385121e-06
-1.14808199e-06
-1.144556972e-06
-1.17273717e-06
-1.149779402e-06
-1.096135591e-06
-1.097503756e-06
-1.148247468e-06
-1.175103734e-06
-1.152825835e-06
-1.121061216e-06
-1.087679604e-06
-1.120451234e-06
-1.228509075e-06
-1.125871225e-06
-9.681687356e-07
-1.180981989e-06
-1.202671801e-06
-1.005310702e-06
-1.100761389e-06
-1.117297725e-06
-1.031825917e-06
-1.057295658e-06
-1.100126857e-06
-1.115296539e-06
-1.099395206e-06
-1.103467733e-06
-1.107090309e-06
-1.101356125e-06
-1.126748222e-06
-1.102834105e-06
-1.116308454e-06
-1.191107547e-06
-1.303971334e-06
-2.379510862e-06
-3.219305621e-06
-3.153299356e-06
-3.116633849e-06
)


100
(
-3.26626217e-06
-2.88603488e-06
-2.26913168e-06
-1.96047683e-06
-1.804152878e-06
-1.692220606e-06
-1.599757021e-06
-1.53624565e-06
-1.515069242e-06
-1.477966592e-06
-1.46245076e-06
-1.44557569e-06
-1.387209807e-06
-1.368054998e-06
-1.343229283e-06
-1.289163414e-06
-1.279091791e-06
-1.28670917e-06
-1.263533708e-06
-1.2326767e-06
-1.253378335e-06
-1.278774402e-06
-1.258489879e-06
-1.232290552e-06
-1.251464614e-06
-1.274479215e-06
-1.254664743e-06
-1.229767264e-06
-1.234396871e-06
-1.248825075e-06
-1.236258844e-06
-1.215024714e-06
-1.202883738e-06
-1.240370945e-06
-1.267245485e-06
-1.24488008e-06
-1.19933661e-06
-1.204140391e-06
-1.229312567e-06
-1.207390983e-06
-1.18198096e-06
-1.166777141e-06
-1.215134192e-06
-1.251788692e-06
-1.206607417e-06
-1.114116077e-06
-1.16748026e-06
-1.265948485e-06
-1.212744972e-06
-1.119477411e-06
-1.1538431e-06
-1.242957876e-06
-1.209823334e-06
-1.145618987e-06
-1.184582447e-06
-1.263876668e-06
-1.190094334e-06
-1.093434328e-06
-1.127641449e-06
-1.202880196e-06
-1.204105417e-06
-1.162058789e-06
-1.177438642e-06
-1.224929947e-06
-1.235780617e-06
-1.214350522e-06
-1.17366312e-06
-1.169208357e-06
-1.188082116e-06
-1.172957244e-06
-1.154769109e-06
-1.144108029e-06
-1.196828019e-06
-1.25655949e-06
-1.127777631e-06
-9.952181689e-07
-1.13462651e-06
-1.196462438e-06
-1.081552472e-06
-1.042650646e-06
-1.073184419e-06
-1.160208701e-06
-1.18470163e-06
-1.130186815e-06
-1.130395137e-06
-1.10227415e-06
-1.092263468e-06
-1.142605678e-06
-1.217185704e-06
-1.167167918e-06
-1.051584082e-06
-1.143946873e-06
-1.15949365e-06
-1.14386794e-06
-1.230409044e-06
-1.482370456e-06
-2.730215849e-06
-3.507589904e-06
-3.353608649e-06
-3.329782104e-06
)


100
(
-3.191412183e-06
-2.82070545e-06
-2.214970986e-06
-1.912231026e-06
-1.777898865e-06
-1.661522491e-06
-1.578652728e-06
-1.516235099e-06
-1.487845055e-06
-1.477099294e-06
-1.433774209e-06
-1.423645809e-06
-1.398804747e-06
-1.349494382e-06
-1.334873715e-06
-1.310361073e-06
-1.263273306e-06
-1.257297649e-06
-1.271774239e-06
-1.257671772e-06
-1.231588844e-06
-1.242415744e-06
-1.270351232e-06
-1.263063444e-06
-1.23789526e-06
-1.237807764e-06
-1.26414134e-06
-1.271450026e-06
-1.253932338e-06
-1.232933838e-06
-1.248188982e-06
-1.261980421e-06
-1.241848441e-06
-1.203426653e-06
-1.239126427e-06
-1.289276705e-06
-1.266588748e-06
-1.168141178e-06
-1.171880743e-06
-1.250480729e-06
-1.233077472e-06
-1.174589381e-06
-1.161707074e-06
-1.245645289e-06
-1.278966885e-06
-1.16596406e-06
-1.063221391e-06
-1.186923837e-06
-1.286021599e-06
-1.18882537e-06
-1.114516057e-06
-1.174492475e-06
-1.239326234e-06
-1.208451488e-06
-1.171363461e-06
-1.191569277e-06
-1.19521007e-06
-1.189513452e-06
-1.199280632e-06
-1.175658422e-06
-1.174427523e-06
-1.228952343e-06
-1.258299927e-06
-1.219006421e-06
-1.171132627e-06
-1.182771885e-06
-1.229639526e-06
-1.217336243e-06
-1.178852578e-06
-1.158099428e-06
-1.193708408e-06
-1.239613286e-06
-1.228749814e-06
-1.173982086e-06
-1.209764572e-06
-1.176561856e-06
-1.074296013e-06
-1.074058491e-06
-1.118774349e-06
-1.21214239e-06
-1.203775036e-06
-1.081404145e-06
-1.094080226e-06
-1.158726482e-06
-1.151655485e-06
-1.181093388e-06
-1.184413991e-06
-1.180042316e-06
-1.142600633e-06
-1.147822201e-06
-1.181687379e-06
-1.167671211e-06
-1.164199533e-06
-1.177856314e-06
-1.273848875e-06
-1.870496159e-06
-3.035398806e-06
-3.539391163e-06
-3.469829234e-06
-3.461712109e-06
)


100
(
-3.105322034e-06
-2.751328465e-06
-2.160870354e-06
-1.883065665e-06
-1.744501447e-06
-1.630077039e-06
-1.550910154e-06
-1.499093751e-06
-1.454306165e-06
-1.450015843e-06
-1.431044719e-06
-1.394321376e-06
-1.38628925e-06
-1.353601946e-06
-1.314005149e-06
-1.304398784e-06
-1.282575335e-06
-1.242293291e-06
-1.237332621e-06
-1.258823908e-06
-1.254833274e-06
-1.230674002e-06
-1.227291645e-06
-1.258048896e-06
-1.26750481e-06
-1.243519235e-06
-1.248332643e-06
-1.280765586e-06
-1.285941617e-06
-1.252142229e-06
-1.209994343e-06
-1.240085137e-06
-1.27732735e-06
-1.240271105e-06
-1.190412697e-06
-1.244523844e-06
-1.307622215e-06
-1.238589488e-06
-1.1314002e-06
-1.175228427e-06
-1.266338368e-06
-1.23032223e-06
-1.162879784e-06
-1.173973933e-06
-1.269880856e-06
-1.231130307e-06
-1.117834074e-06
-1.087612316e-06
-1.19157303e-06
-1.234357795e-06
-1.162057772e-06
-1.148054288e-06
-1.173725852e-06
-1.238687295e-06
-1.263501538e-06
-1.247868946e-06
-1.221292146e-06
-1.205009182e-06
-1.225001398e-06
-1.233506369e-06
-1.201033795e-06
-1.161406942e-06
-1.136824759e-06
-1.191940359e-06
-1.234748637e-06
-1.200573515e-06
-1.199888945e-06
-1.192251362e-06
-1.217139231e-06
-1.265504173e-06
-1.242839027e-06
-1.181296509e-06
-1.175149216e-06
-1.210812314e-06
-1.186036373e-06
-1.188245211e-06
-1.194318395e-06
-1.193400669e-06
-1.190161174e-06
-1.130949985e-06
-1.13334149e-06
-1.160056065e-06
-1.15236956e-06
-1.157563812e-06
-1.160057221e-06
-1.155048282e-06
-1.198687524e-06
-1.249758872e-06
-1.197775238e-06
-1.135323238e-06
-1.174582538e-06
-1.208144564e-06
-1.199026665e-06
-1.208367895e-06
-1.273919264e-06
-2.139900219e-06
-3.285774558e-06
-3.565597279e-06
-3.546722374e-06
-3.529902095e-06
)


100
(
-3.013281709e-06
-2.680843103e-06
-2.116271726e-06
-1.849562024e-06
-1.701163691e-06
-1.603155448e-06
-1.520887787e-06
-1.475214143e-06
-1.446267241e-06
-1.415997228e-06
-1.411946666e-06
-1.377681544e-06
-1.355938099e-06
-1.350807605e-06
-1.313220986e-06
-1.280589506e-06
-1.276396317e-06
-1.259880478e-06
-1.226407959e-06
-1.219166409e-06
-1.245676772e-06
-1.252072005e-06
-1.228956786e-06
-1.21060557e-06
-1.243797197e-06
-1.270404715e-06
-1.247080086e-06
-1.260112648e-06
-1.29402722e-06
-1.293515661e-06
-1.216396641e-06
-1.18246728e-06
-1.257149218e-06
-1.290045152e-06
-1.216961437e-06
-1.171008086e-06
-1.261308338e-06
-1.308292829e-06
-1.196359972e-06
-1.102178629e-06
-1.180351838e-06
-1.26499821e-06
-1.213858386e-06
-1.15721804e-06
-1.188816322e-06
-1.22465704e-06
-1.176220458e-06
-1.123777488e-06
-1.124406867e-06
-1.170319849e-06
-1.231236342e-06
-1.247675906e-06
-1.234091466e-06
-1.19765e-06
-1.159295578e-06
-1.217962466e-06
-1.27663557e-06
-1.246691088e-06
-1.212016579e-06
-1.190441551e-06
-1.214903263e-06
-1.218511339e-06
-1.179417007e-06
-1.18258337e-06
-1.186927108e-06
-1.192591906e-06
-1.246620764e-06
-1.276022551e-06
-1.199078966e-06
-1.12127754e-06
-1.164338564e-06
-1.209633974e-06
-1.219689606e-06
-1.238239857e-06
-1.219227951e-06
-1.24579044e-06
-1.226819254e-06
-1.130714988e-06
-1.132858151e-06
-1.196005409e-06
-1.213666165e-06
-1.191982116e-06
-1.171070392e-06
-1.154628794e-06
-1.155088784e-06
-1.177925783e-06
-1.196609157e-06
-1.238472902e-06
-1.213440101e-06
-1.141458204e-06
-1.192045152e-06
-1.230225075e-06
-1.218937028e-06
-1.229148285e-06
-1.320542742e-06
-2.402287388e-06
-3.45726132e-06
-3.534331985e-06
-3.587889606e-06
-3.597376596e-06
)


100
(
-2.930654887e-06
-2.615878194e-06
-2.072733624e-06
-1.807328429e-06
-1.665393023e-06
-1.571002495e-06
-1.497969073e-06
-1.444694792e-06
-1.423400888e-06
-1.388714119e-06
-1.378805644e-06
-1.375261013e-06
-1.328747916e-06
-1.318733248e-06
-1.317175898e-06
-1.277801198e-06
-1.249652955e-06
-1.251214575e-06
-1.242025759e-06
-1.214926205e-06
-1.201751835e-06
-1.231146237e-06
-1.249236467e-06
-1.226955041e-06
-1.203471738e-06
-1.22371294e-06
-1.257953177e-06
-1.249221835e-06
-1.269977942e-06
-1.305484697e-06
-1.279770119e-06
-1.178124087e-06
-1.168752557e-06
-1.270163761e-06
-1.272224002e-06
-1.190786214e-06
-1.173419152e-06
-1.273324918e-06
-1.26116283e-06
-1.148746799e-06
-1.111340501e-06
-1.181341648e-06
-1.231357758e-06
-1.193047149e-06
-1.173155558e-06
-1.175219303e-06
-1.203461296e-06
-1.212337563e-06
-1.19672332e-06
-1.183693557e-06
-1.16553813e-06
-1.17753118e-06
-1.23302715e-06
-1.256861429e-06
-1.210802909e-06
-1.163370206e-06
-1.147538655e-06
-1.191018138e-06
-1.241611164e-06
-1.232046036e-06
-1.238532006e-06
-1.235103178e-06
-1.209669621e-06
-1.222023424e-06
-1.231295778e-06
-1.19837042e-06
-1.15994371e-06
-1.17260215e-06
-1.210697037e-06
-1.191759525e-06
-1.190610705e-06
-1.186241654e-06
-1.208366666e-06
-1.286082727e-06
-1.224220504e-06
-1.126563369e-06
-1.156509701e-06
-1.221515997e-06
-1.231092143e-06
-1.211347974e-06
-1.196940224e-06
-1.178991046e-06
-1.184821083e-06
-1.206406941e-06
-1.211327605e-06
-1.194691302e-06
-1.202852646e-06
-1.210925499e-06
-1.205781182e-06
-1.230931217e-06
-1.225795267e-06
-1.213236686e-06
-1.204511334e-06
-1.243801702e-06
-1.397276357e-06
-2.598263034e-06
-3.551388687e-06
-3.489429517e-06
-3.618207656e-06
-3.649667971e-06
)


100
(
-2.863221572e-06
-2.555037552e-06
-2.020760022e-06
-1.757922191e-06
-1.636097382e-06
-1.536457333e-06
-1.469773111e-06
-1.418790704e-06
-1.395627059e-06
-1.384020308e-06
-1.339745421e-06
-1.341332643e-06
-1.335690444e-06
-1.284452061e-06
-1.28292511e-06
-1.285607009e-06
-1.248086445e-06
-1.220559622e-06
-1.228039506e-06
-1.230465761e-06
-1.20793188e-06
-1.183359807e-06
-1.212975976e-06
-1.244622508e-06
-1.2241127e-06
-1.200731431e-06
-1.198609207e-06
-1.23567812e-06
-1.250962111e-06
-1.278965691e-06
-1.316015756e-06
-1.237578389e-06
-1.13641316e-06
-1.176512431e-06
-1.276656808e-06
-1.241514607e-06
-1.163456283e-06
-1.180628682e-06
-1.238014465e-06
-1.208254402e-06
-1.138191369e-06
-1.120105199e-06
-1.161033484e-06
-1.231377059e-06
-1.244217759e-06
-1.227510693e-06
-1.194952188e-06
-1.159930937e-06
-1.18513392e-06
-1.21338697e-06
-1.198300586e-06
-1.180165617e-06
-1.164417217e-06
-1.170352622e-06
-1.218936133e-06
-1.220522743e-06
-1.178234894e-06
-1.180283754e-06
-1.183055104e-06
-1.198249037e-06
-1.257727406e-06
-1.286997966e-06
-1.231886935e-06
-1.165373438e-06
-1.167451169e-06
-1.207653501e-06
-1.201764661e-06
-1.194765973e-06
-1.20384849e-06
-1.18512355e-06
-1.214879212e-06
-1.229947508e-06
-1.167023955e-06
-1.132614575e-06
-1.183161049e-06
-1.235921045e-06
-1.231693963e-06
-1.219040174e-06
-1.210761345e-06
-1.194079391e-06
-1.1939416e-06
-1.232750792e-06
-1.254755747e-06
-1.223257616e-06
-1.201382585e-06
-1.203515321e-06
-1.174939049e-06
-1.193381024e-06
-1.234784819e-06
-1.226324197e-06
-1.232070548e-06
-1.231233517e-06
-1.22998374e-06
-1.333194672e-06
-1.525038048e-06
-2.788551052e-06
-3.629572945e-06
-3.43747565e-06
-3.613752779e-06
-3.659966853e-06
)


100
(
-2.798923728e-06
-2.496911484e-06
-1.969251242e-06
-1.721216976e-06
-1.602454575e-06
-1.503024088e-06
-1.437118964e-06
-1.398827199e-06
-1.362716876e-06
-1.355998865e-06
-1.336936312e-06
-1.300850073e-06
-1.303658311e-06
-1.291060613e-06
-1.244504286e-06
-1.249300297e-06
-1.257288194e-06
-1.223761333e-06
-1.193902049e-06
-1.207556077e-06
-1.2221762e-06
-1.201067791e-06
-1.176292829e-06
-1.189949577e-06
-1.224081043e-06
-1.220735215e-06
-1.197623136e-06
-1.175925371e-06
-1.208795054e-06
-1.246031864e-06
-1.287356088e-06
-1.292479959e-06
-1.192411715e-06
-1.122995147e-06
-1.181913911e-06
-1.242541146e-06
-1.207741917e-06
-1.169128891e-06
-1.169742406e-06
-1.193471235e-06
-1.206727007e-06
-1.197390616e-06
-1.181020132e-06
-1.152800029e-06
-1.172542628e-06
-1.229385956e-06
-1.238329282e-06
-1.200288508e-06
-1.156457807e-06
-1.135656999e-06
-1.175625228e-06
-1.212234066e-06
-1.193621075e-06
-1.17917679e-06
-1.175917257e-06
-1.168377417e-06
-1.200471095e-06
-1.234556433e-06
-1.220494967e-06
-1.190776658e-06
-1.155350529e-06
-1.185638489e-06
-1.246492039e-06
-1.219614264e-06
-1.167004521e-06
-1.194869229e-06
-1.220030079e-06
-1.244588854e-06
-1.267867065e-06
-1.175193419e-06
-1.084870572e-06
-1.146803283e-06
-1.201994817e-06
-1.201118399e-06
-1.206033582e-06
-1.208671557e-06
-1.216518749e-06
-1.201764295e-06
-1.20378711e-06
-1.24214959e-06
-1.25780763e-06
-1.240393859e-06
-1.224250738e-06
-1.227237825e-06
-1.224771042e-06
-1.229448033e-06
-1.233271027e-06
-1.220235493e-06
-1.216494983e-06
-1.222744517e-06
-1.218711774e-06
-1.211072309e-06
-1.270244522e-06
-1.298376039e-06
-1.753096347e-06
-3.169785629e-06
-3.623035031e-06
-3.3742829e-06
-3.624507744e-06
-3.644519595e-06
)


100
(
-2.729441468e-06
-2.437182187e-06
-1.920129418e-06
-1.687824614e-06
-1.565606131e-06
-1.473663781e-06
-1.402012619e-06
-1.368861851e-06
-1.348756965e-06
-1.323369155e-06
-1.316782229e-06
-1.287199481e-06
-1.262677325e-06
-1.268233071e-06
-1.252146033e-06
-1.207222552e-06
-1.21598335e-06
-1.231795409e-06
-1.203862223e-06
-1.170028934e-06
-1.187612175e-06
-1.213563858e-06
-1.192775839e-06
-1.168522377e-06
-1.163545346e-06
-1.199412126e-06
-1.216326559e-06
-1.194007227e-06
-1.173663748e-06
-1.175670677e-06
-1.215413656e-06
-1.294589145e-06
-1.247544207e-06
-1.143101584e-06
-1.124962042e-06
-1.161916025e-06
-1.207025275e-06
-1.215818479e-06
-1.214458895e-06
-1.185736245e-06
-1.178081247e-06
-1.200810284e-06
-1.202829943e-06
-1.183973307e-06
-1.153800906e-06
-1.126899001e-06
-1.163405718e-06
-1.223082288e-06
-1.203212806e-06
-1.159702988e-06
-1.146630023e-06
-1.135876025e-06
-1.175090184e-06
-1.227594733e-06
-1.230030282e-06
-1.217123981e-06
-1.163546029e-06
-1.120231776e-06
-1.182181139e-06
-1.226747772e-06
-1.189580142e-06
-1.159453988e-06
-1.158567106e-06
-1.197387256e-06
-1.253931977e-06
-1.270084821e-06
-1.210664839e-06
-1.138418261e-06
-1.205864995e-06
-1.214957768e-06
-1.134165155e-06
-1.15825944e-06
-1.185325708e-06
-1.18506782e-06
-1.174802985e-06
-1.170824983e-06
-1.206812774e-06
-1.259518437e-06
-1.270401865e-06
-1.24372641e-06
-1.215312677e-06
-1.203078144e-06
-1.2230384e-06
-1.260003819e-06
-1.253155092e-06
-1.24720305e-06
-1.222114399e-06
-1.207574579e-06
-1.228655049e-06
-1.203675054e-06
-1.209745055e-06
-1.22433846e-06
-1.245435884e-06
-1.269044473e-06
-2.112268971e-06
-3.562820867e-06
-3.59077872e-06
-3.333962219e-06
-3.668002983e-06
-3.68871636e-06
)


100
(
-2.653780246e-06
-2.375914329e-06
-1.882849968e-06
-1.650262663e-06
-1.524392748e-06
-1.441384259e-06
-1.378112037e-06
-1.333649997e-06
-1.321800387e-06
-1.296493288e-06
-1.284517968e-06
-1.278658675e-06
-1.241916263e-06
-1.225786464e-06
-1.233326581e-06
-1.216230408e-06
-1.173678631e-06
-1.183397326e-06
-1.207221184e-06
-1.18677782e-06
-1.157162321e-06
-1.165830467e-06
-1.192891862e-06
-1.183647994e-06
-1.159948e-06
-1.1393127e-06
-1.169633581e-06
-1.204325099e-06
-1.18965738e-06
-1.17050959e-06
-1.155026907e-06
-1.181494487e-06
-1.231175708e-06
-1.198097355e-06
-1.150787252e-06
-1.158596712e-06
-1.16021569e-06
-1.199445101e-06
-1.233799998e-06
-1.215246843e-06
-1.182150033e-06
-1.141352789e-06
-1.155474246e-06
-1.191872138e-06
-1.183479095e-06
-1.152867744e-06
-1.129876427e-06
-1.117293628e-06
-1.144240699e-06
-1.180368116e-06
-1.19966885e-06
-1.211314851e-06
-1.18741643e-06
-1.126489718e-06
-1.156492975e-06
-1.23090058e-06
-1.206219107e-06
-1.151127748e-06
-1.117493171e-06
-1.110763663e-06
-1.172619736e-06
-1.248266237e-06
-1.255182031e-06
-1.20059244e-06
-1.124164729e-06
-1.192330155e-06
-1.250009012e-06
-1.175996368e-06
-1.140004239e-06
-1.166777282e-06
-1.202232013e-06
-1.208822719e-06
-1.199622572e-06
-1.190432696e-06
-1.188837073e-06
-1.186596699e-06
-1.178596014e-06
-1.195519307e-06
-1.213239172e-06
-1.201159406e-06
-1.233594322e-06
-1.267009126e-06
-1.246699138e-06
-1.212157539e-06
-1.206836255e-06
-1.257279002e-06
-1.257839436e-06
-1.210537829e-06
-1.196108441e-06
-1.191441292e-06
-1.191480504e-06
-1.19576831e-06
-1.223903445e-06
-1.417914974e-06
-2.508353219e-06
-3.647520263e-06
-3.543740751e-06
-3.411733687e-06
-3.640725045e-06
-3.66076872e-06
)


100
(
-2.585996845e-06
-2.321162896e-06
-1.840170319e-06
-1.605719325e-06
-1.492340079e-06
-1.406177988e-06
-1.347779227e-06
-1.302353325e-06
-1.288162962e-06
-1.284643598e-06
-1.247883823e-06
-1.246351351e-06
-1.241272024e-06
-1.198268661e-06
-1.187997792e-06
-1.199450548e-06
-1.183967584e-06
-1.144221374e-06
-1.151700281e-06
-1.183467011e-06
-1.172343986e-06
-1.144280034e-06
-1.140032559e-06
-1.168133271e-06
-1.173560281e-06
-1.150527518e-06
-1.131279268e-06
-1.133682276e-06
-1.169971391e-06
-1.184687099e-06
-1.166826731e-06
-1.152475931e-06
-1.138800138e-06
-1.170944265e-06
-1.201857389e-06
-1.186781262e-06
-1.17144257e-06
-1.143214453e-06
-1.142884615e-06
-1.192747862e-06
-1.213154323e-06
-1.176426262e-06
-1.136047552e-06
-1.115338917e-06
-1.139745102e-06
-1.168566271e-06
-1.152146187e-06
-1.135521939e-06
-1.143050378e-06
-1.137525209e-06
-1.158382822e-06
-1.210611407e-06
-1.219986777e-06
-1.171550759e-06
-1.108908744e-06
-1.083246355e-06
-1.155163376e-06
-1.189169777e-06
-1.151104034e-06
-1.185916631e-06
-1.178362263e-06
-1.150732756e-06
-1.214983844e-06
-1.243711832e-06
-1.157437284e-06
-1.090019839e-06
-1.111571478e-06
-1.179357129e-06
-1.215421238e-06
-1.203737231e-06
-1.190934073e-06
-1.192888826e-06
-1.191575787e-06
-1.18116585e-06
-1.181473404e-06
-1.170316523e-06
-1.174454929e-06
-1.186724999e-06
-1.206125779e-06
-1.242736647e-06
-1.235823923e-06
-1.197513695e-06
-1.166128454e-06
-1.234936917e-06
-1.299652686e-06
-1.229561162e-06
-1.196378486e-06
-1.220141066e-06
-1.217796932e-06
-1.210185936e-06
-1.1979422e-06
-1.21045952e-06
-1.303548319e-06
-1.495396219e-06
-2.647065068e-06
-3.682839476e-06
-3.454181458e-06
-3.414442767e-06
-3.683864018e-06
-3.72749626e-06
)


100
(
-2.52610344e-06
-2.267864756e-06
-1.795127986e-06
-1.566236438e-06
-1.458123161e-06
-1.372611709e-06
-1.314589081e-06
-1.281122226e-06
-1.25009884e-06
-1.250606467e-06
-1.24215445e-06
-1.208234881e-06
-1.206303343e-06
-1.197380333e-06
-1.156595325e-06
-1.150252458e-06
-1.166857692e-06
-1.154023535e-06
-1.119399825e-06
-1.122875969e-06
-1.158826394e-06
-1.158118416e-06
-1.130757324e-06
-1.110271141e-06
-1.139445168e-06
-1.162969033e-06
-1.140460725e-06
-1.12238067e-06
-1.107573415e-06
-1.130983223e-06
-1.16556664e-06
-1.169880503e-06
-1.163100098e-06
-1.142607365e-06
-1.12502549e-06
-1.156333247e-06
-1.182959098e-06
-1.165944167e-06
-1.135158841e-06
-1.105755824e-06
-1.130823267e-06
-1.182027381e-06
-1.16960365e-06
-1.12979389e-06
-1.113568332e-06
-1.099992083e-06
-1.127866749e-06
-1.171004215e-06
-1.173929327e-06
-1.163189598e-06
-1.132463901e-06
-1.098506688e-06
-1.157239869e-06
-1.214103429e-06
-1.15287348e-06
-1.095999169e-06
-1.085732754e-06
-1.106249645e-06
-1.188202928e-06
-1.23839649e-06
-1.220443205e-06
-1.137172772e-06
-1.059701218e-06
-1.151494299e-06
-1.188037437e-06
-1.129015007e-06
-1.14515664e-06
-1.15569199e-06
-1.162321731e-06
-1.164676488e-06
-1.148219424e-06
-1.143033028e-06
-1.187289925e-06
-1.227462595e-06
-1.217767026e-06
-1.194821045e-06
-1.168509037e-06
-1.156322032e-06
-1.169879501e-06
-1.174736462e-06
-1.208975562e-06
-1.227102633e-06
-1.232519416e-06
-1.228291366e-06
-1.169073519e-06
-1.207459181e-06
-1.263561381e-06
-1.241564807e-06
-1.213800977e-06
-1.187752856e-06
-1.209049513e-06
-1.25549052e-06
-1.255207641e-06
-1.484084868e-06
-2.809927734e-06
-3.74418803e-06
-3.39270772e-06
-3.370788809e-06
-3.649443252e-06
-3.713896731e-06
)


100
(
-2.469237211e-06
-2.216772299e-06
-1.750796248e-06
-1.534051174e-06
-1.421880809e-06
-1.340630382e-06
-1.279061351e-06
-1.249489164e-06
-1.231573114e-06
-1.213193691e-06
-1.214560927e-06
-1.196052846e-06
-1.166433229e-06
-1.165948489e-06
-1.156718014e-06
-1.118533331e-06
-1.112841612e-06
-1.13493342e-06
-1.12835365e-06
-1.09926413e-06
-1.093877464e-06
-1.131084482e-06
-1.14345453e-06
-1.116813679e-06
-1.097204739e-06
-1.1060295e-06
-1.13145483e-06
-1.130459036e-06
-1.113909054e-06
-1.103615298e-06
-1.099241998e-06
-1.139068554e-06
-1.172350193e-06
-1.158102951e-06
-1.132427778e-06
-1.092667847e-06
-1.102965381e-06
-1.151496346e-06
-1.156774102e-06
-1.125564544e-06
-1.098725879e-06
-1.083835917e-06
-1.112713382e-06
-1.140924611e-06
-1.137553798e-06
-1.143564529e-06
-1.137342617e-06
-1.092783808e-06
-1.111750516e-06
-1.168479292e-06
-1.159904219e-06
-1.124957188e-06
-1.095974324e-06
-1.094820838e-06
-1.131406453e-06
-1.154175211e-06
-1.154131053e-06
-1.160313675e-06
-1.11496387e-06
-1.122610946e-06
-1.202808552e-06
-1.177579526e-06
-1.092916957e-06
-1.059081845e-06
-1.086038112e-06
-1.142513062e-06
-1.169522638e-06
-1.165885903e-06
-1.152800749e-06
-1.158160007e-06
-1.161205123e-06
-1.156747018e-06
-1.15493424e-06
-1.156687669e-06
-1.155716813e-06
-1.137875209e-06
-1.166347835e-06
-1.214515681e-06
-1.214881555e-06
-1.188227449e-06
-1.158787556e-06
-1.166960912e-06
-1.188238642e-06
-1.213503185e-06
-1.213097228e-06
-1.195405877e-06
-1.21968684e-06
-1.244216762e-06
-1.231502248e-06
-1.172909532e-06
-1.142135241e-06
-1.177367992e-06
-1.240855212e-06
-1.706038243e-06
-2.9663678e-06
-3.67940274e-06
-3.346220297e-06
-3.318273825e-06
-3.597468798e-06
-3.657654096e-06
)


100
(
-2.407106059e-06
-2.16403194e-06
-1.713128021e-06
-1.500166109e-06
-1.383585334e-06
-1.307405768e-06
-1.253782067e-06
-1.214458081e-06
-1.203996514e-06
-1.185941692e-06
-1.177119851e-06
-1.176405805e-06
-1.149825745e-06
-1.124838253e-06
-1.127640238e-06
-1.119619434e-06
-1.084434856e-06
-1.076319906e-06
-1.10424766e-06
-1.107550975e-06
-1.082115576e-06
-1.062718095e-06
-1.099659672e-06
-1.12799986e-06
-1.102856576e-06
-1.085133767e-06
-1.070279879e-06
-1.096338622e-06
-1.126066841e-06
-1.117697591e-06
-1.106394603e-06
-1.08606904e-06
-1.095206195e-06
-1.138505963e-06
-1.15069875e-06
-1.120550778e-06
-1.080690515e-06
-1.055872533e-06
-1.090746787e-06
-1.133073084e-06
-1.116048807e-06
-1.091752256e-06
-1.08184417e-06
-1.080322473e-06
-1.107181197e-06
-1.14409733e-06
-1.149893702e-06
-1.126297029e-06
-1.081765168e-06
-1.052100945e-06
-1.110423729e-06
-1.151964574e-06
-1.116473357e-06
-1.098425089e-06
-1.120744126e-06
-1.118443816e-06
-1.134813907e-06
-1.171686343e-06
-1.142024276e-06
-1.094244879e-06
-1.06940797e-06
-1.128130025e-06
-1.140943235e-06
-1.112757487e-06
-1.12593235e-06
-1.1182474e-06
-1.126107245e-06
-1.129689773e-06
-1.118126761e-06
-1.107444745e-06
-1.113785905e-06
-1.150653485e-06
-1.168441912e-06
-1.156519326e-06
-1.155677836e-06
-1.165121275e-06
-1.180415591e-06
-1.158558168e-06
-1.11648003e-06
-1.137196014e-06
-1.209920613e-06
-1.250402256e-06
-1.182434613e-06
-1.103359619e-06
-1.145693634e-06
-1.220637007e-06
-1.222753617e-06
-1.206829508e-06
-1.223828208e-06
-1.224500891e-06
-1.204157829e-06
-1.198910399e-06
-1.285881687e-06
-1.816902967e-06
-2.966078832e-06
-3.547248667e-06
-3.286681797e-06
-3.316095726e-06
-3.563944213e-06
-3.62120404e-06
)


100
(
-2.342735647e-06
-2.112063911e-06
-1.678061124e-06
-1.464665697e-06
-1.353021811e-06
-1.271893902e-06
-1.221764646e-06
-1.183062343e-06
-1.171094034e-06
-1.169642567e-06
-1.140033384e-06
-1.138327729e-06
-1.139646427e-06
-1.105338401e-06
-1.083684646e-06
-1.091254913e-06
-1.08515478e-06
-1.05471959e-06
-1.042460196e-06