/*--------------------------------*- C++ -*----------------------------------*\
| =========                 |                                                 |
| \\      /  F ield         | OpenFOAM: The Open Source CFD Toolbox           |
|  \\    /   O peration     | Version:  2.3.1                                 |
|   \\  /    A nd           | Web:      www.OpenFOAM.org                      |
|    \\/     M anipulation  |                                                 |
\*---------------------------------------------------------------------------*/
FoamFile
{
    version     2.0;
    format      ascii;
    class       dictionary;
    location    "constant";
    object      DPSI18;
}
// * * * * * * * * * * * * * * * * * * * * * * * * * * * * * * * * * * * * * //

DPSI18_table
100
(

100
(
1.134243304e-08
1.012207767e-08
9.177922785e-09
7.746124376e-09
6.309413291e-09
4.146578215e-09
2.691511035e-09
6.139188923e-10
-1.21340086e-09
-3.65626532e-09
-4.727936773e-09
-8.674752913e-09
-9.83695075e-09
-1.153544851e-08
-1.54367832e-08
-1.66355312e-08
-1.7826021e-08
-2.289512561e-08
-2.427464591e-08
-2.506888784e-08
-2.949956526e-08
-3.241462934e-08
-3.347340096e-08
-3.560501775e-08
-4.091419287e-08
-4.245372191e-08
-4.333212151e-08
-4.610269815e-08
-5.145244484e-08
-5.259682295e-08
-5.347553497e-08
-5.731799569e-08
-6.226918931e-08
-6.379758369e-08
-6.469102302e-08
-6.676925961e-08
-7.186575324e-08
-7.464883268e-08
-7.518633637e-08
-7.71918356e-08
-8.191437307e-08
-8.554169823e-08
-8.632905081e-08
-8.849204947e-08
-9.304087142e-08
-9.714070534e-08
-9.825385787e-08
-9.931576605e-08
-1.030307626e-07
-1.070665357e-07
-1.092294709e-07
-1.101257674e-07
-1.136051526e-07
-1.173058627e-07
-1.197826913e-07
-1.216026366e-07
-1.252058e-07
-1.288080463e-07
-1.312895757e-07
-1.332235135e-07
-1.354511461e-07
-1.407446987e-07
-1.431269963e-07
-1.427228983e-07
-1.450774139e-07
-1.505298943e-07
-1.527233014e-07
-1.508381614e-07
-1.559325889e-07
-1.595082747e-07
-1.600466122e-07
-1.605437962e-07
-1.66155499e-07
-1.678950254e-07
-1.674614281e-07
-1.717378702e-07
-1.748474661e-07
-1.739744554e-07
-1.772806043e-07
-1.798346147e-07
-1.796626969e-07
-1.827867604e-07
-1.84001466e-07
-1.852767449e-07
-1.873814138e-07
-1.881659121e-07
-1.896395273e-07
-1.90946984e-07
-1.922202234e-07
-1.932520073e-07
-1.945961862e-07
-1.960315886e-07
-1.979120908e-07
-1.991358671e-07
-2.01072456e-07
-2.018493855e-07
-2.025964852e-07
-1.997691881e-07
-1.548430814e-07
-1.011580876e-07
)


100
(
1.133696672e-08
1.031635261e-08
9.486347625e-09
8.157862435e-09
6.604593055e-09
4.695574216e-09
3.053841042e-09
1.163834074e-09
-6.885945875e-10
-3.093155269e-09
-4.350161323e-09
-7.819202819e-09
-9.52544234e-09
-1.11071266e-08
-1.4623234e-08
-1.653879675e-08
-1.772906125e-08
-2.158544721e-08
-2.440922448e-08
-2.544950186e-08
-2.861323707e-08
-3.199227312e-08
-3.414972138e-08
-3.593655194e-08
-3.978394848e-08
-4.292305439e-08
-4.466503685e-08
-4.67990923e-08
-5.045186837e-08
-5.357997532e-08
-5.563261857e-08
-5.836569897e-08
-6.208059344e-08
-6.526761028e-08
-6.763001085e-08
-6.951882142e-08
-7.292891143e-08
-7.603186376e-08
-7.89639871e-08
-8.146671371e-08
-8.461357378e-08
-8.774617998e-08
-9.058351215e-08
-9.409605897e-08
-9.729829549e-08
-1.005089229e-07
-1.033494239e-07
-1.062191797e-07
-1.098135671e-07
-1.126972906e-07
-1.152969801e-07
-1.1811488e-07
-1.22753275e-07
-1.253574961e-07
-1.278042092e-07
-1.306670891e-07
-1.362913751e-07
-1.386526764e-07
-1.412364369e-07
-1.440709069e-07
-1.492903007e-07
-1.517806163e-07
-1.566351806e-07
-1.602803341e-07
-1.623192082e-07
-1.649330962e-07
-1.695910518e-07
-1.733902657e-07
-1.746074548e-07
-1.788494259e-07
-1.825765865e-07
-1.861130633e-07
-1.88727232e-07
-1.923987894e-07
-1.957822192e-07
-1.998488278e-07
-2.03646922e-07
-2.068762831e-07
-2.110462845e-07
-2.149207741e-07
-2.176916686e-07
-2.217410618e-07
-2.26828971e-07
-2.287012752e-07
-2.34707118e-07
-2.378635963e-07
-2.416593506e-07
-2.466207443e-07
-2.499381095e-07
-2.555410315e-07
-2.593909193e-07
-2.642349634e-07
-2.681887302e-07
-2.735062839e-07
-2.762918375e-07
-2.803688928e-07
-2.8201385e-07
-2.645710957e-07
-2.058521799e-07
-1.512831094e-07
)


100
(
1.133662974e-08
1.066983042e-08
1.004391005e-08
8.61401002e-09
7.259042591e-09
5.720409808e-09
3.904058595e-09
2.258488846e-09
4.271937715e-10
-1.802275993e-09
-3.428071771e-09
-5.974621978e-09
-8.482463713e-09
-1.007029654e-08
-1.2540119e-08
-1.540516316e-08
-1.710843056e-08
-1.909483284e-08
-2.241882395e-08
-2.522109745e-08
-2.68539269e-08
-2.961074904e-08
-3.285109207e-08
-3.557879937e-08
-3.738053631e-08
-4.080801285e-08
-4.406313795e-08
-4.675999439e-08
-4.827578104e-08
-5.173628269e-08
-5.50292541e-08
-5.833670494e-08
-6.040770205e-08
-6.384534023e-08
-6.737185613e-08
-7.064237474e-08
-7.292694611e-08
-7.534837508e-08
-7.884517278e-08
-8.213948704e-08
-8.546598919e-08
-8.836298359e-08
-9.152449875e-08
-9.47499472e-08
-9.781494544e-08
-1.020237236e-07
-1.050906143e-07
-1.084008443e-07
-1.11506631e-07
-1.165241508e-07
-1.186431538e-07
-1.219373481e-07
-1.251901014e-07
-1.30408498e-07
-1.330877979e-07
-1.357682604e-07
-1.393597509e-07
-1.457881011e-07
-1.489910651e-07
-1.512431281e-07
-1.567434523e-07
-1.609145724e-07
-1.639985089e-07
-1.707288876e-07
-1.754519341e-07
-1.772083403e-07
-1.803450749e-07
-1.87838967e-07
-1.901242759e-07
-1.942955602e-07
-1.993275467e-07
-2.050139762e-07
-2.069462913e-07
-2.128327463e-07
-2.197734979e-07
-2.221061561e-07
-2.245222601e-07
-2.327206925e-07
-2.382048274e-07
-2.407358706e-07
-2.477244531e-07
-2.521888771e-07
-2.581846196e-07
-2.623098432e-07
-2.676216407e-07
-2.750165238e-07
-2.801237205e-07
-2.867398044e-07
-2.926702726e-07
-2.992844739e-07
-3.061233793e-07
-3.123806024e-07
-3.183087705e-07
-3.240396442e-07
-3.304468061e-07
-3.36703454e-07
-3.387203187e-07
-2.929083464e-07
-2.525506765e-07
-2.157923032e-07
)


100
(
1.13403551e-08
1.092741576e-08
1.029248803e-08
9.038851606e-09
8.053374556e-09
6.480329825e-09
4.951700772e-09
3.234627123e-09
1.583576315e-09
-4.591579663e-10
-2.363985971e-09
-4.415791687e-09
-6.891198582e-09
-9.107246882e-09
-1.093457118e-08
-1.343749084e-08
-1.613592746e-08
-1.807606437e-08
-1.995198086e-08
-2.316504339e-08
-2.620706143e-08
-2.809316416e-08
-3.047952945e-08
-3.383814908e-08
-3.704459293e-08
-3.901893595e-08
-4.18420853e-08
-4.533097079e-08
-4.860432162e-08
-5.068625145e-08
-5.308217759e-08
-5.66834176e-08
-6.019313484e-08
-6.360921669e-08
-6.580171755e-08
-6.93050891e-08
-7.287671022e-08
-7.712165401e-08
-7.856335671e-08
-8.098487001e-08
-8.471875778e-08
-8.887681033e-08
-9.281872617e-08
-9.40882272e-08
-9.747982089e-08
-1.020885203e-07
-1.088621906e-07
-1.099671991e-07
-1.125243194e-07
-1.179685236e-07
-1.249609153e-07
-1.270251382e-07
-1.280004309e-07
-1.337952236e-07
-1.40501735e-07
-1.436893329e-07
-1.433748645e-07
-1.511897724e-07
-1.579016132e-07
-1.624690666e-07
-1.638526617e-07
-1.708921575e-07
-1.745591203e-07
-1.787236342e-07
-1.845160811e-07
-1.907324758e-07
-1.937293088e-07
-1.98622012e-07
-2.061389445e-07
-2.100469904e-07
-2.139836631e-07
-2.188160449e-07
-2.267919604e-07
-2.314760158e-07
-2.352626402e-07
-2.404935808e-07
-2.473505831e-07
-2.518906452e-07
-2.565718772e-07
-2.629608657e-07
-2.695059451e-07
-2.765094213e-07
-2.804090723e-07
-2.88495017e-07
-2.960981695e-07
-3.017445863e-07
-3.099852313e-07
-3.176528427e-07
-3.24997331e-07
-3.336322023e-07
-3.394398176e-07
-3.474304834e-07
-3.541136005e-07
-3.615019987e-07
-3.701130506e-07
-3.777238502e-07
-3.743202069e-07
-3.152021727e-07
-2.876406942e-07
-2.555290264e-07
)


100
(
1.134764194e-08
1.115241162e-08
1.051090162e-08
9.721045843e-09
8.816536121e-09
7.186798269e-09
5.990517633e-09
4.232316385e-09
2.7164736e-09
8.549634615e-10
-1.10079924e-09
-3.101147518e-09
-5.143587155e-09
-7.603969725e-09
-9.795721624e-09
-1.16189779e-08
-1.414377611e-08
-1.692453712e-08
-1.894699764e-08
-2.067039425e-08
-2.391955973e-08
-2.709943923e-08
-2.93377906e-08
-3.137486595e-08
-3.48489426e-08
-3.819417126e-08
-4.07238308e-08
-4.285350722e-08
-4.629546942e-08
-4.975376511e-08
-5.288759445e-08
-5.437134293e-08
-5.755170874e-08
-6.140534769e-08
-6.60220586e-08
-6.768363764e-08
-7.023333015e-08
-7.415287884e-08
-8.102628727e-08
-8.28470839e-08
-8.405385617e-08
-8.679198998e-08
-9.361430413e-08
-9.820160851e-08
-9.968398101e-08
-1.003556352e-07
-1.087599912e-07
-1.165251899e-07
-1.177550086e-07
-1.17874416e-07
-1.259329816e-07
-1.334294696e-07
-1.369369761e-07
-1.377461861e-07
-1.440158032e-07
-1.514678635e-07
-1.559376449e-07
-1.576198812e-07
-1.629073165e-07
-1.702727693e-07
-1.753814154e-07
-1.786066179e-07
-1.839850878e-07
-1.876893613e-07
-1.924247115e-07
-1.989822086e-07
-2.056436431e-07
-2.098391307e-07
-2.146470051e-07
-2.194449097e-07
-2.268398619e-07
-2.321629074e-07
-2.373568277e-07
-2.416357072e-07
-2.493698883e-07
-2.550171056e-07
-2.617655718e-07
-2.663811406e-07
-2.72723218e-07
-2.816992003e-07
-2.871416577e-07
-2.933699448e-07
-3.031385652e-07
-3.09200302e-07
-3.174224348e-07
-3.252726933e-07
-3.331741353e-07
-3.408961795e-07
-3.513284699e-07
-3.57096608e-07
-3.64212543e-07
-3.744969884e-07
-3.820258022e-07
-3.925104251e-07
-4.010596766e-07
-4.088254933e-07
-3.863878519e-07
-3.401914878e-07
-3.141302059e-07
-2.863115832e-07
)


100
(
1.160189254e-08
1.148155105e-08
1.103620844e-08
1.037404147e-08
9.284789821e-09
8.114493092e-09
6.811412376e-09
5.378277755e-09
3.746913799e-09
2.150923531e-09
2.807013055e-10
-1.736564857e-09
-3.716858278e-09
-5.77833098e-09
-8.25417136e-09
-1.040437076e-08
-1.220623096e-08
-1.478202212e-08
-1.76501455e-08
-1.984413695e-08
-2.161206588e-08
-2.471772342e-08
-2.80695401e-08
-3.085655487e-08
-3.273757766e-08
-3.605811456e-08
-3.954660239e-08
-4.193672601e-08
-4.346706923e-08
-4.643234586e-08
-5.066079082e-08
-5.482848016e-08
-5.633815419e-08
-5.808265316e-08
-6.322525014e-08
-6.886502633e-08
-7.066416765e-08
-7.143426034e-08
-7.760249206e-08
-8.533747783e-08
-8.770194696e-08
-8.873729018e-08
-9.181344405e-08
-9.961953621e-08
-1.046628487e-07
-1.049308002e-07
-1.065568396e-07
-1.154067531e-07
-1.236710208e-07
-1.244139994e-07
-1.263243632e-07
-1.338068274e-07
-1.420545049e-07
-1.465710147e-07
-1.479823523e-07
-1.536047787e-07
-1.610904486e-07
-1.653134799e-07
-1.687674847e-07
-1.726629236e-07
-1.784074382e-07
-1.832390829e-07
-1.879296377e-07
-1.943576384e-07
-1.98926447e-07
-2.042184513e-07
-2.0989765e-07
-2.142462657e-07
-2.229509906e-07
-2.290270508e-07
-2.342812428e-07
-2.397800064e-07
-2.467111089e-07
-2.532048317e-07
-2.594381604e-07
-2.657465651e-07
-2.711983028e-07
-2.803062946e-07
-2.869465563e-07
-2.940107588e-07
-3.02245207e-07
-3.089203862e-07
-3.181221452e-07
-3.260699883e-07
-3.332992129e-07
-3.421304714e-07
-3.503725007e-07
-3.580320612e-07
-3.666976418e-07
-3.737604518e-07
-3.840860911e-07
-3.920698862e-07
-4.028459127e-07
-4.129458046e-07
-4.222591524e-07
-4.30309077e-07
-3.893388393e-07
-3.607719956e-07
-3.434950139e-07
-3.178961014e-07
)


100
(
1.200761613e-08
1.184962663e-08
1.154789612e-08
1.087921196e-08
9.764931009e-09
9.028304416e-09
7.555546175e-09
6.494501599e-09
4.842372447e-09
3.312132693e-09
1.637809179e-09
-2.693653072e-10
-2.294294164e-09
-4.242272894e-09
-6.361457727e-09
-8.840320439e-09
-1.099375886e-08
-1.28146427e-08
-1.539762919e-08
-1.8394615e-08
-2.092844811e-08
-2.28036294e-08
-2.567368397e-08
-2.925737947e-08
-3.275300331e-08
-3.485016604e-08
-3.767031167e-08
-4.114682742e-08
-4.328343278e-08
-4.475853161e-08
-4.691000271e-08
-5.304788368e-08
-5.735916454e-08
-5.89395745e-08
-5.977457138e-08
-6.67414293e-08
-7.257588079e-08
-7.434878249e-08
-7.344376809e-08
-8.146570106e-08
-8.940933573e-08
-9.225221229e-08
-9.220618635e-08
-9.688417452e-08
-1.051847501e-07
-1.105618344e-07
-1.108564561e-07
-1.126422305e-07
-1.220907553e-07
-1.295580123e-07
-1.324208103e-07
-1.339597947e-07
-1.397788399e-07
-1.45672317e-07
-1.509976499e-07
-1.56389599e-07
-1.603480143e-07
-1.640802013e-07
-1.698919826e-07
-1.755952633e-07
-1.805285293e-07
-1.835137076e-07
-1.898343502e-07
-1.962551349e-07
-2.013119595e-07
-2.069266513e-07
-2.141360265e-07
-2.200569955e-07
-2.250887677e-07
-2.330243455e-07
-2.405232128e-07
-2.468678501e-07
-2.538537649e-07
-2.604025023e-07
-2.649745582e-07
-2.747442693e-07
-2.802502753e-07
-2.885653961e-07
-2.968970157e-07
-3.036004117e-07
-3.129938559e-07
-3.213143709e-07
-3.262990726e-07
-3.357636948e-07
-3.43323941e-07
-3.521351094e-07
-3.60440879e-07
-3.681003815e-07
-3.738440899e-07
-3.855174764e-07
-3.962798326e-07
-4.039695122e-07
-4.143994084e-07
-4.226294716e-07
-4.319919097e-07
-4.386323265e-07
-3.938327392e-07
-3.780854943e-07
-3.684080865e-07
-3.508803092e-07
)


100
(
1.216491156e-08
1.22060018e-08
1.194522271e-08
1.121832352e-08
1.054412883e-08
9.685806602e-09
8.519672884e-09
7.331423836e-09
6.059693736e-09
4.425541063e-09
2.946783691e-09
1.183953324e-09
-7.639485372e-10
-2.799111695e-09
-4.734677129e-09
-6.898487272e-09
-9.419923422e-09
-1.167702655e-08
-1.354927175e-08
-1.607331802e-08
-1.925627187e-08
-2.222550993e-08
-2.415657372e-08
-2.659064107e-08
-3.02954797e-08
-3.4183388e-08
-3.691297224e-08
-4.001069806e-08
-4.359321968e-08
-4.534092735e-08
-4.614141564e-08
-4.837007756e-08
-5.569287913e-08
-5.992036255e-08
-6.065324592e-08
-6.230837789e-08
-7.004099747e-08
-7.609453922e-08
-7.584305384e-08
-7.709797973e-08
-8.4981373e-08
-9.318579439e-08
-9.532337225e-08
-9.69782703e-08
-1.020161545e-07
-1.110923178e-07
-1.151783436e-07
-1.169717788e-07
-1.181893964e-07
-1.258373436e-07
-1.303885687e-07
-1.356759648e-07
-1.391484882e-07
-1.421201668e-07
-1.469428509e-07
-1.532100693e-07
-1.592517061e-07
-1.649026369e-07
-1.686937615e-07
-1.744823772e-07
-1.811236253e-07
-1.862710548e-07
-1.920013109e-07
-1.966266627e-07
-2.031230266e-07
-2.089868138e-07
-2.160213284e-07
-2.240546577e-07
-2.282829793e-07
-2.343241351e-07
-2.426380512e-07
-2.489839902e-07
-2.565478605e-07
-2.631543553e-07
-2.689534115e-07
-2.776840285e-07
-2.877390704e-07
-2.938106284e-07
-3.032537331e-07
-3.111365738e-07
-3.16853367e-07
-3.255761811e-07
-3.328923902e-07
-3.414120582e-07
-3.496225967e-07
-3.571035015e-07
-3.634550418e-07
-3.712695138e-07
-3.808939778e-07
-3.896655083e-07
-3.985629238e-07
-4.076785118e-07
-4.163816561e-07
-4.2511033e-07
-4.316887984e-07
-4.324383471e-07
-3.92519765e-07
-3.892211802e-07
-3.804963346e-07
-3.718980797e-07
)


100
(
1.216595314e-08
1.240708393e-08
1.2153794e-08
1.170599649e-08
1.129640196e-08
1.020336246e-08
9.532357849e-09
8.127302889e-09
7.173095466e-09
5.675060384e-09
4.12330073e-09
2.6129469e-09
8.022446616e-10
-1.20608771e-09
-3.294487124e-09
-5.229479081e-09
-7.422748421e-09
-1.005339296e-08
-1.249406334e-08
-1.437929958e-08
-1.671720679e-08
-1.99999529e-08
-2.33275926e-08
-2.523314218e-08
-2.705628225e-08
-3.068098649e-08
-3.476641976e-08
-3.848192493e-08
-4.214440547e-08
-4.578176372e-08
-4.715674632e-08
-4.633463129e-08
-5.059269438e-08
-5.817040456e-08
-6.230358668e-08
-6.175822882e-08
-6.52392306e-08
-7.335272073e-08
-7.895886938e-08
-7.887862893e-08
-8.105974914e-08
-8.863202696e-08
-9.649323967e-08
-9.951604449e-08
-1.010446256e-07
-1.055968017e-07
-1.11321265e-07
-1.160346886e-07
-1.203988312e-07
-1.22278269e-07
-1.258491659e-07
-1.313099283e-07
-1.375177022e-07
-1.43755657e-07
-1.476730546e-07
-1.487657263e-07
-1.554909867e-07
-1.622499632e-07
-1.679285955e-07
-1.741884024e-07
-1.796533494e-07
-1.858302927e-07
-1.912743123e-07
-1.98639648e-07
-2.066233316e-07
-2.113082339e-07
-2.150619741e-07
-2.234908547e-07
-2.314296096e-07
-2.370055662e-07
-2.427003307e-07
-2.485250468e-07
-2.557090486e-07
-2.658662099e-07
-2.747249615e-07
-2.79982615e-07
-2.903254927e-07
-2.97630404e-07
-3.032824166e-07
-3.114417239e-07
-3.192124512e-07
-3.276595746e-07
-3.350898026e-07
-3.424302004e-07
-3.495763971e-07
-3.553672239e-07
-3.640160169e-07
-3.745631032e-07
-3.821922596e-07
-3.894990111e-07
-3.960694813e-07
-4.046800508e-07
-4.110108265e-07
-4.191120547e-07
-4.247646024e-07
-4.190960776e-07
-3.840188029e-07
-3.887845089e-07
-3.845540335e-07
-3.754830392e-07
)


100
(
1.21707062e-08
1.259727745e-08
1.24749593e-08
1.231385107e-08
1.178076427e-08
1.096408851e-08
1.027642582e-08
9.211060702e-09
8.021394465e-09
6.948740247e-09
5.361946408e-09
3.872419259e-09
2.300615076e-09
4.795492817e-10
-1.621322006e-09
-3.800479401e-09
-5.728509069e-09
-7.899334696e-09
-1.061440998e-08
-1.323869355e-08
-1.503418087e-08
-1.700120942e-08
-2.029084377e-08
-2.370379576e-08
-2.596162219e-08
-2.749675022e-08
-3.057607565e-08
-3.483812239e-08
-3.949287174e-08
-4.39885329e-08
-4.787661162e-08
-4.818528097e-08
-4.760459065e-08
-5.286756996e-08
-6.060266648e-08
-6.3501316e-08
-6.43943581e-08
-6.826659514e-08
-7.674627146e-08
-8.090041202e-08
-8.282188835e-08
-8.42658019e-08
-9.03540721e-08
-9.527950202e-08
-1.004420815e-07
-1.031823208e-07
-1.057880235e-07
-1.102902423e-07
-1.16301558e-07
-1.223693346e-07
-1.278265296e-07
-1.292171154e-07
-1.326080762e-07
-1.38964933e-07
-1.459364452e-07
-1.510569986e-07
-1.569113304e-07
-1.595355852e-07
-1.652273804e-07
-1.713717007e-07
-1.786895334e-07
-1.87282723e-07
-1.917965274e-07
-1.95500835e-07
-2.036881894e-07
-2.12038982e-07
-2.173136121e-07
-2.227491705e-07
-2.271962012e-07
-2.336587452e-07
-2.435418036e-07
-2.543961466e-07
-2.568537505e-07
-2.653561194e-07
-2.761447047e-07
-2.823630318e-07
-2.873430757e-07
-2.956756994e-07
-3.037843456e-07
-3.113385846e-07
-3.178230189e-07
-3.25102281e-07
-3.323578879e-07
-3.381125115e-07
-3.457191489e-07
-3.559095392e-07
-3.616985418e-07
-3.699131643e-07
-3.761294098e-07
-3.833683814e-07
-3.915595478e-07
-3.984849516e-07
-4.037193119e-07
-4.086196937e-07
-4.15507553e-07
-3.922498321e-07
-3.63358056e-07
-3.759777957e-07
-3.739383159e-07
-3.707905133e-07
)


100
(
1.23527813e-08
1.28908126e-08
1.2950148e-08
1.288022242e-08
1.215274985e-08
1.181991926e-08
1.083847115e-08
1.030612044e-08
8.950865165e-09
7.959261417e-09
6.718396171e-09
5.131437714e-09
3.653672871e-09
2.034278398e-09
2.095500456e-10
-1.984243834e-09
-4.227344469e-09
-6.087261063e-09
-8.120051899e-09
-1.08790842e-08
-1.36591776e-08
-1.539882284e-08
-1.697441508e-08
-2.016850593e-08
-2.366981934e-08
-2.646136708e-08
-2.793547012e-08
-3.019552301e-08
-3.449541738e-08
-3.944488766e-08
-4.541628477e-08
-4.935347787e-08
-4.80148388e-08
-4.945350842e-08
-5.501063362e-08
-6.267339396e-08
-6.522496163e-08
-6.716555466e-08
-7.065108939e-08
-7.686404349e-08
-8.121886725e-08
-8.40838805e-08
-8.53585291e-08
-8.888411901e-08
-9.408485314e-08
-1.000658243e-07
-1.059809906e-07
-1.086132596e-07
-1.101700169e-07
-1.161047635e-07
-1.22485987e-07
-1.284366009e-07
-1.337483254e-07
-1.36879265e-07
-1.405009823e-07
-1.471574013e-07
-1.528636103e-07
-1.608604774e-07
-1.682155472e-07
-1.702649125e-07
-1.740252814e-07
-1.822826928e-07
-1.909064881e-07
-1.969380788e-07
-2.00998241e-07
-2.055037954e-07
-2.120739883e-07
-2.209346667e-07
-2.314900753e-07
-2.333889664e-07
-2.399841496e-07
-2.509016087e-07
-2.593039374e-07
-2.645477489e-07
-2.701509465e-07
-2.793747446e-07
-2.865006282e-07
-2.916529411e-07
-2.977244296e-07
-3.045669763e-07
-3.117788915e-07
-3.180889717e-07
-3.26119613e-07
-3.351527786e-07
-3.405694082e-07
-3.475341893e-07
-3.515995475e-07
-3.592521448e-07
-3.652417207e-07
-3.722737996e-07
-3.798724461e-07
-3.846748151e-07
-3.913337192e-07
-3.945181706e-07
-4.004909837e-07
-3.55271237e-07
-3.383646105e-07
-3.596532932e-07
-3.589686916e-07
-3.596883034e-07
)


100
(
1.273010359e-08
1.319962435e-08
1.34093489e-08
1.313953757e-08
1.278141964e-08
1.247672326e-08
1.164862227e-08
1.101882042e-08
1.015495625e-08
8.868525793e-09
7.916153495e-09
6.530239618e-09
4.971823545e-09
3.458161227e-09
1.839928752e-09
7.300850955e-11
-2.143175881e-09
-4.376958576e-09
-6.162805768e-09
-7.991131603e-09
-1.077997455e-08
-1.360790117e-08
-1.553161717e-08
-1.701453251e-08
-1.973681151e-08
-2.329746355e-08
-2.657311866e-08
-2.82415076e-08
-2.9829894e-08
-3.376129659e-08
-3.877628483e-08
-4.583403228e-08
-4.948757559e-08
-4.961633178e-08
-5.128413509e-08
-5.658843731e-08
-6.18410061e-08
-6.581873857e-08
-6.744737199e-08
-7.008782352e-08
-7.435498401e-08
-7.98436701e-08
-8.537139093e-08
-8.839907867e-08
-8.943853548e-08
-9.318259076e-08
-9.921585509e-08
-1.054487614e-07
-1.104233583e-07
-1.133641727e-07
-1.163144805e-07
-1.220804302e-07
-1.278896105e-07
-1.341072822e-07
-1.420963168e-07
-1.454157253e-07
-1.472457689e-07
-1.538499134e-07
-1.621814911e-07
-1.701598153e-07
-1.760744596e-07
-1.77633945e-07
-1.821125214e-07
-1.889025208e-07
-1.967421585e-07
-2.060443535e-07
-2.091869235e-07
-2.140316199e-07
-2.252196129e-07
-2.360289912e-07
-2.406286936e-07
-2.438742497e-07
-2.520356918e-07
-2.578782664e-07
-2.632573126e-07
-2.678617503e-07
-2.743825509e-07
-2.812678899e-07
-2.881290834e-07
-2.955945408e-07
-3.037958935e-07
-3.094579769e-07
-3.150202638e-07
-3.216954255e-07
-3.284198515e-07
-3.335029693e-07
-3.394271179e-07
-3.446227064e-07
-3.502735945e-07
-3.570075327e-07
-3.621912138e-07
-3.667131478e-07
-3.705274634e-07
-3.741991234e-07
-3.723251728e-07
-3.23041496e-07
-3.241728969e-07
-3.456089717e-07
-3.504989336e-07
-3.543019407e-07
)


100
(
1.292765876e-08
1.348664247e-08
1.365457021e-08
1.341128247e-08
1.34624869e-08
1.288424826e-08
1.259145148e-08
1.162065111e-08
1.12182019e-08
1.004404186e-08
8.886376305e-09
7.883353382e-09
6.402109363e-09
4.88318161e-09
3.373570437e-09
1.820209379e-09
1.600622665e-10
-2.012007832e-09
-4.219663057e-09
-5.979372633e-09
-7.611281093e-09
-1.035281626e-08
-1.324160422e-08
-1.545984669e-08
-1.690494418e-08
-1.903690038e-08
-2.254777692e-08
-2.594394629e-08
-2.838278364e-08
-3.001201309e-08
-3.285652475e-08
-3.792088256e-08
-4.521938892e-08
-4.867792065e-08
-5.000041267e-08
-5.116425104e-08
-5.469369049e-08
-5.888961848e-08
-6.412692013e-08
-6.80231292e-08
-6.977571282e-08
-7.281733356e-08
-7.829899834e-08
-8.414353372e-08
-8.933036742e-08
-9.130770165e-08
-9.294226582e-08
-9.777803616e-08
-1.043931938e-07
-1.094028451e-07
-1.154412278e-07
-1.192881357e-07
-1.215550265e-07
-1.259683538e-07
-1.336115962e-07
-1.419528924e-07
-1.498201607e-07
-1.498618721e-07
-1.529424873e-07
-1.605670004e-07
-1.66595297e-07
-1.734280004e-07
-1.791004341e-07
-1.807201745e-07
-1.855110299e-07
-1.969422861e-07
-2.080953661e-07
-2.127750031e-07
-2.147934611e-07
-2.251865628e-07
-2.309653112e-07
-2.359776853e-07
-2.405905472e-07
-2.45366177e-07
-2.505211889e-07
-2.564586847e-07
-2.639825886e-07
-2.704213859e-07
-2.764507211e-07
-2.819201075e-07
-2.868714756e-07
-2.922139344e-07
-2.995554054e-07
-3.056658703e-07
-3.100600347e-07
-3.129884661e-07
-3.223428715e-07
-3.259717285e-07
-3.330570876e-07
-3.338851679e-07
-3.364750959e-07
-3.386609242e-07
-3.417825678e-07
-3.430146194e-07
-3.344662992e-07
-3.015494976e-07
-3.188759711e-07
-3.32844247e-07
-3.455025295e-07
-3.480333126e-07
)


100
(
1.29288633e-08
1.367896795e-08
1.383243411e-08
1.396419607e-08
1.395548062e-08
1.345090726e-08
1.328267479e-08
1.258158274e-08
1.187872293e-08
1.130686068e-08
1.000511356e-08
8.939653807e-09
7.86521348e-09
6.430821175e-09
4.957299435e-09
3.472833099e-09
1.99132975e-09
4.374663528e-10
-1.647140424e-09
-3.844010955e-09
-5.639692387e-09
-7.218464986e-09
-9.69592522e-09
-1.262946482e-08
-1.51990676e-08
-1.669010574e-08
-1.834281398e-08
-2.150368323e-08
-2.498744367e-08
-2.812954847e-08
-3.030262265e-08
-3.250219238e-08
-3.654020261e-08
-4.181952144e-08
-4.560271164e-08
-4.895296379e-08
-5.086878271e-08
-5.265054494e-08
-5.698574614e-08
-6.235197667e-08
-6.760783056e-08
-7.02282813e-08
-7.138103169e-08
-7.586615513e-08
-8.173669675e-08
-8.730035683e-08
-9.205344106e-08
-9.508226678e-08
-9.729791929e-08
-1.015361881e-07
-1.066818038e-07
-1.143738084e-07
-1.220973682e-07
-1.241362715e-07
-1.237909617e-07
-1.309803871e-07
-1.393829586e-07
-1.4637966e-07
-1.511518188e-07
-1.522105306e-07
-1.533222739e-07
-1.590644299e-07
-1.704530363e-07
-1.816096663e-07
-1.82005865e-07
-1.844046838e-07
-1.949623817e-07
-2.024324729e-07
-2.070479377e-07
-2.109699248e-07
-2.162643812e-07
-2.22773701e-07
-2.290934837e-07
-2.335700557e-07
-2.387627079e-07
-2.445757745e-07
-2.498416928e-07
-2.544805608e-07
-2.586663358e-07
-2.633674868e-07
-2.700364553e-07
-2.743991767e-07
-2.803218586e-07
-2.830307025e-07
-2.87467152e-07
-2.943334573e-07
-3.010039428e-07
-3.048193646e-07
-3.055842085e-07
-3.072085356e-07
-3.069401661e-07
-3.093711788e-07
-3.086549995e-07
-3.120179241e-07
-3.018764719e-07
-2.869963718e-07
-3.077515542e-07
-3.210066428e-07
-3.381114273e-07
-3.458720444e-07
)


100
(
1.293319558e-08
1.387740412e-08
1.420383051e-08
1.447596467e-08
1.422669331e-08
1.421947772e-08
1.371128344e-08
1.358033175e-08
1.262127495e-08
1.215410009e-08
1.135139626e-08
1.005876532e-08
9.089388175e-09
8.015410492e-09
6.648121673e-09
5.22055863e-09
3.751533163e-09
2.314928721e-09
8.528903707e-10
-1.108838582e-09
-3.312270207e-09
-5.209603665e-09
-6.724232974e-09
-8.843013404e-09
-1.175885665e-08
-1.447380371e-08
-1.642643009e-08
-1.806777511e-08
-2.044628942e-08
-2.394831093e-08
-2.741433781e-08
-3.072885378e-08
-3.288974281e-08
-3.510076153e-08
-3.898973771e-08
-4.349431592e-08
-4.827668974e-08
-5.118682069e-08
-5.220391713e-08
-5.46938708e-08
-5.991973718e-08
-6.540346904e-08
-6.972697113e-08
-7.19820134e-08
-7.451061563e-08
-7.914254265e-08
-8.426010649e-08
-8.933116833e-08
-9.593579932e-08
-9.915812415e-08
-1.004083465e-07
-1.045254154e-07
-1.122706892e-07
-1.201737371e-07
-1.247874718e-07
-1.257302053e-07
-1.271188867e-07
-1.333909661e-07
-1.380336663e-07
-1.46575397e-07
-1.525725109e-07
-1.526827905e-07
-1.572564162e-07
-1.685927897e-07
-1.783174367e-07
-1.822196821e-07
-1.843064985e-07
-1.880772752e-07
-1.933111092e-07
-1.983811671e-07
-2.024804353e-07
-2.067809598e-07
-2.125532771e-07
-2.183625891e-07
-2.241954671e-07
-2.293060657e-07
-2.334968325e-07
-2.373639594e-07
-2.411239151e-07
-2.451156182e-07
-2.510782186e-07
-2.559885983e-07
-2.576947718e-07
-2.604275612e-07
-2.656648003e-07
-2.739458982e-07
-2.75699121e-07
-2.76966947e-07
-2.78047298e-07
-2.797192575e-07
-2.818612052e-07
-2.831227546e-07
-2.801010986e-07
-2.812984652e-07
-2.678514184e-07
-2.684419232e-07
-2.863536295e-07
-3.038311459e-07
-3.221041234e-07
-3.432788102e-07
)


100
(
1.315571776e-08
1.412546038e-08
1.45842065e-08
1.479517762e-08
1.464992969e-08
1.484493805e-08
1.43412812e-08
1.418102875e-08
1.372766909e-08
1.284584392e-08
1.241753801e-08
1.149622421e-08
1.030772578e-08
9.372703665e-09
8.331454498e-09
7.039634563e-09
5.654782784e-09
4.181444182e-09
2.77065919e-09
1.390255172e-09
-4.140868561e-10
-2.628432833e-09
-4.649827502e-09
-6.145997018e-09
-7.882517282e-09
-1.067347882e-08
-1.352728186e-08
-1.61418034e-08
-1.798396667e-08
-1.984132895e-08
-2.276586443e-08
-2.63245859e-08
-3.030531187e-08
-3.328416938e-08
-3.497965855e-08
-3.6855319e-08
-4.121524282e-08
-4.618097609e-08
-5.066232898e-08
-5.22593145e-08
-5.351321304e-08
-5.728671136e-08
-6.276636002e-08
-6.735974608e-08
-7.183831005e-08
-7.495300394e-08
-7.703249169e-08
-8.079104082e-08
-8.67087355e-08
-9.400795612e-08
-1.004795804e-07
-1.009354941e-07
-1.019165306e-07
-1.088153207e-07
-1.161513057e-07
-1.196812717e-07
-1.24224652e-07
-1.250910316e-07
-1.265227425e-07
-1.345047438e-07
-1.451893343e-07
-1.545771866e-07
-1.534991452e-07
-1.551682754e-07
-1.638363168e-07
-1.685104185e-07
-1.727078263e-07
-1.765900096e-07
-1.805292776e-07
-1.850064509e-07
-1.893478972e-07
-1.941631729e-07
-1.977325739e-07
-2.030437768e-07
-2.08131928e-07
-2.128818889e-07
-2.164197647e-07
-2.19119475e-07
-2.252600072e-07
-2.304969223e-07
-2.304182575e-07
-2.336306111e-07
-2.33756062e-07
-2.41992554e-07
-2.471197964e-07
-2.485930731e-07
-2.501705212e-07
-2.510296844e-07
-2.531704825e-07
-2.52687619e-07
-2.528992598e-07
-2.495690822e-07
-2.497067843e-07
-2.460860621e-07
-2.288829377e-07
-2.434314421e-07
-2.619660065e-07
-2.784958211e-07
-2.968737432e-07
-3.154849081e-07
)


100
(
1.351953199e-08
1.439736563e-08
1.491423056e-08
1.499824212e-08
1.524320808e-08
1.513806008e-08
1.518181777e-08
1.463790351e-08
1.466042627e-08
1.390084915e-08
1.318942835e-08
1.279126727e-08
1.177150957e-08
1.066882743e-08
9.780179433e-09
8.784338964e-09
7.570852752e-09
6.235294233e-09
4.74887129e-09
3.356989709e-09
2.052806196e-09
4.400281306e-10
-1.747826174e-09
-3.836477041e-09
-5.526155504e-09
-7.174578488e-09
-9.511458621e-09
-1.244391631e-08
-1.53373499e-08
-1.788677069e-08
-1.968175047e-08
-2.146350029e-08
-2.482732575e-08
-2.894410459e-08
-3.299144237e-08
-3.464619209e-08
-3.547337149e-08
-3.860840978e-08
-4.347585782e-08
-4.816693397e-08
-5.18593917e-08
-5.37847945e-08
-5.557774083e-08
-5.926927625e-08
-6.341697293e-08
-6.913951075e-08
-7.565162794e-08
-7.78146136e-08
-7.787850855e-08
-8.315941458e-08
-9.036617883e-08
-9.682953149e-08
-1.004803401e-07
-1.014385457e-07
-1.028375239e-07
-1.072636271e-07
-1.136233213e-07
-1.22762978e-07
-1.265847897e-07
-1.254151765e-07
-1.318761651e-07
-1.422120791e-07
-1.481666491e-07
-1.509640544e-07
-1.532237755e-07
-1.553764769e-07
-1.589618673e-07
-1.634401398e-07
-1.670357388e-07
-1.707707898e-07
-1.755568548e-07
-1.805056199e-07
-1.850818908e-07
-1.897235233e-07
-1.936483449e-07
-1.972223694e-07
-1.976845624e-07
-2.008780696e-07
-2.053856897e-07
-2.109954088e-07
-2.119272954e-07
-2.152292639e-07
-2.174176824e-07
-2.192085827e-07
-2.247617659e-07
-2.248762415e-07
-2.252357829e-07
-2.255667408e-07
-2.250527849e-07
-2.265894226e-07
-2.223894744e-07
-2.179017531e-07
-2.169615806e-07
-2.132073184e-07
-2.02790453e-07
-2.121636042e-07
-2.349041894e-07
-2.503863224e-07
-2.660114463e-07
-2.861616965e-07
)


100
(
1.366562782e-08
1.461452448e-08
1.511501407e-08
1.53679066e-08
1.576558158e-08
1.552020061e-08
1.58006144e-08
1.545379277e-08
1.51756972e-08
1.50434932e-08
1.419266582e-08
1.362623434e-08
1.321846795e-08
1.218535219e-08
1.115429653e-08
1.029594659e-08
9.360156562e-09
8.230280237e-09
6.953683771e-09
5.469658662e-09
4.089403233e-09
2.829811001e-09
1.406438103e-09
-6.791385456e-10
-2.854907249e-09
-4.873933558e-09
-6.569326687e-09
-8.378553687e-09
-1.109862239e-08
-1.415458578e-08
-1.745884586e-08
-1.937558063e-08
-2.053545336e-08
-2.274906647e-08