/*--------------------------------*- C++ -*----------------------------------*\
| =========                 |                                                 |
| \\      /  F ield         | OpenFOAM: The Open Source CFD Toolbox           |
|  \\    /   O peration     | Version:  2.3.1                                 |
|   \\  /    A nd           | Web:      www.OpenFOAM.org                      |
|    \\/     M anipulation  |                                                 |
\*---------------------------------------------------------------------------*/
FoamFile
{
    version     2.0;
    format      ascii;
    class       dictionary;
    location    "constant";
    object      DPSI15;
}
// * * * * * * * * * * * * * * * * * * * * * * * * * * * * * * * * * * * * * //

DPSI15_table
100
(

100
(
1.419254642e-10
3.32762183e-10
5.030932687e-10
6.493281543e-10
7.199484039e-10
7.608003896e-10
8.760906763e-10
8.385539424e-10
8.926100106e-10
8.549966909e-10
8.554291756e-10
8.343991423e-10
8.154013208e-10
8.173854107e-10
7.750650331e-10
7.461520258e-10
7.361428063e-10
6.817295444e-10
6.29120492e-10
6.131778257e-10
5.542778274e-10
4.903655187e-10
4.551603692e-10
4.174994723e-10
3.39869123e-10
2.858580918e-10
2.615412355e-10
2.135928332e-10
1.362696061e-10
8.667165547e-11
6.092819421e-11
-6.514109402e-13
-7.245178818e-11
-1.144876423e-10
-1.378253247e-10
-1.77723946e-10
-2.573767258e-10
-3.106744394e-10
-3.378862257e-10
-3.751316086e-10
-4.446901063e-10
-4.989507035e-10
-5.251318831e-10
-5.609967178e-10
-6.233904308e-10
-6.769198214e-10
-7.013219333e-10
-7.218790991e-10
-7.780167233e-10
-8.329238257e-10
-8.690123927e-10
-8.925753307e-10
-9.383402863e-10
-9.824458388e-10
-1.015013968e-09
-1.040192126e-09
-1.078656984e-09
-1.118695822e-09
-1.169675945e-09
-1.296502268e-09
-1.538146058e-09
-1.567879295e-09
-1.436160018e-09
-1.502831637e-09
-1.720099971e-09
-1.746589884e-09
-1.62743701e-09
-1.763654379e-09
-1.939203479e-09
-1.893126603e-09
-1.847210241e-09
-2.023777235e-09
-2.105448665e-09
-1.981302487e-09
-2.196924426e-09
-2.332624598e-09
-2.161797306e-09
-2.31771913e-09
-2.437447086e-09
-2.253054642e-09
-2.456926085e-09
-2.4276648e-09
-2.408176115e-09
-2.630833436e-09
-2.391568001e-09
-2.583319205e-09
-2.531913051e-09
-2.547064649e-09
-2.657859802e-09
-2.625141939e-09
-2.730443551e-09
-2.771792218e-09
-2.894907662e-09
-2.934616672e-09
-3.067683764e-09
-3.077846735e-09
-3.116760958e-09
-2.977290855e-09
-1.807115843e-09
-8.173059434e-10
)


100
(
1.417686281e-10
3.320602191e-10
4.951007333e-10
6.29969494e-10
6.735127334e-10
7.348861586e-10
7.747317112e-10
7.971001566e-10
7.978763877e-10
7.981193493e-10
7.802493916e-10
7.459583544e-10
7.23522892e-10
7.028522499e-10
6.597484735e-10
6.278236745e-10
6.033021036e-10
5.435774136e-10
5.010045745e-10
4.700702534e-10
4.14232265e-10
3.587489963e-10
3.179863481e-10
2.781444317e-10
2.122274297e-10
1.595982575e-10
1.242163586e-10
8.239212287e-11
2.16845554e-11
-2.956957218e-11
-6.640101676e-11
-1.160770672e-10
-1.737863022e-10
-2.224559282e-10
-2.588356911e-10
-2.934639402e-10
-3.491061268e-10
-3.983756209e-10
-4.426936403e-10
-4.841954138e-10
-5.360500728e-10
-5.836123142e-10
-6.26275862e-10
-6.759409166e-10
-7.252089989e-10
-7.689494107e-10
-8.062383755e-10
-8.447467729e-10
-8.968087257e-10
-9.375909447e-10
-9.748626713e-10
-1.021996089e-09
-1.100447544e-09
-1.152295823e-09
-1.199657205e-09
-1.254090893e-09
-1.348603529e-09
-1.394224556e-09
-1.441278589e-09
-1.512578619e-09
-1.689417446e-09
-1.877315374e-09
-1.978325923e-09
-1.983206274e-09
-1.997127763e-09
-2.108385731e-09
-2.194652457e-09
-2.234437392e-09
-2.27212388e-09
-2.353236736e-09
-2.404285364e-09
-2.435577992e-09
-2.500388859e-09
-2.556485315e-09
-2.620324265e-09
-2.762812963e-09
-2.946290885e-09
-2.963026727e-09
-2.986818236e-09
-3.144377754e-09
-3.165476745e-09
-3.255631937e-09
-3.387099599e-09
-3.478832947e-09
-3.607828669e-09
-3.715421197e-09
-3.842276826e-09
-3.977165221e-09
-4.10216932e-09
-4.26817236e-09
-4.409760389e-09
-4.572164459e-09
-4.734713767e-09
-4.910820532e-09
-5.065512237e-09
-5.237502089e-09
-5.335623886e-09
-4.55731884e-09
-3.016916733e-09
-1.79294161e-09
)


100
(
1.415924694e-10
3.197666416e-10
4.713646107e-10
5.480037424e-10
6.046959144e-10
6.727162057e-10
6.409007472e-10
7.003995357e-10
6.568554776e-10
6.616151051e-10
6.436809801e-10
5.890467921e-10
5.662122055e-10
5.233679411e-10
4.74574798e-10
4.427262056e-10
4.076310785e-10
3.519086594e-10
3.151419349e-10
2.778814879e-10
2.295961513e-10
1.875699184e-10
1.453170842e-10
1.041971603e-10
5.839790324e-11
1.547513706e-11
-3.04132069e-11
-7.172559247e-11
-1.098794912e-10
-1.505686255e-10
-1.949935148e-10
-2.408370973e-10
-2.812549941e-10
-3.264075274e-10
-3.734158401e-10
-4.183029824e-10
-4.583155906e-10
-4.95651093e-10
-5.394240558e-10
-5.863286108e-10
-6.406405322e-10
-6.94844548e-10
-7.485655818e-10
-8.079346345e-10
-8.742456488e-10
-9.616824801e-10
-1.022806329e-09
-1.085292669e-09
-1.153381074e-09
-1.262326418e-09
-1.318779911e-09
-1.385408701e-09
-1.459913074e-09
-1.57592161e-09
-1.642471465e-09
-1.699865108e-09
-1.780055179e-09
-1.917425113e-09
-1.97777375e-09
-1.963031932e-09
-1.940868062e-09
-2.098542007e-09
-2.351662273e-09
-2.439967423e-09
-2.386150975e-09
-2.427878368e-09
-2.605603349e-09
-2.631542443e-09
-2.616205685e-09
-2.773518439e-09
-2.920588978e-09
-2.930176964e-09
-2.995872233e-09
-3.227077348e-09
-3.273527724e-09
-3.303501302e-09
-3.465404988e-09
-3.599418967e-09
-3.767964491e-09
-3.953944672e-09
-3.992773119e-09
-4.231439426e-09
-4.447394403e-09
-4.44691689e-09
-4.846653183e-09
-4.934354741e-09
-5.159119412e-09
-5.354608228e-09
-5.491353281e-09
-5.726044173e-09
-5.894576579e-09
-6.122307217e-09
-6.256685534e-09
-6.547034421e-09
-6.758931298e-09
-7.055675738e-09
-7.245905625e-09
-5.633806672e-09
-4.486488944e-09
-3.426647363e-09
)


100
(
1.414678389e-10
2.803306422e-10
4.13934489e-10
4.792391525e-10
5.684799276e-10
5.943057076e-10
6.03987518e-10
6.065344732e-10
6.080053159e-10
5.718811607e-10
5.761829621e-10
5.28115386e-10
4.953486283e-10
4.694006433e-10
4.241301885e-10
3.89863796e-10
3.64990526e-10
3.295528656e-10
2.91031396e-10
2.594547614e-10
2.241462237e-10
1.85997412e-10
1.493245774e-10
1.100245363e-10
6.9876052e-11
3.252226393e-11
-6.936399526e-12
-5.266018184e-11
-9.999293241e-11
-1.404484358e-10
-1.79280559e-10
-2.259477942e-10
-2.78116185e-10
-3.358726681e-10
-3.82924901e-10
-4.403532905e-10
-5.067265591e-10
-5.90936007e-10
-6.406109355e-10
-6.948486658e-10
-7.668993691e-10
-8.559207824e-10
-9.482832848e-10
-9.969092205e-10
-1.069089414e-09
-1.175438644e-09
-1.325707888e-09
-1.378748216e-09
-1.444626706e-09
-1.564666908e-09
-1.720801795e-09
-1.784026898e-09
-1.815303193e-09
-1.922274904e-09
-2.051546315e-09
-2.114457705e-09
-2.117512317e-09
-2.257936783e-09
-2.388563494e-09
-2.45429639e-09
-2.381921918e-09
-2.329293236e-09
-2.377630506e-09
-2.523588566e-09
-2.646978894e-09
-2.661316552e-09
-2.709786387e-09
-2.859917222e-09
-2.996320406e-09
-3.076832976e-09
-3.200768376e-09
-3.373202576e-09
-3.509558425e-09
-3.54114431e-09
-3.529360558e-09
-3.657659796e-09
-3.763331324e-09
-3.89924539e-09
-4.100444435e-09
-4.209507336e-09
-4.476835957e-09
-4.657821358e-09
-4.659366662e-09
-4.742070106e-09
-4.932297444e-09
-5.048177438e-09
-5.252241164e-09
-5.40752118e-09
-5.474148892e-09
-5.435957967e-09
-5.651224798e-09
-5.945241152e-09
-5.976990774e-09
-6.270881266e-09
-6.504861427e-09
-6.77032408e-09
-6.859011305e-09
-5.455716153e-09
-4.947047162e-09
-4.333009773e-09
)


100
(
1.414162995e-10
2.508175738e-10
3.629407895e-10
4.583236592e-10
5.310412839e-10
5.371214802e-10
5.766193114e-10
5.572328933e-10
5.82065861e-10
5.583522693e-10
5.479976314e-10
5.354074111e-10
4.94895361e-10
4.747172094e-10
4.502334998e-10
4.15249161e-10
3.894801094e-10
3.66493429e-10
3.372867766e-10
3.035401229e-10
2.710106033e-10
2.351838538e-10
1.969597963e-10
1.56929873e-10
1.129281609e-10
6.778390872e-11
2.68807869e-11
-1.354091259e-11
-6.810814816e-11
-1.337977375e-10
-2.007192985e-10
-2.494778494e-10
-3.07741876e-10
-3.815685365e-10
-4.749506935e-10
-5.273276411e-10
-5.853397943e-10
-6.702281961e-10
-8.118803474e-10
-8.77043613e-10
-9.254674181e-10
-9.915519209e-10
-1.124188935e-09
-1.219909996e-09
-1.255414193e-09
-1.279691906e-09
-1.437522848e-09
-1.593274869e-09
-1.627438447e-09
-1.634872708e-09
-1.780126404e-09
-1.922916953e-09
-1.988284837e-09
-2.001479952e-09
-2.111512483e-09
-2.245055926e-09
-2.323330209e-09
-2.331603105e-09
-2.391408335e-09
-2.487380741e-09
-2.544207912e-09
-2.534182985e-09
-2.505751539e-09
-2.53597177e-09
-2.657008036e-09
-2.83248569e-09
-2.934576823e-09
-3.017605334e-09
-3.141953065e-09
-3.257703947e-09
-3.38895989e-09
-3.440263325e-09
-3.464158197e-09
-3.471091139e-09
-3.508970582e-09
-3.511946691e-09
-3.760988573e-09
-3.820908332e-09
-3.861165627e-09
-3.984136134e-09
-3.919450288e-09
-3.898049469e-09
-4.087480917e-09
-4.159733418e-09
-4.19235583e-09
-4.168982373e-09
-4.281986307e-09
-4.349527425e-09
-4.201875286e-09
-4.302412352e-09
-4.461175397e-09
-4.446172691e-09
-4.609655249e-09
-4.699701061e-09
-4.84890866e-09
-5.092232607e-09
-4.625329009e-09
-4.420671681e-09
-4.511558035e-09
-4.421508838e-09
)


100
(
1.270072807e-10
2.445290621e-10
3.476459061e-10
4.338091604e-10
4.859679098e-10
5.239914312e-10
5.502450495e-10
5.601880337e-10
5.647836785e-10
5.780979575e-10
5.542997015e-10
5.556700131e-10
5.396263719e-10
5.089798701e-10
4.925838379e-10
4.712709696e-10
4.398247196e-10
4.14261601e-10
3.893651824e-10
3.580776792e-10
3.19015519e-10
2.801323888e-10
2.350833992e-10
1.846354865e-10
1.317398264e-10
7.558691597e-11
1.792364554e-11
-2.89563369e-11
-6.9464011e-11
-1.293194776e-10
-2.168793008e-10
-3.093149575e-10
-3.631336852e-10
-4.137353608e-10
-5.101208336e-10
-6.207740152e-10
-6.65449131e-10
-6.897509062e-10
-8.003271355e-10
-9.484180881e-10
-1.005800828e-09
-1.032691923e-09
-1.093713881e-09
-1.239881934e-09
-1.336674715e-09
-1.346195552e-09
-1.377463709e-09
-1.541972713e-09
-1.695319818e-09
-1.711602158e-09
-1.734353216e-09
-1.857025813e-09
-1.982286639e-09
-2.019273839e-09
-1.99074059e-09
-2.027644879e-09
-2.099413966e-09
-2.120412299e-09
-2.130466767e-09
-2.148553833e-09
-2.203684438e-09
-2.270772887e-09
-2.353177466e-09
-2.45801314e-09
-2.537343846e-09
-2.647868796e-09
-2.740896972e-09
-2.727993985e-09
-2.761901967e-09
-2.770718905e-09
-2.747793383e-09
-2.744370724e-09
-2.830322227e-09
-2.994756983e-09
-3.188265823e-09
-3.142987808e-09
-2.957433755e-09
-2.984972878e-09
-2.892687511e-09
-2.817890851e-09
-2.848258187e-09
-2.857549917e-09
-2.912175352e-09
-2.855081766e-09
-2.795777803e-09
-2.81086378e-09
-2.664575231e-09
-2.52630191e-09
-2.329675504e-09
-2.463383887e-09
-2.490189286e-09
-2.303418338e-09
-2.420844005e-09
-2.301605807e-09
-2.323404252e-09
-2.537393305e-09
-1.870186409e-09
-2.780391231e-09
-3.497762855e-09
-3.887573056e-09
)


100
(
1.03007187e-10
2.341732424e-10
3.304565943e-10
4.044272057e-10
4.527799816e-10
5.141559747e-10
5.31830435e-10
5.700754151e-10
5.684739933e-10
5.909494485e-10
5.931700447e-10
5.782300402e-10
5.824158857e-10
5.631118457e-10
5.362946773e-10
5.201865806e-10
4.974449094e-10
4.628326284e-10
4.319482792e-10
3.983107436e-10
3.563334882e-10
3.071465211e-10
2.57486282e-10
1.985474499e-10
1.289626377e-10
6.415875599e-11
3.368598103e-13
-5.968250944e-11
-9.787124147e-11
-1.2678956e-10
-1.752796519e-10
-2.846543299e-10
-3.746218124e-10
-4.163129444e-10
-4.440836666e-10
-5.686286848e-10
-6.808776081e-10
-7.181936089e-10
-7.09908886e-10
-8.496201269e-10
-9.999554184e-10
-1.058914261e-09
-1.059498296e-09
-1.143652976e-09
-1.291885039e-09
-1.383006262e-09
-1.373343335e-09
-1.385178498e-09
-1.522768747e-09
-1.604336726e-09
-1.580906182e-09
-1.528511705e-09
-1.54927759e-09
-1.579457585e-09
-1.603018806e-09
-1.626025873e-09
-1.636663436e-09
-1.6516483e-09
-1.735311758e-09
-1.837808087e-09
-1.903936918e-09
-1.930332514e-09
-2.023904325e-09
-2.098536398e-09
-2.052858053e-09
-1.96884646e-09
-1.946763591e-09
-1.905327695e-09
-1.828554039e-09
-1.838917834e-09
-1.872816157e-09
-1.934566924e-09
-2.039547545e-09
-2.042659618e-09
-1.899977531e-09
-1.929386347e-09
-1.722775646e-09
-1.616157845e-09
-1.592977741e-09
-1.666384087e-09
-1.669820271e-09
-1.534533876e-09
-1.25797473e-09
-1.171481994e-09
-1.042792202e-09
-9.707561326e-10
-7.25528086e-10
-5.741000431e-10
-5.825845286e-10
-4.239337436e-10
-2.154649769e-10
-1.565158987e-10
6.379159781e-11
2.098423398e-10
2.539003578e-10
1.872798098e-10
3.436720402e-10
-8.931109922e-10
-1.94566946e-09
-2.798215946e-09
)


100
(
9.340161101e-11
2.188997179e-10
3.075059886e-10
3.737436681e-10
4.416928822e-10
4.973467514e-10
5.327581155e-10
5.677008974e-10
5.914444544e-10
5.967473864e-10
6.26435593e-10
6.171064068e-10
6.092973221e-10
6.124760375e-10
5.873572253e-10
5.59986599e-10
5.394666327e-10
5.119164158e-10
4.706603629e-10
4.305407602e-10
3.853431414e-10
3.31043485e-10
2.774570207e-10
2.270768373e-10
1.653662304e-10
8.884475557e-11
1.763329115e-11
-4.864315866e-11
-1.043852764e-10
-1.276017541e-10
-1.387648667e-10
-1.848222593e-10
-3.128257714e-10
-3.983915312e-10
-4.204849424e-10
-4.555499741e-10
-5.942154586e-10
-7.060708622e-10
-7.087776644e-10
-7.263613375e-10
-8.632438443e-10
-1.006545463e-09
-1.038978971e-09
-1.048898902e-09
-1.114172594e-09
-1.228114386e-09
-1.227011679e-09
-1.16304942e-09
-1.086305876e-09
-1.112699503e-09
-1.092450738e-09
-1.084015154e-09
-1.068322762e-09
-1.072493194e-09
-1.123656817e-09
-1.220500993e-09
-1.322839557e-09
-1.382727101e-09
-1.409908602e-09
-1.480038958e-09
-1.531452521e-09
-1.464996716e-09
-1.345261185e-09
-1.228861453e-09
-1.144855344e-09
-1.033969441e-09
-9.95641235e-10
-1.050891628e-09
-1.073044603e-09
-1.123311261e-09
-1.165282873e-09
-1.02967323e-09
-8.321454027e-10
-6.702640026e-10
-4.898963014e-10
-4.190156853e-10
-5.054788115e-10
-5.098323363e-10
-4.704011817e-10
-2.860044226e-10
1.248242004e-11
1.842020687e-10
2.810301238e-10
3.833874362e-10
6.018064376e-10
8.845431096e-10
1.001086995e-09
1.140962525e-09
1.056489748e-09
1.192905849e-09
1.526049649e-09
1.729301919e-09
1.872011402e-09
1.996372057e-09
2.05343307e-09
2.183336381e-09
2.010491194e-09
8.791125075e-10
-1.573215281e-10
-1.200627852e-09
)


100
(
9.33083152e-11
1.943715566e-10
2.790432554e-10
3.539489835e-10
4.292543838e-10
4.774780515e-10
5.368400031e-10
5.61532099e-10
6.08636524e-10
6.181541834e-10
6.356545162e-10
6.607079439e-10
6.42421109e-10
6.380470534e-10
6.361641573e-10
6.047600736e-10
5.734112911e-10
5.459355794e-10
5.086026762e-10
4.650785631e-10
4.238407719e-10
3.754623144e-10
3.183584557e-10
2.703465479e-10
2.324250646e-10
1.761554162e-10
9.697362965e-11
1.161021445e-11
-6.570306093e-11
-1.201349044e-10
-1.311938856e-10
-1.162867024e-10
-1.874478684e-10
-3.229155731e-10
-4.037585158e-10
-4.022218296e-10
-4.631185971e-10
-6.032559152e-10
-6.974390407e-10
-6.860041683e-10
-6.967280978e-10
-7.953301435e-10
-8.74514518e-10
-8.473905179e-10
-7.832878254e-10
-7.594499379e-10
-7.510099016e-10
-7.16073851e-10
-6.791577602e-10
-6.472034588e-10
-6.515808564e-10
-6.997674624e-10
-7.818947763e-10
-8.593870168e-10
-8.809433069e-10
-8.712399638e-10
-9.267711947e-10
-9.583553512e-10
-8.845577394e-10
-7.510423262e-10
-6.269680112e-10
-5.275502007e-10
-3.98317536e-10
-3.335907998e-10
-3.698757786e-10
-3.850521822e-10
-3.733500993e-10
-4.261075469e-10
-3.888767835e-10
-1.693055019e-10
7.62321295e-11
2.902832934e-10
4.86153379e-10
5.056186979e-10
4.693861144e-10
5.047933724e-10
5.644222344e-10
7.925937668e-10
1.07980723e-09
1.291008297e-09
1.367968124e-09
1.446564383e-09
1.597621896e-09
1.81616209e-09
1.957467161e-09
2.087574086e-09
2.167532602e-09
2.30590609e-09
2.338153679e-09
2.479449134e-09
2.670891708e-09
2.746011416e-09
2.813974764e-09
2.844146618e-09
2.885280177e-09
3.163686967e-09
2.890282839e-09
2.146327983e-09
1.310876842e-09
4.03759758e-10
)


100
(
9.324764065e-11
1.763073895e-10
2.583332664e-10
3.387862482e-10
4.096377459e-10
4.677940819e-10
5.294803506e-10
5.698049799e-10
6.063098437e-10
6.440569172e-10
6.462302969e-10
6.734188467e-10
6.874934442e-10
6.658199159e-10
6.604919596e-10
6.511376011e-10
6.155991818e-10
5.800896503e-10
5.471749059e-10
5.095774308e-10
4.719388245e-10
4.387374968e-10
3.934560337e-10
3.367947748e-10
2.920280811e-10
2.634652643e-10
2.167389721e-10
1.347809283e-10
3.226744712e-11
-6.440937405e-11
-1.201449331e-10
-1.110960971e-10
-9.896303784e-11
-1.842565639e-10
-3.168847719e-10
-3.698529531e-10
-3.751504894e-10
-4.227465128e-10
-5.305030392e-10
-5.503008348e-10
-5.007080534e-10
-4.29633507e-10
-4.23340527e-10
-3.926058815e-10
-3.435645571e-10
-2.919766625e-10
-2.694034347e-10
-2.89681643e-10
-3.445225443e-10
-4.138780103e-10
-4.575366209e-10
-4.533293139e-10
-4.621809712e-10
-5.078264719e-10
-5.317619419e-10
-4.574152702e-10
-3.027367924e-10
-1.398612454e-10
1.383696398e-11
1.73914585e-10
2.765516469e-10
2.828819236e-10
2.838062368e-10
2.839606023e-10
2.283357282e-10
2.080953351e-10
3.731935798e-10
6.165844018e-10
8.399179206e-10
1.058135684e-09
1.21342353e-09
1.237741838e-09
1.282061063e-09
1.301656609e-09
1.368449304e-09
1.611578947e-09
1.863704725e-09
2.0586459e-09
2.147707974e-09
2.212801144e-09
2.301668157e-09
2.449876897e-09
2.583112415e-09
2.646282568e-09
2.670582778e-09
2.702510513e-09
2.813757054e-09
2.818282791e-09
2.89032016e-09
2.972701846e-09
3.030385689e-09
3.048066481e-09
3.103018008e-09
3.083338802e-09
3.195609304e-09
3.48592658e-09
3.172192622e-09
2.721728153e-09
2.203362874e-09
1.517580117e-09
)


100
(
8.5605988e-11
1.667391431e-10
2.439333371e-10
3.219010822e-10
3.872363476e-10
4.609401176e-10
5.127522795e-10
5.774415015e-10
6.035906814e-10
6.506443555e-10
6.75041319e-10
6.770934962e-10
7.073790579e-10
7.120321809e-10
6.873884188e-10
6.790775219e-10
6.668408361e-10
6.32672938e-10
6.017514452e-10
5.684424956e-10
5.328843316e-10
5.016268434e-10
4.767068266e-10
4.357449099e-10
3.785837624e-10
3.321812645e-10
3.077293037e-10
2.729186951e-10
1.931882346e-10
8.329732601e-11
-2.747871297e-11
-8.872917011e-11
-6.005249127e-11
-5.672527979e-11
-1.343243147e-10
-2.313606344e-10
-2.352589982e-10
-2.011490588e-10
-1.771566511e-10
-1.761579247e-10
-1.239146862e-10
-4.837549248e-11
2.314021027e-11
4.783501312e-11
3.439967113e-11
-2.0923043e-13
-3.149392804e-11
-4.200732046e-11
-5.173077928e-11
-9.633657304e-11
-1.515035722e-10
-1.618008859e-10
-8.792834678e-11
5.17578709e-11
2.06785154e-10
3.630287748e-10
5.274477856e-10
6.661491665e-10
7.414554364e-10
7.787190265e-10
8.100732478e-10
7.919215898e-10
7.802202491e-10
8.800853546e-10
1.067213209e-09
1.242057726e-09
1.430696088e-09
1.650879802e-09
1.803774116e-09
1.853198123e-09
1.884513204e-09
1.888795166e-09
1.986580676e-09
2.176334842e-09
2.367735593e-09
2.553925865e-09
2.651449537e-09
2.68976478e-09
2.734815003e-09
2.80711977e-09
2.882751995e-09
2.932398677e-09
2.947558524e-09
2.929183478e-09
2.93426485e-09
2.961497882e-09
2.953718911e-09
2.953845089e-09
2.962272389e-09
2.97470709e-09
2.983113383e-09
3.010122595e-09
2.993603252e-09
3.051640074e-09
3.197747722e-09
3.394109489e-09
3.128200876e-09
2.841282107e-09
2.512541616e-09
2.039584102e-09
)


100
(
6.918816261e-11
1.556045913e-10
2.29045931e-10
2.989037995e-10
3.720032195e-10
4.474649229e-10
5.033718312e-10
5.666683204e-10
6.148149787e-10
6.445537368e-10
6.92803578e-10
7.051884416e-10
7.121065601e-10
7.381934896e-10
7.380781505e-10
7.151081087e-10
7.068959084e-10
6.962853533e-10
6.700866755e-10
6.427410063e-10
6.113508276e-10
5.761678868e-10
5.495123587e-10
5.299274936e-10
4.943686678e-10
4.378968052e-10
3.893753384e-10
3.658538973e-10
3.42297141e-10
2.76773011e-10
1.723554134e-10
5.783093335e-11
2.25892284e-11
5.389316127e-11
8.793918315e-11
7.830489426e-11
8.41018904e-11
1.399708772e-10
2.059367369e-10
2.576081681e-10
2.741176008e-10
2.703491167e-10
2.662402508e-10
2.646656688e-10
2.653097118e-10
2.478252888e-10
2.043175333e-10
1.688664815e-10
1.875754719e-10
2.47898577e-10
3.308864169e-10
4.401568417e-10
5.849064913e-10
7.603262306e-10
9.616578386e-10
1.082907542e-09
1.149065058e-09
1.181720261e-09
1.165128441e-09
1.162261124e-09
1.240643616e-09
1.348167961e-09
1.486810252e-09
1.655570022e-09
1.892813137e-09
2.134064222e-09
2.208647641e-09
2.254481734e-09
2.278871496e-09
2.314461626e-09
2.417024859e-09
2.518856696e-09
2.633220548e-09
2.773986606e-09
2.845504553e-09
2.870887531e-09
2.907336772e-09
2.932751682e-09
2.957579201e-09
2.98914892e-09
3.005699641e-09
2.959336548e-09
2.911514077e-09
2.889621851e-09
2.900130194e-09
2.854980036e-09
2.814363503e-09
2.809084473e-09
2.794345656e-09
2.773548581e-09
2.779961805e-09
2.787754569e-09
2.811507119e-09
2.892895286e-09
2.93155964e-09
3.094422232e-09
2.89121851e-09
2.722139232e-09
2.486858098e-09
2.144675834e-09
)


100
(
6.035933525e-11
1.416058725e-10
2.097109887e-10
2.770761102e-10
3.574306256e-10
4.256238569e-10
4.976821821e-10
5.47221351e-10
6.177060718e-10
6.508107072e-10
6.884104289e-10
7.321713775e-10
7.355139309e-10
7.475827779e-10
7.734142375e-10
7.742298059e-10
7.544678867e-10
7.483919105e-10
7.417985321e-10
7.234709764e-10
6.982212599e-10
6.693806468e-10
6.344249721e-10
6.102144528e-10
5.944202583e-10
5.662067439e-10
5.159882735e-10
4.689029429e-10
4.473981487e-10
4.332150646e-10
3.953130015e-10
3.288135703e-10
2.587402394e-10
2.760615284e-10
3.42611859e-10
4.13322721e-10
4.567034807e-10
4.864749578e-10
5.133053477e-10
5.309980912e-10
5.302599739e-10
5.144746865e-10
4.808627868e-10
4.384709979e-10
4.254101823e-10
4.370903205e-10
4.633672782e-10
4.998055628e-10
5.723861138e-10
7.088565101e-10
9.118266553e-10
1.095932766e-09
1.243232384e-09
1.336121742e-09
1.3945055e-09
1.424971577e-09
1.487158519e-09
1.508695201e-09
1.556871055e-09
1.625620457e-09
1.732846745e-09
1.939852331e-09
2.161407916e-09
2.291766086e-09
2.375810016e-09
2.469843071e-09
2.545272036e-09
2.587829674e-09
2.603059764e-09
2.656732102e-09
2.740735312e-09
2.83419134e-09
2.871605704e-09
2.900329975e-09
2.906381629e-09
2.883806149e-09
2.868450779e-09
2.863637558e-09
2.867919837e-09
2.855606906e-09
2.794869565e-09
2.727223691e-09
2.707484332e-09
2.695115902e-09
2.647759715e-09
2.576598128e-09
2.585242255e-09
2.543969447e-09
2.512188721e-09
2.489600648e-09
2.46451662e-09
2.481394331e-09
2.492383152e-09
2.539018191e-09
2.622772283e-09
2.715595766e-09
2.570861198e-09
2.474578424e-09
2.345605829e-09
2.014303366e-09
)


100
(
6.029897489e-11
1.258292635e-10
1.902130241e-10
2.61451821e-10
3.383765843e-10
4.062356159e-10
4.829325295e-10
5.39820405e-10
5.992335486e-10
6.6096528e-10
6.864756578e-10
7.300779846e-10
7.670415562e-10
7.716669622e-10
7.884505907e-10
8.157545706e-10
8.200362536e-10
8.041222349e-10
8.007452961e-10
7.967455394e-10
7.849592114e-10
7.627157813e-10
7.360737194e-10
7.02594424e-10
6.817137186e-10
6.686435963e-10
6.502085244e-10
6.158665044e-10
5.83042613e-10
5.768139527e-10
5.862218899e-10
5.927425193e-10
5.82793486e-10
5.8581577e-10
6.241447643e-10
6.794202708e-10
7.101230714e-10
7.217905954e-10
7.218371708e-10
7.088124801e-10
6.998018647e-10
6.881531698e-10
6.684668781e-10
6.581436052e-10
6.512182994e-10
6.82266724e-10
7.837027279e-10
9.263453192e-10
1.076458611e-09
1.24047317e-09
1.383018292e-09
1.503704868e-09
1.611093203e-09
1.638669434e-09
1.633370709e-09
1.682040894e-09
1.72399898e-09
1.813054399e-09
1.97313749e-09
2.087245452e-09
2.195790332e-09
2.3161702e-09
2.469221985e-09
2.610736091e-09
2.604097316e-09
2.598830819e-09
2.647334697e-09
2.687488151e-09
2.737440189e-09
2.775270208e-09
2.812853847e-09
2.854289941e-09
2.853109884e-09
2.799212107e-09
2.737516484e-09
2.689720798e-09
2.661591636e-09
2.64866926e-09
2.614262212e-09
2.549552028e-09
2.491645861e-09
2.457476846e-09
2.448248585e-09
2.388877695e-09
2.330878556e-09
2.320989884e-09
2.304569048e-09
2.255085251e-09
2.222423088e-09
2.211714022e-09
2.200763971e-09
2.182846946e-09
2.191679715e-09
2.254641533e-09
2.38631428e-09
2.376852648e-09
2.267281354e-09
2.211884326e-09
2.143529353e-09
1.891308329e-09
)


100
(
6.026625605e-11
1.142151437e-10
1.758090383e-10
2.44826175e-10
3.145935817e-10
3.909515848e-10
4.579720938e-10
5.326181959e-10
5.797857198e-10
6.488934627e-10
6.986971649e-10
7.22882111e-10
7.723570211e-10
8.072011066e-10
8.139310038e-10
8.345782447e-10
8.635008452e-10
8.726503341e-10
8.600820423e-10
8.580008054e-10
8.556919312e-10
8.50563101e-10
8.319292831e-10
8.091798275e-10
7.81623481e-10
7.631432069e-10
7.595222416e-10
7.570000491e-10
7.505165156e-10
7.505771807e-10
7.691088997e-10
8.120909185e-10
8.353770966e-10
8.469608637e-10
8.572522262e-10
8.690846852e-10
8.87925995e-10
8.891526262e-10
8.709649405e-10
8.539318079e-10
8.433921428e-10
8.37383919e-10
8.621616884e-10
8.991520864e-10
9.603353597e-10
1.057494617e-09
1.186360443e-09
1.33619988e-09
1.535037067e-09
1.629857449e-09
1.676574923e-09
1.726275828e-09
1.783663568e-09
1.83861142e-09
1.907178163e-09
1.943985664e-09
1.992637464e-09
2.110438782e-09
2.218844295e-09
2.413330865e-09
2.520448209e-09
2.515302657e-09
2.550190926e-09
2.637432805e-09
2.697973577e-09
2.704269641e-09
2.674645352e-09
2.671462853e-09
2.693338634e-09
2.716951975e-09
2.714086704e-09
2.683139344e-09
2.63708562e-09
2.569703013e-09
2.517623849e-09
2.483136258e-09
2.443531617e-09
2.389980476e-09
2.321691503e-09
2.252994988e-09
2.237821752e-09
2.220483268e-09
2.158484952e-09
2.094177564e-09
2.080381882e-09
2.080737638e-09
2.020034105e-09
1.982726503e-09
1.975766328e-09
1.971602371e-09
1.977799173e-09
1.982329102e-09
2.02860996e-09
2.099227617e-09
2.15262083e-09
2.111759278e-09
2.020968195e-09
1.969708112e-09
1.921963918e-09
1.821171495e-09
)


100
(
5.401302994e-11
1.05498597e-10
1.62317162e-10
2.261070331e-10
2.933948803e-10
3.718352408e-10
4.361991801e-10
5.110659191e-10
5.740426038e-10
6.245426622e-10
6.952093379e-10
7.380302985e-10
7.672704162e-10
8.174047665e-10
8.524996206e-10
8.618082656e-10
8.846084812e-10
9.146749446e-10
9.292911171e-10
9.208094868e-10
9.185596776e-10
9.182163581e-10
9.217997613e-10
9.079686211e-10
8.91414621e-10
8.77035112e-10
8.703636994e-10
8.891940697e-10
9.086715979e-10
9.275734918e-10
9.516687373e-10
9.803768248e-10
1.021273127e-09
1.042722763e-09
1.035282117e-09
1.014929155e-09
1.012175563e-09
1.006273267e-09
1.01519956e-09
1.004535746e-09
9.992370695e-10
1.024063269e-09
1.081758345e-09
1.172667255e-09
1.32486016e-09
1.469033724e-09
1.579003288e-09
1.674896816e-09
1.765766625e-09
1.857667569e-09
1.958542197e-09
1.945323424e-09
1.942522831e-09
2.022059625e-09
2.110409275e-09
2.182492557e-09
2.32561146e-09
2.376971259e-09
2.39961183e-09
2.508858232e-09
2.629932589e-09
2.734731858e-09
2.649043611e-09
2.591478783e-09
2.624145912e-09
2.609717482e-09
2.605998531e-09
2.601828161e-09
2.601432363e-09
2.59094446e-09
2.548299365e-09
2.484572732e-09
2.399071505e-09
2.348971002e-09
2.318752997e-09
2.292662982e-09
2.235383594e-09
2.150076946e-09
2.095267277e-09
2.06473248e-09
2.015725197e-09
1.977215065e-09
1.906729049e-09
1.904389924e-09
1.889950212e-09
1.837759929e-09
1.80099103e-09
1.785176807e-09
1.785228547e-09
1.779088479e-09
1.779652016e-09
1.790762497e-09
1.83675693e-09
1.884412691e-09
1.909820653e-09
1.888879922e-09
1.830367701e-09
1.760546471e-09
1.714055075e-09
1.585600398e-09
)


100
(
4.350287224e-11
9.646777309e-11
1.48890744e-10
2.067425977e-10
2.754006111e-10
3.454725594e-10
4.191812825e-10
4.817978164e-10
5.610067583e-10
6.135954232e-10
6.718214854e-10
7.439018795e-10
7.800188373e-10
8.127392098e-10
8.648538069e-10
9.019937674e-10
9.141484678e-10
9.376056797e-10
9.68247451e-10
9.904741872e-10
9.866093396e-10
9.836477302e-10
9.885104519e-10
9.950415016e-10
9.991637322e-10
9.980924669e-10
1.002355411e-09
1.020287112e-09
1.049881402e-09
1.092823566e-09
1.11568254e-09
1.124837084e-09
1.143782047e-09
1.160485004e-09
1.182996349e-09
1.160700982e-09
1.126021329e-09
1.12059714e-09
1.129022138e-09
1.152016388e-09
1.213446869e-09
1.276551108e-09
1.357101794e-09
1.47648288e-09
1.600399409e-09
1.751972456e-09
1.92817243e-09
1.966658411e-09
1.935847121e-09
2.000043296e-09
2.070208549e-09
2.150829844e-09
2.224268569e-09
2.247997632e-09
2.270681315e-09
2.34797787e-09
2.450879222e-09
2.612293256e-09
2.65252895e-09
2.566864292e-09
2.615110703e-09
2.685483327e-09
2.675223922e-09
2.622961123e-09
2.567045571e-09
2.515444764e-09
2.502229383e-09
2.499045785e-09
2.463809889e-09
2.407910427e-09
2.347699102e-09
2.284075579e-09
2.232498301e-09
2.204539079e-09
2.164645995e-09
2.110068855e-09
2.017259036e-09
1.950266181e-09
1.910348509e-09
1.895208451e-09
1.846890444e-09
1.802248264e-09
1.75592399e-09
1.726509945e-09
1.713515731e-09
1.673444293e-09
1.651206458e-09
1.638862735e-09
1.632697878e-09
1.638155139e-09
1.632814992e-09
1.642982763e-09
1.664555128e-09
1.729384144e-09
1.760395346e-09
1.695582064e-09
1.66499001e-09
1.598018051e-09
1.538772756e-09
1.381152926e-09
)


100
(
3.922895884e-11
8.607074396e-11
1.348096581e-10
1.902943533e-10
2.568319189e-10
3.200648541e-10
3.968440373e-10
4.611650809e-10
5.31453891e-10
6.054190527e-10
6.540441844e-10
7.193921313e-10
7.906464287e-10
8.23890844e-10
8.594503011e-10
9.134259514e-10
9.550686791e-10
9.705570049e-10
9.926230965e-10
1.025163675e-09
1.057121182e-09
1.059391459e-09
1.056593439e-09
1.071601911e-09
1.088696696e-09
1.121831864e-09
1.139525951e-09
1.150969197e-09
1.178883987e-09
1.209802306e-09
1.263788486e-09
1.270935804e-09
1.255569537e-09
1.245582769e-09
1.257235306e-09
1.268897039e-09
1.279955913e-09
1.258822162e-09
1.265640409e-09
1.320255991e-09
1.408370919e-09
1.517148652e-09
1.69145445e-09
1.781957805e-09
1.842430011e-09
1.902600897e-09
2.016669176e-09
2.128308654e-09
2.216957152e-09
2.168132983e-09
2.168955636e-09
2.267607562e-09
2.31793461e-09
2.407255742e-09
2.497526269e-09
2.512874928e-09
2.469173551e-09
2.589413644e-09
2.695602897e-09
2.730924594e-09
2.633559432e-09
2.541922966e-09
2.545092562e-09
2.497134586e-09
2.46989123e-09
2.447476998e-09
2.42206027e-09
2.381720411e-09
2.323195802e-09
2.256195925e-09
2.172014037e-09
2.093966938e-09
2.067215002e-09
2.035924667e-09
1.986549183e-09
1.921565136e-09
1.868413717e-09
1.839502474e-09
1.794883861e-09
1.724180984e-09
1.674272452e-09
1.647939457e-09
1.646200078e-09
1.610168295e-09
1.56403798e-09