/*--------------------------------*- C++ -*----------------------------------*\
| =========                 |                                                 |
| \\      /  F ield         | OpenFOAM: The Open Source CFD Toolbox           |
|  \\    /   O peration     | Version:  2.3.1                                 |
|   \\  /    A nd           | Web:      www.OpenFOAM.org                      |
|    \\/     M anipulation  |                                                 |
\*---------------------------------------------------------------------------*/
FoamFile
{
    version     2.0;
    format      ascii;
    class       dictionary;
    location    "constant";
    object      DPSI30;
}
// * * * * * * * * * * * * * * * * * * * * * * * * * * * * * * * * * * * * * //

DPSI30_table
100
(

100
(
-2.024389029e-06
-1.550724554e-06
-8.559795174e-07
-5.295023596e-07
-3.325043243e-07
-1.924557438e-07
-1.005304891e-07
-2.639340717e-08
3.97256777e-08
8.03789431e-08
1.329813588e-07
1.793072596e-07
1.835704162e-07
2.25159324e-07
2.529915806e-07
2.468332058e-07
2.816536118e-07
3.114828468e-07
3.01589576e-07
3.233850706e-07
3.548962463e-07
3.560068581e-07
3.568477949e-07
3.825037931e-07
3.980740918e-07
3.890586313e-07
3.95538412e-07
4.219927242e-07
4.324591078e-07
4.233095327e-07
4.317097753e-07
4.496199062e-07
4.505105965e-07
4.416457703e-07
4.440437561e-07
4.686590609e-07
4.803885709e-07
4.699650954e-07
4.690454915e-07
4.861061238e-07
4.935429549e-07
4.833125696e-07
4.804956651e-07
4.914438809e-07
4.950741531e-07
4.856762014e-07
4.784020733e-07
4.98793501e-07
5.154432494e-07
5.059870872e-07
5.01871436e-07
5.152544233e-07
5.233950541e-07
5.14632618e-07
5.120095953e-07
5.173386941e-07
5.162012949e-07
5.070853036e-07
5.062358693e-07
5.181441707e-07
5.21074803e-07
5.110217479e-07
5.11267822e-07
5.213548075e-07
5.206338436e-07
5.09663556e-07
5.151675102e-07
5.231183815e-07
5.149386875e-07
5.101751182e-07
5.170421209e-07
5.161847869e-07
5.065629882e-07
5.118985998e-07
5.131032285e-07
5.033611428e-07
5.067705798e-07
5.054079357e-07
4.991904797e-07
4.998905043e-07
4.927645784e-07
4.919700909e-07
4.885431642e-07
4.837771413e-07
4.793640035e-07
4.747248207e-07
4.700201738e-07
4.631783245e-07
4.588527892e-07
4.503349331e-07
4.423926548e-07
4.36031473e-07
4.296030436e-07
4.224961954e-07
4.138595219e-07
4.080405495e-07
4.054798376e-07
4.035172522e-07
4.438090135e-07
4.775788921e-07
)


100
(
-2.056882294e-06
-1.594829628e-06
-9.029929988e-07
-5.709144598e-07
-3.761058579e-07
-2.317970275e-07
-1.347719005e-07
-6.048993145e-08
5.505475914e-09
5.403162881e-08
9.98434156e-08
1.472912508e-07
1.686401266e-07
1.943837057e-07
2.262872427e-07
2.38112902e-07
2.509005349e-07
2.807897337e-07
2.970531221e-07
3.02818168e-07
3.237895673e-07
3.449790611e-07
3.518967866e-07
3.57185266e-07
3.776208813e-07
3.914285304e-07
3.901695469e-07
3.919556642e-07
4.132675192e-07
4.300984802e-07
4.286542296e-07
4.298485913e-07
4.432886451e-07
4.527247158e-07
4.485139802e-07
4.451334412e-07
4.545066274e-07
4.738801979e-07
4.795327195e-07
4.739133067e-07
4.747814949e-07
4.892681729e-07
4.966846935e-07
4.906779837e-07
4.869131522e-07
4.96325328e-07
5.031452669e-07
4.971303735e-07
4.914168849e-07
4.990185873e-07
5.18962035e-07
5.251699668e-07
5.186779289e-07
5.206528112e-07
5.338760655e-07
5.379902337e-07
5.304782943e-07
5.285802225e-07
5.333683287e-07
5.401580261e-07
5.20199061e-07
5.065424646e-07
5.423929167e-07
5.587490939e-07
5.169872592e-07
5.012187919e-07
5.59295624e-07
5.521322382e-07
5.013298545e-07
5.238858659e-07
5.598093552e-07
5.208774365e-07
4.975209022e-07
5.632158149e-07
5.545958577e-07
4.831179472e-07
5.301153654e-07
5.550839419e-07
4.806545724e-07
5.236582564e-07
5.265062809e-07
4.803060233e-07
5.366237237e-07
4.796269301e-07
4.777999172e-07
5.176259481e-07
4.592909659e-07
4.906292466e-07
4.742392071e-07
4.612993568e-07
4.72634075e-07
4.724821328e-07
4.762919855e-07
4.787429207e-07
4.78676315e-07
4.855410064e-07
5.866154347e-07
1.12910025e-06
1.543037417e-06
1.474066711e-06
)


100
(
-2.079663691e-06
-1.634155366e-06
-9.492020095e-07
-6.155076397e-07
-4.179378659e-07
-2.716763517e-07
-1.700737693e-07
-9.314670975e-08
-2.895866968e-08
2.479934872e-08
6.983486741e-08
1.146596774e-07
1.472153488e-07
1.7019686e-07
1.970582013e-07
2.204950038e-07
2.348466236e-07
2.493895431e-07
2.738633643e-07
2.935729057e-07
3.029460713e-07
3.180505792e-07
3.385294396e-07
3.513414632e-07
3.569531661e-07
3.703064637e-07
3.85792111e-07
3.91750922e-07
3.931831008e-07
4.029530766e-07
4.225000399e-07
4.330025981e-07
4.330195714e-07
4.366796186e-07
4.483585563e-07
4.549088942e-07
4.519276753e-07
4.482476463e-07
4.576064482e-07
4.774833012e-07
4.836857532e-07
4.785721049e-07
4.75130189e-07
4.909769842e-07
5.045706026e-07
4.996714278e-07
4.946360356e-07
4.99199936e-07
5.097326806e-07
5.110549161e-07
5.058900464e-07
5.007798173e-07
5.222304995e-07
5.453916309e-07
5.422785746e-07
5.191616981e-07
5.334006461e-07
5.623696253e-07
5.544934313e-07
5.304228337e-07
5.439037064e-07
5.433562261e-07
5.152645829e-07
5.428556238e-07
5.704464502e-07
5.355497752e-07
5.004504504e-07
5.528142452e-07
5.610799437e-07
5.120292314e-07
5.060641931e-07
5.426698129e-07
5.454295469e-07
5.090199649e-07
5.307327177e-07
5.863267236e-07
5.474772416e-07
4.790475213e-07
5.229567301e-07
5.321181027e-07
5.257754963e-07
5.004611545e-07
5.274261154e-07
5.46168268e-07
4.727410404e-07
5.07097947e-07
5.116109932e-07
4.750840023e-07
4.957362014e-07
5.04135615e-07
4.941174466e-07
4.907275762e-07
5.07961388e-07
5.016566787e-07
4.961127522e-07
5.447488435e-07
8.819544358e-07
1.649927057e-06
2.003082034e-06
1.873684362e-06
)


100
(
-2.09550855e-06
-1.666991155e-06
-9.974955143e-07
-6.5764685e-07
-4.545565232e-07
-3.116090273e-07
-2.066168948e-07
-1.266569769e-07
-6.305112756e-08
-6.933227088e-09
4.04153919e-08
8.22797757e-08
1.199438585e-07
1.490838103e-07
1.705427774e-07
1.944580928e-07
2.171973445e-07
2.321728606e-07
2.442906349e-07
2.689922737e-07
2.917469987e-07
3.007428582e-07
3.111256373e-07
3.328037159e-07
3.504159753e-07
3.554718962e-07
3.627208928e-07
3.797138662e-07
3.924714875e-07
3.940661381e-07
3.952432723e-07
4.126446926e-07
4.326270233e-07
4.362260398e-07
4.355294603e-07
4.408082648e-07
4.528548549e-07
4.580398075e-07
4.544637952e-07
4.495400078e-07
4.57992725e-07
4.818240936e-07
4.926991947e-07
4.878392747e-07
4.753089082e-07
4.923153367e-07
5.16417551e-07
5.114865813e-07
4.844531711e-07
4.969515501e-07
5.307025028e-07
5.260364108e-07
5.001532898e-07
5.117171677e-07
5.56126437e-07
5.545794919e-07
5.022827133e-07
5.048040071e-07
5.655022289e-07
5.570191583e-07
5.141970908e-07
5.359137688e-07
5.540642426e-07
5.332624501e-07
5.361447566e-07
5.54843391e-07
5.464623588e-07
5.20967585e-07
5.202110331e-07
5.441366235e-07
5.576692836e-07
5.462186709e-07
5.30010556e-07
5.175268588e-07
5.350232853e-07
5.778106292e-07
5.334085797e-07
4.693131993e-07
5.582707787e-07
5.672404805e-07
4.839839588e-07
5.214610222e-07
5.298417313e-07
4.943784704e-07
4.987263436e-07
5.129650385e-07
5.173712075e-07
5.099312e-07
5.067090342e-07
5.005392182e-07
4.973997404e-07
5.045746217e-07
4.917879888e-07
4.904314015e-07
5.100595665e-07
5.548511415e-07
1.218570898e-06
2.111983598e-06
2.312288764e-06
2.191595861e-06
)


100
(
-2.111194524e-06
-1.693999863e-06
-1.035799125e-06
-6.94461058e-07
-4.944645182e-07
-3.50142442e-07
-2.424162653e-07
-1.605580179e-07
-9.541288157e-08
-3.998376754e-08
9.881838342e-09
5.283063042e-08
8.920934429e-08
1.227897913e-07
1.492964694e-07
1.682467581e-07
1.910150691e-07
2.139808968e-07
2.287205633e-07
2.406129362e-07
2.639395256e-07
2.871594155e-07
2.975317761e-07
3.052972725e-07
3.259090946e-07
3.469848673e-07
3.538271026e-07
3.576853921e-07
3.712936351e-07
3.883235034e-07
3.947199769e-07
3.955788225e-07
3.991386554e-07
4.221225482e-07
4.416413699e-07
4.409218388e-07
4.303056984e-07
4.424852006e-07
4.639920995e-07
4.619942953e-07
4.530239008e-07
4.488834791e-07
4.763960891e-07
4.996075254e-07
4.831125322e-07
4.446593701e-07
4.754169049e-07
5.274925764e-07
5.062763745e-07
4.645500487e-07
4.870010436e-07
5.370468642e-07
5.235879154e-07
4.911910767e-07
5.125436593e-07
5.581033158e-07
5.275682545e-07
4.822117542e-07
5.008102391e-07
5.406225288e-07
5.427581529e-07
5.221315053e-07
5.300423333e-07
5.553446646e-07
5.632941016e-07
5.547799995e-07
5.370018584e-07
5.394775058e-07
5.532123055e-07
5.46225811e-07
5.358537472e-07
5.287031665e-07
5.507458666e-07
5.769729446e-07
5.265572584e-07
4.725807791e-07
5.282051578e-07
5.563580757e-07
5.090955067e-07
4.876779056e-07
4.991433594e-07
5.346298273e-07
5.384480053e-07
5.11224485e-07
5.141604173e-07
5.007270894e-07
4.879253502e-07
5.035727511e-07
5.216829027e-07
5.065878067e-07
4.660870108e-07
4.879204046e-07
4.859304238e-07
4.66945508e-07
4.863222383e-07
6.165124171e-07
1.581749681e-06
2.515179389e-06
2.561787753e-06
2.450841837e-06
)


100
(
-2.120562998e-06
-1.716316747e-06
-1.070909024e-06
-7.308269834e-07
-5.341931706e-07
-3.878122935e-07
-2.782889214e-07
-1.956454013e-07
-1.281132587e-07
-7.287650114e-08
-2.245596202e-08
2.255562792e-08
6.041667896e-08
9.308706786e-08
1.236438731e-07
1.473711677e-07
1.647925518e-07
1.865935504e-07
2.096451988e-07
2.251351021e-07
2.369871721e-07
2.568765816e-07
2.800958471e-07
2.936795783e-07
3.021310812e-07
3.177442985e-07
3.399010973e-07
3.536882418e-07
3.578967818e-07
3.621626874e-07
3.803920064e-07
3.966549987e-07
3.970703998e-07
3.89678388e-07
4.126994082e-07
4.420493884e-07
4.40238975e-07
4.073115611e-07
4.197154871e-07
4.638284669e-07
4.632103738e-07
4.380437736e-07
4.345889373e-07
4.794894514e-07
5.021129192e-07
4.54615246e-07
4.10874812e-07
4.734931718e-07
5.260887868e-07
4.841704096e-07
4.506840212e-07
4.840078954e-07
5.209968526e-07
5.083326209e-07
4.908417326e-07
5.047984945e-07
5.134006746e-07
5.1456351e-07
5.201446357e-07
5.093216026e-07
5.104297309e-07
5.39867453e-07
5.56906997e-07
5.397225248e-07
5.18069488e-07
5.264016246e-07
5.530056061e-07
5.499656584e-07
5.328764711e-07
5.224274682e-07
5.379541936e-07
5.588082525e-07
5.523545622e-07
5.225031024e-07
5.386265086e-07
5.364092686e-07
4.955164147e-07
4.881957956e-07
4.999881083e-07
5.393384908e-07
5.35660951e-07
4.750060948e-07
4.829260836e-07
5.103047372e-07
4.937907234e-07
5.044430842e-07
5.060748464e-07
4.865785248e-07
4.725164248e-07
4.857672154e-07
4.769461171e-07
4.612263901e-07
4.496877121e-07
4.346452569e-07
4.595412633e-07
8.346166434e-07
1.941612397e-06
2.754724888e-06
2.763911827e-06
2.656676023e-06
)


100
(
-2.13511634e-06
-1.74054062e-06
-1.102944006e-06
-7.711530019e-07
-5.71535124e-07
-4.231730406e-07
-3.133500545e-07
-2.297414658e-07
-1.610433325e-07
-1.042877686e-07
-5.510098891e-08
-9.208778577e-09
3.082372763e-08
6.446692063e-08
9.431066775e-08
1.222833208e-07
1.439990026e-07
1.603333419e-07
1.805486533e-07
2.038757591e-07
2.207038232e-07
2.318461021e-07
2.469408462e-07
2.704744169e-07
2.890817958e-07
2.992815875e-07
3.17472541e-07
3.415645655e-07
3.529002442e-07
3.490500231e-07
3.452448326e-07
3.693815922e-07
3.937988564e-07
3.866161149e-07
3.739291885e-07
4.047972569e-07
4.398162589e-07
4.189989117e-07
3.814609943e-07
4.099725429e-07
4.594230212e-07
4.493186725e-07
4.19411258e-07
4.277006735e-07
4.79463159e-07
4.706100263e-07
4.225036451e-07
4.107087446e-07
4.639443508e-07
4.896601796e-07
4.590380674e-07
4.532664368e-07
4.676022237e-07
5.018841804e-07
5.172888825e-07
5.127787002e-07
5.029229125e-07
4.997069189e-07
5.162740415e-07
5.265654592e-07
5.140148235e-07
4.959013703e-07
4.846329456e-07
5.139692721e-07
5.382972338e-07
5.228706741e-07
5.199730906e-07
5.1142424e-07
5.240740552e-07
5.521379131e-07
5.422641906e-07
5.107938175e-07
5.093017254e-07
5.316174842e-07
5.19906466e-07
5.153980385e-07
5.136990214e-07
5.158796774e-07
5.150944586e-07
4.799161003e-07
4.824783742e-07
4.931520999e-07
4.782791195e-07
4.783523253e-07
4.801826829e-07
4.685368284e-07
4.767589497e-07
4.870955209e-07
4.600966049e-07
4.416317885e-07
4.528148531e-07
4.399121966e-07
4.093752578e-07
3.941372705e-07
4.003155603e-07
1.030986564e-06
2.284232677e-06
2.922314217e-06
2.9134457e-06
2.854283879e-06
)


100
(
-2.149643916e-06
-1.764995315e-06
-1.136005433e-06
-8.082381286e-07
-6.049104169e-07
-4.591644848e-07
-3.482119467e-07
-2.629598516e-07
-1.960466711e-07
-1.361692332e-07
-8.644889783e-08
-4.151767047e-08
-2.29760402e-10
3.556979418e-08
6.566996352e-08
9.282588113e-08
1.188108479e-07
1.393278676e-07
1.546421928e-07
1.726189442e-07
1.961516215e-07
2.145927252e-07
2.247824865e-07
2.348318875e-07
2.588703853e-07
2.833028192e-07
2.963177392e-07
3.189101732e-07
3.427894635e-07
3.487724915e-07
3.277693143e-07
3.259558872e-07
3.654534084e-07
3.881575856e-07
3.664733736e-07
3.552095752e-07
4.006105754e-07
4.295902947e-07
3.911035647e-07
3.582900771e-07
3.999564518e-07
4.451869339e-07
4.270971757e-07
4.026537269e-07
4.214465218e-07
4.477203724e-07
4.345589238e-07
4.136399067e-07
4.148182251e-07
4.382756511e-07
4.702931457e-07
4.824185395e-07
4.795389909e-07
4.651564987e-07
4.505313412e-07
4.829961123e-07
5.156580519e-07
5.045547524e-07
4.899537351e-07
4.82743574e-07
5.013596435e-07
5.103418232e-07
4.939139394e-07
4.924550302e-07
4.892774228e-07
4.89782962e-07
5.193854916e-07
5.380582736e-07
5.009208065e-07
4.621983313e-07
4.860520649e-07
5.110247786e-07
5.123694816e-07
5.137857439e-07
5.004997438e-07
5.18066238e-07
5.115573447e-07
4.612693583e-07
4.633473763e-07
4.87792424e-07
4.854805718e-07
4.748925273e-07
4.674853903e-07
4.55256706e-07
4.406003912e-07
4.426651651e-07
4.523280393e-07
4.608320393e-07
4.341038445e-07
3.94136429e-07
4.037280558e-07
4.018554329e-07
3.747818683e-07
3.469665227e-07
3.680897827e-07
1.248564668e-06
2.555078996e-06
3.037340624e-06
3.024754866e-06
2.96229082e-06
)


100
(
-2.158281307e-06
-1.785243886e-06
-1.166890464e-06
-8.400636506e-07
-6.385977155e-07
-4.933399181e-07
-3.828770108e-07
-2.95682891e-07
-2.280071187e-07
-1.68758128e-07
-1.172073603e-07
-7.354417604e-08
-3.255742615e-08
4.865621318e-09
3.727407817e-08
6.416271921e-08
8.864184234e-08
1.132836278e-07
1.332974405e-07
1.476324727e-07
1.628763888e-07
1.867425944e-07
2.075832608e-07
2.172925985e-07
2.249496565e-07
2.452174672e-07
2.728305952e-07
2.925218011e-07
3.192690778e-07
3.419441289e-07
3.357823799e-07
3.038984258e-07
3.102088589e-07
3.590953485e-07
3.696426477e-07
3.436089225e-07
3.436376297e-07
3.938682105e-07
4.000155093e-07
3.606604414e-07
3.493819481e-07
3.864213083e-07
4.14894115e-07
4.019953586e-07
3.95135824e-07
4.01329603e-07
4.225936473e-07
4.351996013e-07
4.334814708e-07
4.295162355e-07
4.219494459e-07
4.303462725e-07
4.620417193e-07
4.795458365e-07
4.624224044e-07
4.425835827e-07
4.374021852e-07
4.612997913e-07
4.887527604e-07
4.85772868e-07
4.871174277e-07
4.834808478e-07
4.746181541e-07
4.880696535e-07
4.972165452e-07
4.793856798e-07
4.569669905e-07
4.646594683e-07
4.895498942e-07
4.826194013e-07
4.76118914e-07
4.644619637e-07
4.733855932e-07
5.173601214e-07
4.86291654e-07
4.334454152e-07
4.496448396e-07
4.777139793e-07
4.739479251e-07
4.628219948e-07
4.57229932e-07
4.47966035e-07
4.360537502e-07
4.358902186e-07
4.401861326e-07
4.303348774e-07
4.164423696e-07
4.037448845e-07
3.995925271e-07
3.993620826e-07
3.784804321e-07
3.418788906e-07
3.026777877e-07
2.965140888e-07
3.697403691e-07
1.440056602e-06
2.765147184e-06
3.120396334e-06
3.127629896e-06
3.074771372e-06
)


100
(
-2.165179579e-06
-1.80046809e-06
-1.19091756e-06
-8.667056836e-07
-6.731919378e-07
-5.263471555e-07
-4.156885902e-07
-3.294052127e-07
-2.59560511e-07
-2.029331928e-07
-1.483953623e-07
-1.034002688e-07
-6.472861494e-08
-2.774753831e-08
6.463328539e-09
3.61385466e-08
6.006871272e-08
8.189112961e-08
1.060054552e-07
1.266599583e-07
1.403761097e-07
1.524339836e-07
1.760497461e-07
1.997013164e-07
2.097267522e-07
2.163338236e-07
2.298153913e-07
2.586538921e-07
2.86707363e-07
3.167097139e-07
3.375538363e-07
3.115752524e-07
2.781245378e-07
3.005576812e-07
3.487619456e-07
3.445689566e-07
3.195723789e-07
3.330768963e-07
3.677830435e-07
3.66809015e-07
3.439303784e-07
3.398447402e-07
3.616880663e-07
3.965309669e-07
4.077577061e-07
4.053844323e-07
3.961278603e-07
3.877393525e-07
4.076964745e-07
4.285767376e-07
4.262608546e-07
4.181964951e-07
4.113861987e-07
4.181514913e-07
4.471627751e-07
4.542970799e-07
4.376113434e-07
4.365092021e-07
4.337851032e-07
4.397220354e-07
4.71529942e-07
4.901412508e-07
4.652273455e-07
4.339661334e-07
4.396792236e-07
4.658867378e-07
4.640145474e-07
4.554446102e-07
4.532049436e-07
4.417754987e-07
4.618382532e-07
4.715176258e-07
4.332099665e-07
4.107817847e-07
4.378863263e-07
4.595300778e-07
4.490407664e-07
4.425804669e-07
4.411357221e-07
4.325247516e-07
4.204225481e-07
4.281890252e-07
4.373666761e-07
4.225648667e-07
4.055887148e-07
3.891521006e-07
3.60936573e-07
3.642906317e-07
3.689140829e-07
3.46768298e-07
3.256388366e-07
3.076780653e-07
2.695401419e-07
2.626561915e-07
4.151146996e-07
1.677790029e-06
2.964569158e-06
3.177689086e-06
3.218062219e-06
3.184084168e-06
)


100
(
-2.166200587e-06
-1.811259692e-06
-1.211745852e-06
-8.961536687e-07
-7.048347099e-07
-5.576317171e-07
-4.470260622e-07
-3.629313546e-07
-2.910712136e-07
-2.331988161e-07
-1.822826394e-07
-1.339306331e-07
-9.427525464e-08
-5.957462729e-08
-2.665560107e-08
4.938140202e-09
3.252053981e-08
5.413919081e-08
7.369483159e-08
9.793050169e-08
1.199094859e-07
1.331350097e-07
1.44158281e-07
1.638856875e-07
1.879778721e-07
2.016911997e-07
2.075622883e-07
2.147773506e-07
2.417679203e-07
2.752742254e-07
3.094601069e-07
3.191562163e-07
2.83816757e-07
2.601922549e-07
2.890538713e-07
3.222881061e-07
3.174516764e-07
3.076387726e-07
3.157317012e-07
3.36474121e-07
3.517062591e-07
3.540259177e-07
3.510955346e-07
3.434923309e-07
3.57268356e-07
3.88239372e-07
3.991381869e-07
3.877571076e-07
3.727294251e-07
3.69386629e-07
3.949671666e-07
4.177348964e-07
4.118552025e-07
4.050400158e-07
4.025027345e-07
3.986015081e-07
4.174747246e-07
4.398532519e-07
4.360043358e-07
4.194456872e-07
3.996620526e-07
4.173030635e-07
4.534296118e-07
4.443535915e-07
4.182216998e-07
4.262085892e-07
4.330958919e-07
4.487922313e-07
4.655375971e-07
4.160857208e-07
3.663404011e-07
4.015361575e-07
4.286986919e-07
4.158013285e-07
4.101572702e-07
4.120917433e-07
4.178887485e-07
4.090822042e-07
4.035065551e-07
4.144806332e-07
4.171244316e-07
4.060768349e-07
3.964093835e-07
3.816475529e-07
3.637521776e-07
3.687146211e-07
3.627784585e-07
3.325980911e-07
3.154163274e-07
2.975213227e-07
2.730884027e-07
2.398333785e-07
2.098646314e-07
1.84109278e-07
5.893596158e-07
2.054225044e-06
3.112403501e-06
3.220337792e-06
3.275367699e-06
3.23657676e-06
)


100
(
-2.167986236e-06
-1.82146988e-06
-1.230578344e-06
-9.247925657e-07
-7.336805683e-07
-5.888288182e-07
-4.772820485e-07
-3.933382657e-07
-3.260671126e-07
-2.639132771e-07
-2.132834596e-07
-1.663674595e-07
-1.241986332e-07
-8.936636886e-08
-5.809775668e-08
-2.835391834e-08
1.252441882e-09
2.73016082e-08
4.729730905e-08
6.497119295e-08
8.91757356e-08
1.12448972e-07
1.255067966e-07
1.356029116e-07
1.5042016e-07
1.744533113e-07
1.92626126e-07
1.986805296e-07
2.050062255e-07
2.222793751e-07
2.554853624e-07
2.977854887e-07
2.881117433e-07
2.518879695e-07
2.46765236e-07
2.676598162e-07
2.939978903e-07
3.051980719e-07
3.10512443e-07
3.073686799e-07
3.146901465e-07
3.347563512e-07
3.450627517e-07
3.427304043e-07
3.326448208e-07
3.252297632e-07
3.468536776e-07
3.792857297e-07
3.774169464e-07
3.624454775e-07
3.585880034e-07
3.562457393e-07
3.753673519e-07
4.01382365e-07
4.059619667e-07
4.007241058e-07
3.749100102e-07
3.568461153e-07
3.935822394e-07
4.213965204e-07
4.034594331e-07
3.856760045e-07
3.824557133e-07
3.98815001e-07
4.278422625e-07
4.383433953e-07
4.038782493e-07
3.622347715e-07
4.039877952e-07
4.164805318e-07
3.697780825e-07
3.699019001e-07
3.769162601e-07
3.777672725e-07
3.729564835e-07
3.703293627e-07
3.868117217e-07
4.018598955e-07
3.95131657e-07
3.805590417e-07
3.667989094e-07
3.523666062e-07
3.460790252e-07
3.582933099e-07
3.55005937e-07
3.388024942e-07
3.032156184e-07
2.870133993e-07
2.74113012e-07
2.305419701e-07
2.138834712e-07
1.824277065e-07
1.417737797e-07
1.122447676e-07
8.86631433e-07
2.502785833e-06
3.209184813e-06
3.227537694e-06
3.33397795e-06
3.304480665e-06
)


100
(
-2.170643887e-06
-1.83220907e-06
-1.252915556e-06
-9.489922563e-07
-7.579393926e-07
-6.177497795e-07
-5.092347381e-07
-4.222659376e-07
-3.565714608e-07
-2.961051055e-07
-2.430935247e-07
-1.987531834e-07
-1.557837633e-07
-1.186290374e-07
-8.739913186e-08
-5.883735605e-08
-3.160180627e-08
-3.919923876e-09
2.094722686e-08
4.00235847e-08
5.709359471e-08
7.930098016e-08
1.024528337e-07
1.171488669e-07
1.265880938e-07
1.370152586e-07
1.588739852e-07
1.806249025e-07
1.890087156e-07
1.946159048e-07
2.041062749e-07
2.288058829e-07
2.574377818e-07
2.543353145e-07
2.41184395e-07
2.45268244e-07
2.523343751e-07
2.75577273e-07
2.978139639e-07
2.999788193e-07
2.943260333e-07
2.864262742e-07
3.017255543e-07
3.265204966e-07
3.310855823e-07
3.220736912e-07
3.142810732e-07
3.125275358e-07
3.286678084e-07
3.487566698e-07
3.59411112e-07
3.640338922e-07
3.529231365e-07
3.268295682e-07
3.45953736e-07
3.875964506e-07
3.807869153e-07
3.548191751e-07
3.381275723e-07
3.36509621e-07
3.678330995e-07
4.033068674e-07
4.041039058e-07
3.727278359e-07
3.311062485e-07
3.704036896e-07
4.048070915e-07
3.62890296e-07
3.379499672e-07
3.445309093e-07
3.598661699e-07
3.668353355e-07
3.638798348e-07
3.601638307e-07
3.597181813e-07
3.479554631e-07
3.296335982e-07
3.314706098e-07
3.365310559e-07
3.279811232e-07
3.370222391e-07
3.430360601e-07
3.255905023e-07
3.043446277e-07
2.824747617e-07
2.925010862e-07
2.906837924e-07
2.383557509e-07
1.947670544e-07
1.696142062e-07
1.566030305e-07
1.228029873e-07
6.808787485e-08
1.305659973e-07
1.246672393e-06
2.795029934e-06
3.248282939e-06
3.267976094e-06
3.345934613e-06
3.326680498e-06
)


100
(
-2.168423867e-06
-1.840424075e-06
-1.269855913e-06
-9.671417129e-07
-7.842019883e-07
-6.443434266e-07
-5.373109494e-07
-4.516966432e-07
-3.848759221e-07
-3.303641839e-07
-2.733481386e-07
-2.277947803e-07
-1.886580038e-07
-1.491469585e-07
-1.158383735e-07
-8.73863317e-08
-6.10018297e-08
-3.592961909e-08
-1.033477741e-08
1.361592031e-08
3.246236941e-08
4.867645518e-08
6.794366267e-08
9.08282753e-08
1.078435656e-07
1.172537628e-07
1.264928376e-07
1.411210239e-07
1.625410032e-07
1.775117958e-07
1.833587671e-07
1.900579463e-07
1.98304082e-07
2.182967924e-07
2.357715684e-07
2.380619445e-07
2.382534741e-07
2.345576909e-07
2.427591374e-07
2.701496614e-07
2.870893499e-07
2.809989299e-07
2.714300385e-07
2.70449805e-07
2.888211102e-07
3.084432608e-07
3.073924592e-07
3.022963142e-07
3.037273851e-07
2.997682527e-07
3.111180058e-07
3.400711962e-07
3.502505563e-07
3.303594557e-07
3.019994474e-07
2.930878096e-07
3.322094791e-07
3.534330042e-07
3.364639478e-07
3.46864438e-07
3.363377152e-07
3.216328271e-07
3.576776977e-07
3.761729905e-07
3.297989025e-07
2.910421727e-07
3.020149408e-07
3.319867288e-07
3.430482321e-07
3.346917096e-07
3.286437201e-07
3.331179589e-07
3.343414002e-07
3.236893234e-07
3.094219773e-07
2.940896609e-07
2.99446571e-07
3.084359452e-07
3.12286437e-07
3.110873526e-07
2.923050642e-07
2.700406209e-07
2.49973016e-07
2.718408747e-07
2.889002706e-07
2.451176645e-07
2.00140624e-07
1.714744866e-07
1.644939467e-07
1.46321396e-07
1.056273632e-07
5.03541522e-08
2.444701522e-08
1.704958588e-07
1.47649067e-06
2.962891978e-06
3.242230041e-06
3.28473921e-06
3.378702205e-06
3.375107216e-06
)


100
(
-2.162861827e-06
-1.84356972e-06
-1.282592006e-06
-9.853373573e-07
-8.074972741e-07
-6.694820805e-07
-5.633006027e-07
-4.824274485e-07
-4.119025127e-07
-3.57733137e-07
-3.084905519e-07
-2.572535892e-07
-2.164364476e-07
-1.809154965e-07
-1.454526208e-07
-1.151313183e-07
-8.887604229e-08
-6.436845698e-08
-4.132540844e-08
-1.791587211e-08
5.334512754e-09
2.431601297e-08
3.954323554e-08
5.531883473e-08
7.748639248e-08
9.709363285e-08
1.071130098e-07
1.15307645e-07
1.241177798e-07
1.411516754e-07
1.602388941e-07
1.714458773e-07
1.780955594e-07
1.810421249e-07
1.858312365e-07
2.055336605e-07
2.235462539e-07
2.258323236e-07
2.20590506e-07
2.167950996e-07
2.342243883e-07
2.616501513e-07
2.655990205e-07
2.566413915e-07
2.541630331e-07
2.53309301e-07
2.679989217e-07
2.896255057e-07
2.961290373e-07
2.930952231e-07
2.775808331e-07
2.628661815e-07
2.953177816e-07
3.294841744e-07
3.076106287e-07
2.820353048e-07
2.7568965e-07
2.816812662e-07
3.188208674e-07
3.471017323e-07
3.395155303e-07
2.934096197e-07
2.51330872e-07
3.004852544e-07
3.224747808e-07
2.878191715e-07
2.852662759e-07
2.84986782e-07
2.895588682e-07
2.927512709e-07
2.843810316e-07
2.808556321e-07
2.974183082e-07
3.073511466e-07
2.953084559e-07
2.822328354e-07
2.713573546e-07
2.609226277e-07
2.469903842e-07
2.307520795e-07
2.496737386e-07
2.61822202e-07
2.450765923e-07
2.204265113e-07
1.785889342e-07
1.833592505e-07
1.880865638e-07
1.566971465e-07
1.176833214e-07
8.012386812e-08
4.390726698e-08
-1.246023558e-09
-6.545563452e-08
1.555218845e-07
1.674402936e-06
3.08634666e-06
3.232382383e-06
3.276695173e-06
3.37039784e-06
3.379174517e-06
)


100
(
-2.152335875e-06
-1.842654689e-06
-1.292499549e-06
-1.005120345e-06
-8.277490511e-07
-6.929076294e-07
-5.873186877e-07
-5.078883678e-07
-4.436893245e-07
-3.844710816e-07
-3.371305447e-07
-2.903413896e-07
-2.446065599e-07
-2.083158659e-07
-1.762302687e-07
-1.441210185e-07
-1.161806388e-07
-9.177003709e-08
-6.897333993e-08
-4.780877715e-08
-2.656949178e-08
-3.938563382e-09
1.542900751e-08
2.990058194e-08
4.407784588e-08
6.207957138e-08
8.162900774e-08
9.503462727e-08
1.028438271e-07
1.099409225e-07
1.184594264e-07
1.379893298e-07
1.570424844e-07
1.636152666e-07
1.641540933e-07
1.609120504e-07
1.740143959e-07
1.995301154e-07
2.106732006e-07
2.064440655e-07
2.016914889e-07
2.027683027e-07
2.202824191e-07
2.376499039e-07
2.419768328e-07
2.457559318e-07
2.436686856e-07
2.278397536e-07
2.415293861e-07
2.734632152e-07
2.750748566e-07
2.584316576e-07
2.437913464e-07
2.46956566e-07
2.707048578e-07
2.862515743e-07
2.85848171e-07
2.845300636e-07
2.556465592e-07
2.575079444e-07
3.040063657e-07
2.957826921e-07
2.49364365e-07
2.269404912e-07
2.333203962e-07
2.559075264e-07
2.707203259e-07
2.703149341e-07
2.645959571e-07
2.686880982e-07
2.69805595e-07
2.548309914e-07
2.396336515e-07
2.368225945e-07
2.346848422e-07
2.242420103e-07
2.359959098e-07
2.483349598e-07
2.349517886e-07
2.156115216e-07
1.973364746e-07
1.834552151e-07
1.718435712e-07
1.811367026e-07
1.651054028e-07
1.264136527e-07
1.122278899e-07
9.713441791e-08
9.027926836e-08
3.671646224e-08
-3.955749185e-08
-7.242084466e-08
-1.144570473e-07
2.660316294e-07
1.801058289e-06
3.093844784e-06
3.222284126e-06
3.251914834e-06
3.354201183e-06
3.362450554e-06
)


100
(
-2.14265267e-06
-1.84146548e-06
-1.303621917e-06
-1.021384294e-06
-8.442749105e-07
-7.138776318e-07
-6.1367269e-07
-5.313006169e-07
-4.703461194e-07
-4.135063147e-07
-3.63061142e-07
-3.203639034e-07
-2.760323764e-07
-2.352645454e-07
-2.030368371e-07
-1.739521842e-07
-1.448033729e-07
-1.188851733e-07
-9.605521942e-08
-7.477669623e-08
-5.522345461e-08
-3.610681849e-08
-1.449511368e-08
5.218850407e-09
1.946063199e-08
3.201246723e-08
4.464720209e-08
6.292181063e-08
8.059579049e-08
9.016920254e-08
9.622136499e-08
9.977452654e-08
1.118737372e-07
1.341158369e-07
1.486173436e-07
1.489169283e-07
1.442527209e-07
1.452018367e-07
1.655395357e-07
1.880144017e-07
1.901572504e-07
1.863961824e-07
1.855040478e-07
1.869016437e-07
2.002901299e-07
2.207945793e-07
2.292704323e-07
2.218730518e-07
2.03719385e-07
1.951604493e-07
2.272130992e-07
2.514004724e-07
2.379526659e-07
2.283794896e-07
2.349900098e-07
2.329684885e-07
2.463546952e-07
2.697888514e-07
2.52989976e-07
2.199398613e-07
2.038809825e-07
2.386686195e-07
2.482464998e-07
2.257920149e-07
2.240818596e-07
2.199973638e-07
2.264158293e-07
2.303984065e-07
2.23630286e-07
2.130436112e-07
2.029084226e-07
2.125385989e-07
2.217230691e-07
2.146255998e-07
2.122605786e-07
2.088099449e-07
2.010143953e-07
1.764328113e-07
1.484395484e-07
1.60354172e-07
1.856130698e-07
1.865215834e-07
1.401768856e-07
8.474306119e-08
6.237691218e-08
7.518745661e-08
8.819688699e-08
5.499209757e-08
2.74262081e-08
-1.608558551e-09
-8.469010692e-08
-1.42752613e-07
-1.546977283e-07
3.964177902e-07
1.925198859e-06
3.043817821e-06
3.199481925e-06
3.256927559e-06
3.342113711e-06
3.350196299e-06
)


100
(
-2.131407975e-06
-1.839840564e-06
-1.314164675e-06
-1.034201027e-06
-8.624687589e-07
-7.31849188e-07
-6.343997124e-07
-5.549185858e-07
-4.938588348e-07
-4.443035323e-07
-3.890133756e-07
-3.45183954e-07
-3.074377943e-07
-2.653107476e-07
-2.286964441e-07
-2.000716284e-07
-1.736358262e-07
-1.472904293e-07
-1.231384287e-07
-1.01626706e-07
-8.167124557e-08
-6.327248514e-08
-4.578732581e-08
-2.675378915e-08
-7.698108928e-09
7.483956042e-09
1.881446179e-08
2.963313906e-08
4.246570672e-08
6.000667786e-08
7.495150825e-08
8.174662139e-08
8.349734176e-08
8.621746169e-08
1.073225829e-07
1.307921058e-07
1.335592201e-07
1.289949129e-07
1.280568538e-07
1.310683688e-07
1.490234482e-07
1.695720395e-07
1.76459602e-07
1.768936443e-07
1.656513809e-07
1.499477611e-07
1.751434754e-07
2.08599931e-07
2.002886982e-07
1.823927978e-07
1.741639394e-07
1.778009395e-07
2.033570863e-07
2.281701643e-07
2.298092199e-07
2.12157152e-07
1.795044331e-07
1.947773746e-07
2.343544762e-07
2.158546614e-07
1.835326789e-07
1.7706764e-07
1.825296906e-07
1.901108193e-07
1.991320622e-07
2.036540462e-07
1.981545767e-07
2.018855575e-07
2.029769713e-07
1.873566062e-07
1.714811712e-07
1.667485725e-07
1.65136781e-07
1.563674124e-07
1.434206865e-07
1.597930701e-07
1.80433106e-07
1.665319945e-07
1.398867973e-07
1.171318507e-07
9.54889642e-08
9.678109505e-08
1.082102454e-07
7.436906279e-08
3.40808296e-08
1.944102113e-08
1.155848629e-08
-1.126005578e-08
-4.012928548e-08
-6.390815248e-08
-1.231523424e-07
-2.040191073e-07
-2.360168527e-07
4.512585832e-07
2.122632818e-06
3.133732295e-06
3.151897403e-06
3.230456333e-06
3.333590871e-06
3.326988955e-06
)


100
(
-2.117781519e-06
-1.834861717e-06
-1.319912611e-06
-1.04359164e-06
-8.783436932e-07
-7.501582789e-07
-6.526888301e-07