/*--------------------------------*- C++ -*----------------------------------*\
| =========                 |                                                 |
| \\      /  F ield         | OpenFOAM: The Open Source CFD Toolbox           |
|  \\    /   O peration     | Version:  2.3.1                                 |
|   \\  /    A nd           | Web:      www.OpenFOAM.org                      |
|    \\/     M anipulation  |                                                 |
\*---------------------------------------------------------------------------*/
FoamFile
{
    version     2.0;
    format      ascii;
    class       dictionary;
    location    "constant";
    object      DPSI11;
}
// * * * * * * * * * * * * * * * * * * * * * * * * * * * * * * * * * * * * * //

DPSI11_table
100
(

100
(
-1.23204202e-07
-1.488656192e-07
-1.488877158e-07
-1.554141324e-07
-1.585824633e-07
-1.560505624e-07
-1.638913209e-07
-1.576115182e-07
-1.614127382e-07
-1.553392084e-07
-1.547402474e-07
-1.511565475e-07
-1.47585051e-07
-1.479496682e-07
-1.42080125e-07
-1.360722329e-07
-1.343511591e-07
-1.272786484e-07
-1.16825225e-07
-1.135292605e-07
-1.053018589e-07
-9.488605179e-08
-8.737850293e-08
-8.130496764e-08
-7.166440996e-08
-6.040558325e-08
-5.489983393e-08
-4.243314254e-08
-2.631159151e-08
-1.044802215e-08
-3.46943707e-09
9.66387859e-09
2.083659829e-08
3.189552741e-08
3.844580332e-08
5.597512568e-08
9.162716702e-08
1.153775969e-07
1.309791092e-07
1.495603239e-07
1.836943197e-07
2.065371669e-07
2.221705745e-07
2.397339632e-07
2.702669507e-07
2.912967705e-07
3.062433576e-07
3.190468452e-07
3.784451437e-07
4.257963613e-07
4.582461271e-07
4.83709078e-07
5.320971363e-07
5.720777101e-07
6.002127584e-07
6.26438616e-07
6.599137492e-07
6.880925833e-07
7.095897203e-07
7.412264853e-07
7.914684557e-07
8.506623396e-07
9.006025387e-07
9.374605421e-07
9.912990109e-07
1.076433807e-06
1.137845322e-06
1.178661571e-06
1.265679883e-06
1.36293025e-06
1.429788368e-06
1.497872573e-06
1.627955744e-06
1.718256155e-06
1.756219486e-06
1.862256475e-06
2.040970728e-06
2.099257128e-06
2.213603849e-06
2.440357738e-06
2.49328521e-06
2.696396709e-06
2.887303462e-06
2.946670923e-06
3.31193721e-06
3.398261591e-06
3.638750598e-06
3.929225823e-06
4.064640689e-06
4.426318669e-06
4.608957068e-06
4.917735493e-06
5.08370636e-06
5.37110647e-06
5.504919582e-06
5.765856337e-06
5.813777626e-06
5.346089461e-06
3.901163319e-06
4.981887525e-06
)


100
(
-1.232615853e-07
-1.504709871e-07
-1.510477949e-07
-1.576963944e-07
-1.585630723e-07
-1.595848591e-07
-1.612694949e-07
-1.618090732e-07
-1.606936436e-07
-1.608313934e-07
-1.577680136e-07
-1.550144183e-07
-1.526154051e-07
-1.496455721e-07
-1.460790024e-07
-1.426260006e-07
-1.379972703e-07
-1.283043754e-07
-1.254252195e-07
-1.184098284e-07
-1.06811024e-07
-9.913483679e-08
-9.357841418e-08
-8.430327395e-08
-7.137438339e-08
-6.498479308e-08
-5.870807464e-08
-4.578043607e-08
-2.692181638e-08
-1.505448343e-08
-5.855152456e-09
9.723799911e-09
2.430963755e-08
3.341123799e-08
4.030672474e-08
5.589290571e-08
8.63609911e-08
1.116834068e-07
1.30706441e-07
1.528794279e-07
1.852272184e-07
2.111503737e-07
2.315449116e-07
2.530820838e-07
2.828602543e-07
3.066406075e-07
3.254308618e-07
3.431014526e-07
3.895135948e-07
4.316171913e-07
4.683430358e-07
5.058552882e-07
5.576948609e-07
5.989923255e-07
6.303984044e-07
6.668423173e-07
7.117198968e-07
7.449234262e-07
7.681632641e-07
8.034189213e-07
8.581776605e-07
9.05788077e-07
9.546996465e-07
1.012988987e-06
1.073974347e-06
1.13474623e-06
1.208457753e-06
1.295567116e-06
1.36693622e-06
1.45555158e-06
1.560830786e-06
1.674886391e-06
1.774814456e-06
1.885727491e-06
2.013340667e-06
2.107142604e-06
2.185025486e-06
2.340869852e-06
2.513533578e-06
2.661378842e-06
2.819518861e-06
2.969689799e-06
3.206280308e-06
3.28772918e-06
3.549193595e-06
3.763206338e-06
3.953121631e-06
4.214875105e-06
4.448000073e-06
4.691525712e-06
4.907942019e-06
5.157516059e-06
5.364109724e-06
5.541076657e-06
5.745121427e-06
5.893928481e-06
5.861899033e-06
5.052820065e-06
4.332303696e-06
4.883033387e-06
)


100
(
-1.233394589e-07
-1.516407173e-07
-1.54401452e-07
-1.570972937e-07
-1.596639811e-07
-1.652848034e-07
-1.604614478e-07
-1.681917847e-07
-1.626430513e-07
-1.651076888e-07
-1.639131003e-07
-1.588522894e-07
-1.613669488e-07
-1.554913359e-07
-1.500492643e-07
-1.51603381e-07
-1.473954623e-07
-1.354796028e-07
-1.321011177e-07
-1.315301246e-07
-1.174510548e-07
-1.074439108e-07
-1.023210483e-07
-9.69614223e-08
-8.16256084e-08
-7.317295184e-08
-6.729546673e-08
-6.005144061e-08
-4.277364979e-08
-2.972036644e-08
-1.678479125e-08
-4.784278714e-09
1.295342573e-08
2.572627796e-08
3.592247011e-08
4.495956008e-08
6.10718822e-08
8.264746618e-08
1.055050289e-07
1.298616924e-07
1.553996265e-07
1.820694668e-07
2.076295887e-07
2.32509264e-07
2.587510805e-07
2.843532092e-07
3.101507636e-07
3.314663901e-07
3.573887653e-07
3.858872964e-07
4.202861802e-07
4.559944632e-07
4.99505754e-07
5.412093406e-07
5.79401796e-07
6.159650176e-07
6.659592932e-07
7.214207064e-07
7.665732479e-07
8.026020987e-07
8.550922334e-07
8.990839727e-07
9.385101757e-07
1.001495923e-06
1.068841148e-06
1.107597159e-06
1.161561746e-06
1.268166861e-06
1.342487631e-06
1.404028122e-06
1.484531483e-06
1.584463317e-06
1.633179508e-06
1.72452091e-06
1.888767103e-06
1.965058619e-06
1.957586819e-06
2.15848076e-06
2.3124453e-06
2.276614651e-06
2.480278934e-06
2.574107179e-06
2.655103669e-06
2.853412834e-06
2.866179433e-06
3.064737734e-06
3.132720232e-06
3.176426361e-06
3.355849789e-06
3.343731322e-06
3.466257293e-06
3.496306039e-06
3.618040988e-06
3.654830117e-06
3.744712469e-06
3.682588811e-06
3.579031717e-06
2.806409203e-06
3.498915253e-06
3.612350132e-06
)


100
(
-1.234418056e-07
-1.477582027e-07
-1.544988304e-07
-1.558929541e-07
-1.636323915e-07
-1.658988913e-07
-1.662690896e-07
-1.67831127e-07
-1.700484114e-07
-1.657252552e-07
-1.71496847e-07
-1.64288916e-07
-1.635460875e-07
-1.65606313e-07
-1.566684018e-07
-1.536146018e-07
-1.566416994e-07
-1.496436672e-07
-1.374402669e-07
-1.359538057e-07
-1.340262713e-07
-1.206122063e-07
-1.09626387e-07
-1.047454591e-07
-9.948021144e-08
-8.524970403e-08
-7.549181427e-08
-6.907454494e-08
-6.206249513e-08
-4.773488018e-08
-3.28171228e-08
-1.98003318e-08
-5.500507432e-09
8.465733849e-09
2.516084528e-08
3.608617277e-08
4.826354654e-08
5.88446485e-08
7.873281926e-08
9.855396364e-08
1.215905087e-07
1.465508352e-07
1.674460298e-07
1.909722903e-07
2.15098293e-07
2.485285228e-07
2.765185352e-07
3.05072436e-07
3.275565743e-07
3.599331428e-07
3.920542202e-07
4.209719339e-07
4.489035705e-07
4.93432244e-07
5.426981754e-07
5.797659439e-07
6.146745508e-07
6.797853968e-07
7.551976828e-07
8.123134392e-07
8.586784439e-07
9.205585861e-07
9.688500227e-07
1.009063202e-06
1.058554757e-06
1.111774449e-06
1.140768424e-06
1.182643357e-06
1.259925388e-06
1.310590954e-06
1.342078728e-06
1.386333916e-06
1.457336849e-06
1.48283413e-06
1.507097582e-06
1.642154641e-06
1.812766716e-06
1.831156322e-06
1.867675741e-06
1.987257316e-06
2.0726502e-06
2.186490956e-06
2.173564158e-06
2.333759412e-06
2.381133314e-06
2.392819258e-06
2.527606994e-06
2.543682725e-06
2.564678746e-06
2.587116787e-06
2.682301035e-06
2.74946559e-06
2.773625328e-06
2.901330139e-06
2.866617027e-06
2.851945337e-06
2.645966482e-06
2.517636566e-06
2.871255479e-06
2.976055939e-06
)


100
(
-1.235689256e-07
-1.442567332e-07
-1.537035079e-07
-1.592632369e-07
-1.673041796e-07
-1.654436719e-07
-1.720745026e-07
-1.675428316e-07
-1.749756247e-07
-1.71042851e-07
-1.720084132e-07
-1.739058259e-07
-1.658511658e-07
-1.685519186e-07
-1.683666824e-07
-1.590250679e-07
-1.576562238e-07
-1.600161202e-07
-1.52968182e-07
-1.402713394e-07
-1.385464312e-07
-1.358549628e-07
-1.250235782e-07
-1.116173394e-07
-1.062692752e-07
-1.008592106e-07
-9.110545458e-08
-7.880194643e-08
-7.154093568e-08
-6.339608734e-08
-5.420576342e-08
-3.674718805e-08
-2.316161194e-08
-8.181767868e-09
1.48448468e-09
1.965337821e-08
3.319752458e-08
4.900875912e-08
5.605876155e-08
7.634680721e-08
9.385442366e-08
1.160846729e-07
1.369983634e-07
1.593462637e-07
1.805597427e-07
2.101366124e-07
2.466517963e-07
2.840088639e-07
3.149076126e-07
3.419161025e-07
3.786639631e-07
4.20989533e-07
4.542545533e-07
4.862342189e-07
5.319189642e-07
5.84931541e-07
6.259496069e-07
6.584823645e-07
7.065237038e-07
7.674810598e-07
8.158385258e-07
8.529412271e-07
8.974072878e-07
9.382469772e-07
9.788953376e-07
1.026965118e-06
1.072316695e-06
1.101163052e-06
1.127126356e-06
1.169180362e-06
1.228228887e-06
1.274339792e-06
1.310886952e-06
1.339477791e-06
1.367621018e-06
1.417460709e-06
1.548265182e-06
1.577047831e-06
1.611037017e-06
1.754913652e-06
1.76929299e-06
1.784775872e-06
1.907416894e-06
1.929324872e-06
1.956746183e-06
1.994484721e-06
2.049052143e-06
2.095751959e-06
2.116377807e-06
2.193044809e-06
2.240231746e-06
2.273719447e-06
2.330035542e-06
2.336698571e-06
2.394170158e-06
2.311457092e-06
1.907076629e-06
2.302475939e-06
2.432010279e-06
2.535252698e-06
)


100
(
-1.231843483e-07
-1.446228913e-07
-1.554290542e-07
-1.629152141e-07
-1.665470892e-07
-1.696182372e-07
-1.735706467e-07
-1.738868174e-07
-1.74517756e-07
-1.792388144e-07
-1.728810919e-07
-1.773721159e-07
-1.75823761e-07
-1.695735129e-07
-1.728372195e-07
-1.714284288e-07
-1.622222018e-07
-1.609491174e-07
-1.628565813e-07
-1.569462406e-07
-1.440893539e-07
-1.403266026e-07
-1.373457274e-07
-1.296836268e-07
-1.140743217e-07
-1.071875619e-07
-1.028144933e-07
-9.473266774e-08
-8.177962047e-08
-7.251923472e-08
-6.551129468e-08
-5.967433996e-08
-4.284293358e-08
-2.509392995e-08
-1.381384935e-08
-5.721108273e-09
1.192011598e-08
3.22731671e-08
4.673977399e-08
5.838174288e-08
8.065821984e-08
1.002542496e-07
1.249382745e-07
1.468832318e-07
1.692825277e-07
1.916787632e-07
2.214538794e-07
2.61909664e-07
3.00816674e-07
3.344986609e-07
3.624113773e-07
4.013621371e-07
4.432724406e-07
4.747202283e-07
5.018820837e-07
5.36604908e-07
5.730723439e-07
5.942415305e-07
6.076809041e-07
6.345603052e-07
6.744663032e-07
7.160221637e-07
7.609877188e-07
8.138835566e-07
8.697766065e-07
9.246816202e-07
9.756501286e-07
1.017752186e-06
1.060528105e-06
1.096146216e-06
1.125825049e-06
1.15781283e-06
1.203255073e-06
1.271930503e-06
1.338237353e-06
1.337399623e-06
1.334821855e-06
1.408774833e-06
1.443310721e-06
1.458909861e-06
1.480850813e-06
1.519423436e-06
1.599316121e-06
1.66098033e-06
1.705377649e-06
1.761166075e-06
1.78289318e-06
1.808358982e-06
1.836717883e-06
1.954662325e-06
1.962341581e-06
1.962974831e-06
2.023115644e-06
2.02472813e-06
2.061302521e-06
2.018351759e-06
1.589760502e-06
2.083757774e-06
2.179383358e-06
2.291620007e-06
)


100
(
-1.224016043e-07
-1.448291529e-07
-1.570092363e-07
-1.640222205e-07
-1.656062352e-07
-1.740898832e-07
-1.732549706e-07
-1.800420685e-07
-1.760648573e-07
-1.814610777e-07
-1.81564906e-07
-1.776139363e-07
-1.82276434e-07
-1.783515911e-07
-1.736710022e-07
-1.767386831e-07
-1.74994694e-07
-1.657208389e-07
-1.637417272e-07
-1.652341547e-07
-1.611752599e-07
-1.483758483e-07
-1.419842689e-07
-1.390303082e-07
-1.34700789e-07
-1.188092253e-07
-1.084186035e-07
-1.054433749e-07
-9.833558669e-08
-8.744986047e-08
-7.275765229e-08
-7.194701944e-08
-6.343890135e-08
-4.675839963e-08
-2.344220301e-08
-1.675228209e-08
-6.68619711e-09
9.916316958e-09
3.665019899e-08
4.808840634e-08
6.538615322e-08
8.830307987e-08
1.132417356e-07
1.367537241e-07
1.606380569e-07
1.821746444e-07
2.034300706e-07
2.306969473e-07
2.655918378e-07
3.006542457e-07
3.25003959e-07
3.447802739e-07
3.69831836e-07
4.013391581e-07
4.297193019e-07
4.549870696e-07
4.803232342e-07
5.022918171e-07
5.251611158e-07
5.505881479e-07
5.768288979e-07
6.130450239e-07
6.611453772e-07
7.146093337e-07
7.574111168e-07
7.938072055e-07
8.319850171e-07
8.696811804e-07
9.059997615e-07
9.473465134e-07
9.940444562e-07
1.048652279e-06
1.103655473e-06
1.145423924e-06
1.178215567e-06
1.229911883e-06
1.226537822e-06
1.239076673e-06
1.263777148e-06
1.312072064e-06
1.364506046e-06
1.396936201e-06
1.40253143e-06
1.451633907e-06
1.499250977e-06
1.548439626e-06
1.607903954e-06
1.652324009e-06
1.681327303e-06
1.702541843e-06
1.769661956e-06
1.784952091e-06
1.811808592e-06
1.829244534e-06
1.822090656e-06
1.81271328e-06
1.566530799e-06
1.967186575e-06
2.048616511e-06
2.157455868e-06
)


100
(
-1.221305045e-07
-1.441772476e-07
-1.570056566e-07
-1.627176944e-07
-1.688515562e-07
-1.751201539e-07
-1.768386142e-07
-1.809110039e-07
-1.826511981e-07
-1.806933222e-07
-1.879389982e-07
-1.840438753e-07
-1.827675678e-07
-1.870890316e-07
-1.814131426e-07
-1.775434605e-07
-1.803897592e-07
-1.793293678e-07
-1.702595571e-07
-1.665447929e-07
-1.679474969e-07
-1.666213937e-07
-1.542196993e-07
-1.446395533e-07
-1.417571822e-07
-1.381082324e-07
-1.236452855e-07
-1.123137123e-07
-1.097739503e-07
-1.026572532e-07
-9.000403609e-08
-7.371334182e-08
-7.577068961e-08
-6.4433062e-08
-4.36158541e-08
-2.124453157e-08
-1.49959473e-08
-6.130316876e-09
1.628526051e-08
3.7036427e-08
5.239035596e-08
6.972107179e-08
9.573080996e-08
1.184354919e-07
1.421127651e-07
1.5947583e-07
1.770801916e-07
1.880667915e-07
2.078584665e-07
2.281150538e-07
2.540856964e-07
2.693740388e-07
2.860548278e-07
3.097094012e-07
3.414821376e-07
3.785502522e-07
4.172815027e-07
4.524858152e-07
4.859508067e-07
5.152211462e-07
5.402028912e-07
5.58088109e-07
5.721555e-07
5.933004977e-07
6.249662279e-07
6.608277513e-07
6.969327196e-07
7.350367559e-07
7.753475144e-07
8.275707009e-07
8.857355896e-07
9.330759352e-07
9.676879686e-07
9.964388301e-07
1.02403762e-06
1.063607221e-06
1.115218086e-06
1.154181508e-06
1.182390757e-06
1.20415115e-06
1.22077673e-06
1.248862582e-06
1.285335063e-06
1.30467452e-06
1.326987226e-06
1.352967712e-06
1.394110075e-06
1.460508245e-06
1.50660327e-06
1.515699058e-06
1.517247594e-06
1.565555687e-06
1.582790621e-06
1.600405323e-06
1.56936979e-06
1.519584767e-06
1.492981745e-06
1.796387394e-06
1.911450778e-06
2.00545048e-06
)


100
(
-1.222299171e-07
-1.418128827e-07
-1.551741991e-07
-1.629093838e-07
-1.721562651e-07
-1.740436987e-07
-1.81442403e-07
-1.804793134e-07
-1.877558019e-07
-1.85393511e-07
-1.87419069e-07
-1.931730085e-07
-1.868343491e-07
-1.877687237e-07
-1.918477869e-07
-1.851097317e-07
-1.813912073e-07
-1.845522724e-07
-1.844398982e-07
-1.755676884e-07
-1.699410166e-07
-1.71343062e-07
-1.72988255e-07
-1.611745337e-07
-1.480833122e-07
-1.445527993e-07
-1.393667755e-07
-1.273329367e-07
-1.151668999e-07
-1.121120619e-07
-1.052405854e-07
-8.504657584e-08
-7.735191315e-08
-7.715833605e-08
-6.513038877e-08
-3.796375361e-08
-2.135192279e-08
-1.465579532e-08
-4.841366628e-09
1.718735841e-08
3.476599031e-08
4.977816013e-08
6.508660355e-08
8.617484997e-08
1.057137066e-07
1.206487982e-07
1.330284589e-07
1.419585661e-07
1.482622625e-07
1.652323837e-07
1.867278601e-07
2.125648278e-07
2.385114517e-07
2.618665263e-07
2.838836563e-07
3.137880805e-07
3.445377455e-07
3.826388477e-07
4.178144135e-07
4.459764139e-07
4.69393405e-07
4.870765256e-07
5.032643254e-07
5.211855299e-07
5.466137236e-07
5.772878864e-07
6.151388287e-07
6.58333659e-07
6.973775426e-07
7.222453177e-07
7.44016225e-07
7.750335789e-07
8.14179222e-07
8.650004091e-07
9.180117923e-07
9.615175544e-07
1.000966396e-06
1.022734635e-06
1.031534018e-06
1.049989786e-06
1.090966824e-06
1.119349691e-06
1.133263991e-06
1.144739065e-06
1.155611262e-06
1.169061765e-06
1.192390309e-06
1.245506584e-06
1.306084476e-06
1.311243477e-06
1.31846448e-06
1.346006609e-06
1.374435129e-06
1.35301195e-06
1.250602982e-06
1.206697779e-06
1.286573901e-06
1.556944566e-06
1.678618786e-06
1.796773834e-06
)


100
(
-1.22347967e-07
-1.399718453e-07
-1.540421864e-07
-1.648353865e-07
-1.723957289e-07
-1.759066503e-07
-1.828687941e-07
-1.848938413e-07
-1.87867165e-07
-1.922437041e-07
-1.883432692e-07
-1.937846112e-07
-1.967182108e-07
-1.901028106e-07
-1.92640697e-07
-1.967928208e-07
-1.896802057e-07
-1.852458639e-07
-1.880977314e-07
-1.904259964e-07
-1.81658604e-07
-1.731597206e-07
-1.745790817e-07
-1.765654072e-07
-1.686046271e-07
-1.543799352e-07
-1.475126953e-07
-1.412265661e-07
-1.311605322e-07
-1.19211172e-07
-1.173260942e-07
-1.060574042e-07
-8.536124855e-08
-8.04415234e-08
-7.983029484e-08
-6.239256375e-08
-4.033182083e-08
-2.41866275e-08
-2.14886076e-08
-9.416763001e-09
2.093234815e-09
1.849265681e-08
2.862461271e-08
4.610861799e-08
5.825305663e-08
7.448324774e-08
9.032450487e-08
1.040990835e-07
1.164236748e-07
1.304416674e-07
1.456908286e-07
1.710376896e-07
1.953453711e-07
2.198841846e-07
2.425100086e-07
2.640152252e-07
2.79316258e-07
3.024011075e-07
3.25765566e-07
3.556402035e-07
3.871228891e-07
4.168632971e-07
4.458303585e-07
4.731177397e-07
4.997455913e-07
5.256795156e-07
5.463946391e-07
5.615881878e-07
5.811634231e-07
6.052256044e-07
6.379698053e-07
6.765228667e-07
7.164126456e-07
7.606454997e-07
8.051220122e-07
8.295446078e-07
8.416959137e-07
8.635201923e-07
9.014312603e-07
9.297168885e-07
9.431896653e-07
9.551770957e-07
9.638245311e-07
9.944524828e-07
1.012462336e-06
1.021534907e-06
1.02410447e-06
1.04283248e-06
1.070739291e-06
1.110305302e-06
1.131568187e-06
1.147504319e-06
1.162140577e-06
1.073012513e-06
1.091779135e-06
8.466159675e-07
9.854442107e-07
1.296499853e-06
1.397439446e-06
1.504698947e-06
)


100
(
-1.220525324e-07
-1.398417887e-07
-1.542309612e-07
-1.66192507e-07
-1.710118777e-07
-1.792760162e-07
-1.819942398e-07
-1.897380016e-07
-1.885993974e-07
-1.946994292e-07
-1.957487885e-07
-1.926172017e-07
-1.998340647e-07
-2.006903698e-07
-1.938458686e-07
-1.973775852e-07
-2.022936474e-07
-1.948758269e-07
-1.892578524e-07
-1.921176876e-07
-1.966163339e-07
-1.882787198e-07
-1.769506859e-07
-1.779739113e-07
-1.797814476e-07
-1.767863868e-07
-1.629854903e-07
-1.513085394e-07
-1.448118485e-07
-1.334111575e-07
-1.288660152e-07
-1.249285207e-07
-1.046967767e-07
-9.222133173e-08
-8.575737814e-08
-8.56809592e-08
-6.763414069e-08
-5.214081038e-08
-3.903497356e-08
-3.53927078e-08
-2.933307661e-08
-2.330836065e-08
-9.294892109e-09
4.450962285e-09
2.089770463e-08
3.726862334e-08
5.127608355e-08
6.993842717e-08
9.050410583e-08
1.028573844e-07
1.191800229e-07
1.358676881e-07
1.519949594e-07
1.713815119e-07
1.90797351e-07
2.059783931e-07
2.259770893e-07
2.423710924e-07
2.615335764e-07
2.90524648e-07
3.222275691e-07
3.559516801e-07
3.881908009e-07
4.126064102e-07
4.293165476e-07
4.438300796e-07
4.592949515e-07
4.787725575e-07
4.978489949e-07
5.27547229e-07
5.574507738e-07
5.921821024e-07
6.174071805e-07
6.355421074e-07
6.550548966e-07
6.86342492e-07
7.262339117e-07
7.567370414e-07
7.717358037e-07
7.850941575e-07
7.953135197e-07
8.173703465e-07
8.465797996e-07
8.593057665e-07
8.72339184e-07
8.916201725e-07
8.908300376e-07
8.819883968e-07
9.054021321e-07
9.228382459e-07
9.450387878e-07
9.678296697e-07
9.393073048e-07
9.161597235e-07
9.792532006e-07
5.377252526e-07
7.388802623e-07
1.077569609e-06
1.154493804e-06
1.2394248e-06
)


100
(
-1.212410086e-07
-1.399029467e-07
-1.544723675e-07
-1.645611049e-07
-1.719934521e-07
-1.808892931e-07
-1.837774689e-07
-1.902795504e-07
-1.938245798e-07
-1.945356072e-07
-2.012887701e-07
-1.996949668e-07
-1.987601174e-07
-2.056751475e-07
-2.052716878e-07
-1.982127736e-07
-2.022101792e-07
-2.076264619e-07
-2.01133019e-07
-1.93204364e-07
-1.963388859e-07
-2.010202108e-07
-1.956583022e-07
-1.843107792e-07
-1.815455182e-07
-1.833931201e-07
-1.845542798e-07
-1.729559398e-07
-1.577777274e-07
-1.501539382e-07
-1.374851213e-07
-1.381387942e-07
-1.323277514e-07
-1.143122251e-07
-1.03033779e-07
-9.986661885e-08
-9.310358847e-08
-8.528116053e-08
-7.001431675e-08
-5.855518023e-08
-5.085341784e-08
-4.708617312e-08
-4.411444929e-08
-3.257946837e-08
-1.237637711e-08
5.164623655e-09
2.174150805e-08
3.782575381e-08
5.289505052e-08
6.924006728e-08
8.406104034e-08
9.471143586e-08
1.087352914e-07
1.24234679e-07
1.347488515e-07
1.549866273e-07
1.777971886e-07
1.972416399e-07
2.203110018e-07
2.437039449e-07
2.640144036e-07
2.882407906e-07
3.077060285e-07
3.272741226e-07
3.458441683e-07
3.60566865e-07
3.882549629e-07
4.177141731e-07
4.470490663e-07
4.699752283e-07
4.80333196e-07
4.860079342e-07
4.965347358e-07
5.176252613e-07
5.443439171e-07
5.752674487e-07
6.056321518e-07
6.312892287e-07
6.457728739e-07
6.668672788e-07
7.003892468e-07
7.163423462e-07
7.297497904e-07
7.424588854e-07
7.690580736e-07
7.830107737e-07
7.887144289e-07
8.03385667e-07
8.153832226e-07
8.132455787e-07
8.397115829e-07
8.521898565e-07
8.51775072e-07
8.804556913e-07
6.666729302e-07
4.183656474e-07
7.049158345e-07
9.306836513e-07
1.014292842e-06
1.123219493e-06
)


100
(
-1.20834719e-07
-1.395091792e-07
-1.536059282e-07
-1.625114161e-07
-1.739677222e-07
-1.799853597e-07
-1.872373019e-07
-1.893187821e-07
-1.978063703e-07
-1.981817478e-07
-2.015027232e-07
-2.0759663e-07
-2.039246875e-07
-2.047391402e-07
-2.118568108e-07
-2.10725992e-07
-2.028388672e-07
-2.067247534e-07
-2.127560338e-07
-2.07972982e-07
-1.976996088e-07
-2.005968174e-07
-2.051783104e-07
-2.03637133e-07
-1.927838525e-07
-1.854398249e-07
-1.874968629e-07
-1.888229171e-07
-1.837741326e-07
-1.693906728e-07
-1.556240795e-07
-1.467098688e-07
-1.490395316e-07
-1.431228e-07
-1.320473497e-07
-1.191084975e-07
-1.120355033e-07
-1.033557988e-07
-1.000202612e-07
-9.177399572e-08
-7.546441484e-08
-6.299872342e-08
-5.733622003e-08
-5.162203329e-08
-4.541640084e-08
-2.890439348e-08
-9.403496852e-09
5.087463389e-09
1.650034145e-08
3.152859819e-08
3.793897957e-08
4.822996141e-08
6.322002973e-08
7.944751604e-08
9.599077547e-08
1.15117435e-07
1.289791565e-07
1.561536774e-07
1.732350971e-07
1.854352985e-07
2.035587149e-07
2.152287448e-07
2.27478885e-07
2.502323795e-07
2.76470286e-07
3.040091567e-07
3.326847252e-07
3.596750209e-07
3.831827876e-07
3.938083524e-07
4.04661164e-07
4.121861632e-07
4.285573729e-07
4.476599458e-07
4.663195015e-07
4.784254705e-07
4.919396481e-07
5.189232202e-07
5.59663571e-07
5.917034343e-07
6.094313867e-07
6.206404888e-07
6.380815769e-07
6.714322413e-07
6.78345211e-07
6.930265998e-07
7.204922265e-07
7.13619073e-07
6.935227476e-07
7.198086783e-07
7.128267126e-07
7.393294236e-07
6.979184673e-07
6.480755033e-07
4.798712803e-07
4.879220251e-07
7.965092204e-07
9.067683918e-07
9.798166356e-07
1.059852977e-06
)


100
(
-1.209405124e-07
-1.385186766e-07
-1.520407654e-07
-1.630116526e-07
-1.743412324e-07
-1.80089446e-07
-1.88825775e-07
-1.921962277e-07
-1.97355698e-07
-2.036513829e-07
-2.026594921e-07
-2.079236692e-07
-2.123954242e-07
-2.086937722e-07
-2.106003399e-07
-2.179598378e-07
-2.166992049e-07
-2.082018692e-07
-2.115157813e-07
-2.178549191e-07
-2.153212822e-07
-2.050240862e-07
-2.049535629e-07
-2.094902196e-07
-2.123377955e-07
-2.023170679e-07
-1.916927602e-07
-1.918382115e-07
-1.930648281e-07
-1.930707305e-07
-1.832569726e-07
-1.682842293e-07
-1.587047641e-07
-1.580534032e-07
-1.531103088e-07
-1.500302914e-07
-1.386063259e-07
-1.235846377e-07
-1.162827219e-07
-1.107776542e-07
-1.062083013e-07
-9.24840546e-08
-7.297360064e-08
-6.515076572e-08
-5.922388999e-08
-5.299065237e-08
-4.615926217e-08
-3.386476046e-08
-1.798054472e-08
-6.168191006e-09
7.68227226e-09
1.506520105e-08
1.978341287e-08
3.709861145e-08
6.235759599e-08
7.436072158e-08
9.037294565e-08
1.03208968e-07
1.118204617e-07
1.238777356e-07
1.379095567e-07
1.557077771e-07
1.731768772e-07
1.892663011e-07
2.226103914e-07
2.494906794e-07
2.677629133e-07
2.87515285e-07
3.020147017e-07
3.177247065e-07
3.368568919e-07
3.589794207e-07
3.802870392e-07
3.951830788e-07
4.033334328e-07
4.124288591e-07
4.302967521e-07
4.533975173e-07
4.835911734e-07
5.015897407e-07
5.142013253e-07
5.4603629e-07
5.75861278e-07
5.874063838e-07
5.948163911e-07
6.24664478e-07
6.397822865e-07
6.279431501e-07
6.434172732e-07
6.448481916e-07
6.687101899e-07
5.955346575e-07
5.739529119e-07
5.165007273e-07
5.233474978e-07
5.9715939e-07
8.376125831e-07
9.195898729e-07
9.907047524e-07
1.053705365e-06
)


100
(
-1.210628241e-07
-1.378153517e-07
-1.514619204e-07
-1.638561531e-07
-1.725636515e-07
-1.819873334e-07
-1.880685741e-07
-1.957984019e-07
-1.973178568e-07
-2.048781669e-07
-2.083955842e-07
-2.071409652e-07
-2.140588675e-07
-2.176443107e-07
-2.135823979e-07
-2.160534379e-07
-2.237346037e-07
-2.233428712e-07
-2.144559288e-07
-2.163776815e-07
-2.228456898e-07
-2.234890743e-07
-2.132923329e-07
-2.093757118e-07
-2.139372768e-07
-2.173762586e-07
-2.12699101e-07
-2.027875014e-07
-1.967516073e-07
-1.985653566e-07
-1.988276027e-07
-1.975167444e-07
-1.845086621e-07
-1.706589832e-07
-1.664152694e-07
-1.646812896e-07
-1.661419184e-07
-1.575937893e-07
-1.389278142e-07
-1.246331516e-07
-1.196246864e-07
-1.14637418e-07
-1.072202883e-07
-9.215378314e-08
-7.908803617e-08
-7.220147987e-08
-6.572721935e-08
-5.823202774e-08
-5.729084454e-08
-4.393396309e-08
-2.339849409e-08
-7.46764715e-09
9.288814777e-10
6.367042942e-09
1.514793813e-08
3.056156274e-08
4.698354462e-08
5.408246947e-08
6.955529645e-08
7.137208347e-08
8.037532107e-08
1.072861348e-07
1.309415247e-07
1.479590131e-07
1.636549372e-07
1.792233409e-07
1.926175771e-07
2.063137396e-07
2.252719838e-07
2.474386508e-07
2.718415431e-07
2.95436828e-07
3.112431984e-07
3.242366531e-07
3.363310448e-07
3.541600224e-07
3.72820076e-07
3.871636458e-07
3.969085072e-07
4.170989141e-07
4.45281739e-07
4.712155221e-07
4.804881593e-07
4.889339232e-07
5.298878453e-07
5.470875021e-07
5.472114677e-07
5.547339679e-07
5.678927131e-07
5.820089405e-07
5.909068911e-07
5.817111852e-07
5.987923705e-07
6.281976983e-07
4.904446957e-07
6.297683213e-07
7.998588577e-07
8.5811267e-07
9.46166072e-07
1.052598153e-06
)


100
(
-1.207867779e-07
-1.377584157e-07
-1.515399684e-07
-1.632907443e-07
-1.716173424e-07
-1.829739119e-07
-1.883877984e-07
-1.963951379e-07
-2.011966777e-07
-2.039634665e-07
-2.117469951e-07
-2.134859956e-07
-2.13390845e-07
-2.203285988e-07
-2.233262142e-07
-2.187867999e-07
-2.212572819e-07
-2.293389518e-07
-2.303665352e-07
-2.21581054e-07
-2.211679255e-07
-2.27762716e-07
-2.321763503e-07
-2.226224042e-07
-2.146554327e-07
-2.185028946e-07
-2.21791378e-07
-2.238560225e-07
-2.156942067e-07
-2.056820995e-07
-2.029945618e-07
-2.027133996e-07
-2.056961458e-07
-2.007324402e-07
-1.874070173e-07
-1.739474776e-07
-1.731768152e-07
-1.732195927e-07
-1.721433588e-07
-1.562086945e-07
-1.381267181e-07
-1.293780937e-07
-1.265487475e-07
-1.196316982e-07
-1.137512021e-07
-1.032687255e-07
-8.84086201e-08
-7.845123958e-08
-7.240540949e-08
-6.943723224e-08
-6.56887606e-08
-4.259312209e-08
-2.101223463e-08
-1.606983561e-08
-1.423229431e-08
-4.73388498e-09
-4.096474848e-09
1.174736425e-08
3.189807225e-08
4.220464385e-08
5.050299673e-08
5.459827771e-08
8.261277369e-08
1.018200819e-07
1.072520512e-07
1.207326049e-07
1.309256321e-07
1.456750288e-07
1.639505896e-07
1.831741322e-07
2.014896428e-07
2.121232569e-07
2.266458994e-07
2.465632518e-07
2.726892707e-07
2.955424684e-07
3.075834772e-07
3.124393793e-07
3.155934562e-07
3.366852107e-07
3.677556433e-07
3.789723754e-07
3.898461266e-07
4.132815015e-07
4.414370221e-07
4.27330545e-07
4.445009404e-07
4.763183022e-07
4.780782165e-07
4.885708838e-07
4.742681113e-07
5.201582254e-07
4.77005851e-07
4.399595022e-07
3.989650781e-07
5.509898756e-07
7.020297166e-07
7.592915208e-07
8.309090226e-07
9.354115969e-07
)


100
(
-1.202067369e-07
-1.378749696e-07
-1.515495402e-07
-1.616769406e-07
-1.722637424e-07
-1.815110902e-07
-1.902291904e-07
-1.954701465e-07
-2.041348102e-07
-2.066202919e-07
-2.111592444e-07
-2.191598945e-07
-2.190283124e-07
-2.194436486e-07
-2.267431009e-07
-2.296556821e-07
-2.247405724e-07
-2.266366446e-07
-2.348616237e-07
-2.380549918e-07
-2.295135877e-07
-2.259143486e-07
-2.326528371e-07
-2.372800084e-07
-2.330087388e-07
-2.249395286e-07
-2.2345445e-07
-2.27220494e-07
-2.290717643e-07
-2.276234346e-07
-2.182927586e-07
-2.078554563e-07
-2.078168659e-07
-2.105241747e-07
-2.143464438e-07
-2.022989383e-07
-1.850828527e-07
-1.795826609e-07
-1.800893038e-07
-1.787574979e-07
-1.742661877e-07
-1.609068018e-07
-1.462858506e-07
-1.393532469e-07
-1.309501997e-07
-1.280938551e-07
-1.298871964e-07
-1.138266407e-07
-9.039305913e-08
-8.45313672e-08
-8.148724324e-08
-7.748890123e-08
-6.805763351e-08
-5.112114136e-08
-3.619090989e-08
-2.965203556e-08
-2.535568988e-08
-3.007017287e-08
-1.620863327e-08
1.55829581e-08
2.819581269e-08
3.072787826e-08
3.731439344e-08
4.504366232e-08
5.367219153e-08
6.763150897e-08
8.292898401e-08
9.833070385e-08
1.15975305e-07
1.307559097e-07
1.403450785e-07
1.492428662e-07
1.642368554e-07
1.83292284e-07
2.060319835e-07
2.196148871e-07
2.308672802e-07
2.407505266e-07
2.600858752e-07
2.746042338e-07
2.8849118e-07
2.906615723e-07
3.104398927e-07
3.399891517e-07
3.382147269e-07
3.523695183e-07
3.809384986e-07
4.036280369e-07
4.319067528e-07
4.090471278e-07
4.103768665e-07
3.906136598e-07
3.367495647e-07
3.509308669e-07
3.058369335e-07
4.241508641e-07
5.705707335e-07
6.429102247e-07
7.039699013e-07
7.771957772e-07
)


100
(
-1.200306482e-07
-1.376321878e-07
-1.510495046e-07
-1.610335552e-07
-1.727084267e-07
-1.801018364e-07
-1.908213024e-07
-1.968180448e-07
-2.037141568e-07
-2.105471272e-07
-2.121192702e-07
-2.183011341e-07
-2.258765425e-07
-2.245422497e-07
-2.253143048e-07
-2.330841762e-07
-2.366755098e-07
-2.314985925e-07
-2.319440958e-07
-2.402911406e-07
-2.461844729e-07
-2.383966335e-07
-2.313683919e-07
-2.374419482e-07
-2.420310566e-07
-2.443795813e-07
-2.372612448e-07
-2.289802817e-07
-2.30316455e-07
-2.326890828e-07
-2.392821615e-07
-2.320244115e-07
-2.187999083e-07
-2.114365198e-07
-2.150569059e-07
-2.194128618e-07
-2.172976202e-07
-2.013538965e-07
-1.897640387e-07
-1.881322349e-07
-1.881327711e-07
-1.831895128e-07
-1.822563093e-07
-1.68677668e-07
-1.546539781e-07
-1.433609697e-07
-1.430444251e-07
-1.429274447e-07
-1.37601433e-07
-1.13880645e-07
-9.951587801e-08
-1.008793922e-07
-9.191616768e-08
-8.660521713e-08
-7.875498399e-08
-6.323966314e-08
-4.016232056e-08
-4.13550621e-08
-4.113740758e-08
-3.332752436e-08
-1.126528533e-08
6.253618383e-09
6.663130249e-09
1.695045686e-08
2.36148164e-08
3.466680329e-08
4.752172289e-08
6.01949255e-08
7.040527086e-08
7.531128491e-08
8.515073745e-08
1.0518591e-07
1.227779266e-07
1.404199225e-07
1.541086247e-07
1.636441781e-07
1.709911873e-07
1.810152808e-07