/*--------------------------------*- C++ -*----------------------------------*\
| =========                 |                                                 |
| \\      /  F ield         | OpenFOAM: The Open Source CFD Toolbox           |
|  \\    /   O peration     | Version:  2.3.1                                 |
|   \\  /    A nd           | Web:      www.OpenFOAM.org                      |
|    \\/     M anipulation  |                                                 |
\*---------------------------------------------------------------------------*/
FoamFile
{
    version     2.0;
    format      ascii;
    class       dictionary;
    location    "constant";
    object      DPSI12;
}
// * * * * * * * * * * * * * * * * * * * * * * * * * * * * * * * * * * * * * //

DPSI12_table
100
(

100
(
2.776704669e-08
3.066974284e-08
3.012995113e-08
2.967359357e-08
2.888450876e-08
2.676284683e-08
2.686207167e-08
2.470212922e-08
2.40820415e-08
2.1860983e-08
2.117268128e-08
1.822824834e-08
1.722858123e-08
1.646711985e-08
1.392575598e-08
1.287928738e-08
1.227218794e-08
9.329958265e-09
7.918733649e-09
7.377983854e-09
4.645732375e-09
2.475830541e-09
1.441314031e-09
-4.273448729e-11
-3.467551201e-09
-5.09896482e-09
-5.891804978e-09
-8.004841285e-09
-1.158439628e-08
-1.32398763e-08
-1.415276673e-08
-1.711562553e-08
-2.045985371e-08
-2.205541854e-08
-2.29205698e-08
-2.495768812e-08
-2.956209113e-08
-3.232701206e-08
-3.35994308e-08
-3.582096861e-08
-4.040892443e-08
-4.365185617e-08
-4.510229778e-08
-4.73688973e-08
-5.167035539e-08
-5.502024056e-08
-5.653715558e-08
-5.784451843e-08
-6.347201517e-08
-6.835733477e-08
-7.142988681e-08
-7.357067243e-08
-7.858984642e-08
-8.303695147e-08
-8.610054656e-08
-8.884448477e-08
-9.297016072e-08
-9.660838818e-08
-9.918590009e-08
-1.021519864e-07
-1.065622575e-07
-1.1302149e-07
-1.172820467e-07
-1.192351197e-07
-1.236545529e-07
-1.315379737e-07
-1.361998947e-07
-1.375643519e-07
-1.45250036e-07
-1.526918329e-07
-1.566930036e-07
-1.607301929e-07
-1.710446783e-07
-1.769854193e-07
-1.788595474e-07
-1.871591773e-07
-1.983708977e-07
-2.00928958e-07
-2.089830289e-07
-2.222180553e-07
-2.248278459e-07
-2.370871594e-07
-2.474579589e-07
-2.511188054e-07
-2.706249472e-07
-2.750821337e-07
-2.877262089e-07
-3.021714856e-07
-3.092506499e-07
-3.264602567e-07
-3.35306292e-07
-3.499854921e-07
-3.583026337e-07
-3.71238921e-07
-3.77886211e-07
-3.88892314e-07
-3.917253991e-07
-3.772091965e-07
-2.986502379e-07
-2.463783723e-07
)


100
(
2.775455486e-08
3.104099281e-08
3.0755014e-08
3.046852144e-08
2.926697014e-08
2.786106866e-08
2.704076462e-08
2.58843202e-08
2.469685359e-08
2.324955255e-08
2.220308369e-08
1.973366466e-08
1.846137097e-08
1.743590467e-08
1.537543262e-08
1.417146365e-08
1.332920184e-08
1.083649763e-08
9.365440834e-09
8.432567427e-09
6.123373645e-09
3.996332742e-09
2.615797803e-09
1.099770154e-09
-1.763619122e-09
-3.798578569e-09
-5.07201318e-09
-6.927417705e-09
-9.845897271e-09
-1.207857346e-08
-1.3605429e-08
-1.608877171e-08
-1.900453006e-08
-2.127253362e-08
-2.288661024e-08
-2.47592524e-08
-2.819795237e-08
-3.113427659e-08
-3.359818015e-08
-3.613741214e-08
-3.973747618e-08
-4.288284293e-08
-4.552831731e-08
-4.855965807e-08
-5.208202435e-08
-5.515842843e-08
-5.772431265e-08
-6.015782119e-08
-6.474246994e-08
-6.86513687e-08
-7.209080223e-08
-7.572121675e-08
-8.119116255e-08
-8.505764271e-08
-8.825005693e-08
-9.200369779e-08
-9.759759238e-08
-1.008774497e-07
-1.036187019e-07
-1.072023249e-07
-1.131496266e-07
-1.172134131e-07
-1.225817777e-07
-1.279676265e-07
-1.325404723e-07
-1.37132532e-07
-1.436349445e-07
-1.506497296e-07
-1.551049329e-07
-1.619780649e-07
-1.696480309e-07
-1.777212831e-07
-1.841243404e-07
-1.918442275e-07
-2.006014977e-07
-2.077398539e-07
-2.136625425e-07
-2.23576823e-07
-2.345832215e-07
-2.437513688e-07
-2.533651978e-07
-2.628534271e-07
-2.771545115e-07
-2.824504187e-07
-2.977462507e-07
-3.099662071e-07
-3.208162758e-07
-3.355633723e-07
-3.483965272e-07
-3.624916259e-07
-3.746146863e-07
-3.884128601e-07
-4.003188527e-07
-4.114550175e-07
-4.224598683e-07
-4.320723565e-07
-4.343116253e-07
-3.939423637e-07
-3.259044287e-07
-2.775898596e-07
)


100
(
2.775102229e-08
3.149442722e-08
3.177403776e-08
3.093842644e-08
3.012017391e-08
2.969085689e-08
2.777991002e-08
2.779583809e-08
2.603016111e-08
2.506490744e-08
2.403657054e-08
2.194572225e-08
2.068268044e-08
1.924460363e-08
1.755868561e-08
1.636066056e-08
1.527075405e-08
1.34433885e-08
1.179280094e-08
1.059619898e-08
8.80499831e-09
6.848346222e-09
5.08130863e-09
3.490784057e-09
1.466536036e-09
-7.630171364e-10
-2.714251617e-09
-4.498336632e-09
-6.444095039e-09
-8.814350275e-09
-1.103600254e-08
-1.330746392e-08
-1.556452835e-08
-1.811877367e-08
-2.051501335e-08
-2.271958835e-08
-2.488907906e-08
-2.73245206e-08
-3.015491057e-08
-3.300879556e-08
-3.605970767e-08
-3.904396654e-08
-4.205955044e-08
-4.506169256e-08
-4.818071846e-08
-5.174371638e-08
-5.477307708e-08
-5.762638646e-08
-6.070670888e-08
-6.47890796e-08
-6.783201922e-08
-7.142247254e-08
-7.548269949e-08
-8.049222779e-08
-8.413903139e-08
-8.767463475e-08
-9.233839006e-08
-9.87732758e-08
-1.030894868e-07
-1.064405302e-07
-1.12182522e-07
-1.169041512e-07
-1.207701941e-07
-1.278451507e-07
-1.341998454e-07
-1.373463082e-07
-1.418340522e-07
-1.514405609e-07
-1.568478152e-07
-1.623207741e-07
-1.691993912e-07
-1.774622565e-07
-1.811694509e-07
-1.891016474e-07
-2.012520839e-07
-2.06476325e-07
-2.079286592e-07
-2.224572521e-07
-2.329384072e-07
-2.330900142e-07
-2.469655992e-07
-2.542855316e-07
-2.618472264e-07
-2.73941698e-07
-2.779060931e-07
-2.920345053e-07
-2.988632935e-07
-3.055337099e-07
-3.176582048e-07
-3.22243943e-07
-3.332611547e-07
-3.396733642e-07
-3.496730324e-07
-3.571299691e-07
-3.674220035e-07
-3.722014036e-07
-3.741875765e-07
-3.061602496e-07
-2.977065979e-07
-2.781079764e-07
)


100
(
2.775578155e-08
3.124001474e-08
3.203938952e-08
3.125003773e-08
3.152503075e-08
3.062250115e-08
2.956995805e-08
2.875038735e-08
2.80660682e-08
2.64177955e-08
2.607824214e-08
2.407489839e-08
2.25612382e-08
2.147059128e-08
1.968085686e-08
1.82717896e-08
1.733826694e-08
1.591308792e-08
1.416666213e-08
1.278655826e-08
1.137846403e-08
9.563314484e-09
7.750948279e-09
6.015095748e-09
4.250440237e-09
2.308929258e-09
3.170274352e-10
-1.716541296e-09
-3.727827531e-09
-5.683801502e-09
-7.705952645e-09
-1.001903059e-08
-1.245212328e-08
-1.489812673e-08
-1.709423614e-08
-1.95067875e-08
-2.201811834e-08
-2.466325398e-08
-2.657195745e-08
-2.875976416e-08
-3.164922364e-08
-3.493250278e-08
-3.800704184e-08
-4.011437075e-08
-4.314438848e-08
-4.715092677e-08
-5.186578365e-08
-5.416756377e-08
-5.678658627e-08
-6.114060049e-08
-6.629284224e-08
-6.905200966e-08
-7.124255485e-08
-7.64286505e-08
-8.244454799e-08
-8.624425239e-08
-8.825342742e-08
-9.552072283e-08
-1.030459184e-07
-1.086609623e-07
-1.120988315e-07
-1.189874881e-07
-1.236182005e-07
-1.280688653e-07
-1.339411762e-07
-1.402308689e-07
-1.435496103e-07
-1.484841621e-07
-1.566094764e-07
-1.614912329e-07
-1.654346597e-07
-1.705505988e-07
-1.787426699e-07
-1.828912266e-07
-1.864320588e-07
-1.960625555e-07
-2.084507363e-07
-2.122160897e-07
-2.167189817e-07
-2.266039254e-07
-2.348962815e-07
-2.445153678e-07
-2.466755833e-07
-2.592233041e-07
-2.667062152e-07
-2.711791743e-07
-2.832873485e-07
-2.898853946e-07
-2.962321919e-07
-3.033907291e-07
-3.120970618e-07
-3.221456069e-07
-3.282344591e-07
-3.407386416e-07
-3.477723939e-07
-3.558937648e-07
-3.496455955e-07
-2.934815971e-07
-2.885880739e-07
-2.737363486e-07
)


100
(
2.77687641e-08
3.09964547e-08
3.213742605e-08
3.242911229e-08
3.288591031e-08
3.131787946e-08
3.141307292e-08
2.966263361e-08
2.980914264e-08
2.828288483e-08
2.737913734e-08
2.65046615e-08
2.448110597e-08
2.337453433e-08
2.213410816e-08
2.037904558e-08
1.916884526e-08
1.817283184e-08
1.674292098e-08
1.505789275e-08
1.368370513e-08
1.220840409e-08
1.048546269e-08
8.674808865e-09
6.916679223e-09
5.157348506e-09
3.418677907e-09
1.609500197e-09
-4.280276111e-10
-2.575763351e-09
-4.592299967e-09
-6.402090319e-09
-8.572524613e-09
-1.111731709e-08
-1.374833011e-08
-1.57752375e-08
-1.794348069e-08
-2.075315643e-08
-2.421166742e-08
-2.628497232e-08
-2.792571995e-08
-3.042811696e-08
-3.457630985e-08
-3.799352349e-08
-4.007996375e-08
-4.223365024e-08
-4.789426749e-08
-5.348258703e-08
-5.597287231e-08
-5.77540568e-08
-6.346165273e-08
-6.939439844e-08
-7.306748063e-08
-7.537320208e-08
-8.084841557e-08
-8.739623622e-08
-9.194917805e-08
-9.464101187e-08
-9.985857142e-08
-1.068454962e-07
-1.121571199e-07
-1.159424522e-07
-1.211371639e-07
-1.25332049e-07
-1.301140807e-07
-1.362791909e-07
-1.423635076e-07
-1.46277614e-07
-1.504039214e-07
-1.553509496e-07
-1.6251939e-07
-1.679673903e-07
-1.728160435e-07
-1.768581468e-07
-1.830148227e-07
-1.888850287e-07
-1.989389355e-07
-2.034797368e-07
-2.092571804e-07
-2.212859322e-07
-2.25426881e-07
-2.302765391e-07
-2.424586222e-07
-2.478422641e-07
-2.546919939e-07
-2.616192041e-07
-2.693905337e-07
-2.76805571e-07
-2.85696761e-07
-2.934744611e-07
-3.003767995e-07
-3.100545582e-07
-3.18894395e-07
-3.280416399e-07
-3.382699386e-07
-3.444867058e-07
-3.104987267e-07
-2.903843443e-07
-2.80698302e-07
-2.699497352e-07
)


100
(
2.768542128e-08
3.134412925e-08
3.291061582e-08
3.363729517e-08
3.333269425e-08
3.285821327e-08
3.250412531e-08
3.159901807e-08
3.075750225e-08
3.051043547e-08
2.873532622e-08
2.82500656e-08
2.703602454e-08
2.525333985e-08
2.422462505e-08
2.294626953e-08
2.12737273e-08
2.009171757e-08
1.905637413e-08
1.768862297e-08
1.600334773e-08
1.455966806e-08
1.30486721e-08
1.138465655e-08
9.494668585e-09
7.730436447e-09
6.07814848e-09
4.546494573e-09
2.944217936e-09
9.754566332e-10
-1.337774015e-09
-3.499032126e-09
-5.276883438e-09
-7.200304024e-09
-1.000900015e-08
-1.292644626e-08
-1.49687766e-08
-1.680778421e-08
-2.032490699e-08
-2.440658625e-08
-2.686492393e-08
-2.857754706e-08
-3.132450533e-08
-3.597394933e-08
-3.961536515e-08
-4.124347346e-08
-4.366582906e-08
-4.967100235e-08
-5.555632163e-08
-5.794689192e-08
-6.046003713e-08
-6.602667284e-08
-7.224658554e-08
-7.627035352e-08
-7.863002055e-08
-8.326798185e-08
-8.893506706e-08
-9.234903514e-08
-9.498634404e-08
-9.848145356e-08
-1.034677083e-07
-1.081423297e-07
-1.12979347e-07
-1.190113533e-07
-1.243128163e-07
-1.299417668e-07
-1.356206333e-07
-1.402364278e-07
-1.471648298e-07
-1.525271481e-07
-1.571264416e-07
-1.620475613e-07
-1.684496147e-07
-1.75607272e-07
-1.824863087e-07
-1.86442184e-07
-1.896476881e-07
-1.984619601e-07
-2.042687452e-07
-2.095239032e-07
-2.158423708e-07
-2.220111246e-07
-2.316662385e-07
-2.396770927e-07
-2.464321994e-07
-2.549170217e-07
-2.61285265e-07
-2.672855278e-07
-2.742911194e-07
-2.849282947e-07
-2.933697885e-07
-2.988325174e-07
-3.102995116e-07
-3.181670677e-07
-3.281563049e-07
-3.359205245e-07
-2.828422961e-07
-2.851226744e-07
-2.805016618e-07
-2.73087086e-07
)


100
(
2.751494272e-08
3.167371858e-08
3.365458976e-08
3.434353255e-08
3.372900017e-08
3.446613747e-08
3.325088216e-08
3.353790169e-08
3.197697108e-08
3.189009345e-08
3.103924132e-08
2.962686406e-08
2.91759582e-08
2.77582829e-08
2.616102094e-08
2.515135278e-08
2.389263134e-08
2.226104061e-08
2.104620334e-08
1.997462688e-08
1.864845474e-08
1.694380378e-08
1.540909068e-08
1.384350407e-08
1.215272926e-08
1.012992729e-08
8.267732788e-09
6.730599735e-09
5.431342514e-09
4.055290687e-09
2.089702889e-09
-4.519584377e-10
-2.831848896e-09
-4.641122057e-09
-6.544214418e-09
-9.753351417e-09
-1.286437838e-08
-1.485076105e-08
-1.636651769e-08
-2.040729308e-08
-2.482925092e-08
-2.75386518e-08
-2.910811345e-08
-3.246092537e-08
-3.743364232e-08
-4.117178017e-08
-4.265373914e-08
-4.497417943e-08
-5.089346457e-08
-5.617280953e-08
-5.892613505e-08
-6.089189299e-08
-6.500370529e-08
-6.956365946e-08
-7.371286286e-08
-7.768812903e-08
-8.112384923e-08
-8.430735945e-08
-8.848508701e-08
-9.275475499e-08
-9.664321979e-08
-1.000761825e-07
-1.056244722e-07
-1.115359004e-07
-1.163544996e-07
-1.211666265e-07
-1.269734936e-07
-1.321676174e-07
-1.368411621e-07
-1.433434623e-07
-1.499339752e-07
-1.563265687e-07
-1.631004514e-07
-1.689420042e-07
-1.731304493e-07
-1.812020437e-07
-1.845904852e-07
-1.902413244e-07
-1.965955895e-07
-2.031431914e-07
-2.114562399e-07
-2.179943035e-07
-2.210837127e-07
-2.293059254e-07
-2.362207682e-07
-2.442127234e-07
-2.521400812e-07
-2.591885179e-07
-2.638865311e-07
-2.731426209e-07
-2.841063728e-07
-2.902887726e-07
-2.994026107e-07
-3.06545113e-07
-3.151788773e-07
-3.221181656e-07
-2.742793986e-07
-2.835176788e-07
-2.832439103e-07
-2.799384973e-07
)


100
(
2.7439548e-08
3.18449346e-08
3.404558846e-08
3.451960603e-08
3.500942977e-08
3.534984537e-08
3.474482078e-08
3.454475824e-08
3.399916871e-08
3.282918622e-08
3.305398578e-08
3.171127481e-08
3.065349214e-08
3.01778192e-08
2.86249522e-08
2.71437975e-08
2.614672223e-08
2.490662369e-08
2.330149862e-08
2.203080835e-08
2.091361131e-08
1.964225575e-08
1.794705651e-08
1.634430871e-08
1.475717986e-08
1.293053908e-08
1.074288031e-08
8.720929919e-09
7.233049147e-09
6.135093346e-09
4.939381534e-09
2.912978926e-09
1.226323932e-10
-2.378540084e-09
-4.1265264e-09
-6.225312641e-09
-9.728880279e-09
-1.290981918e-08
-1.446765805e-08
-1.635379777e-08
-2.048744094e-08
-2.499052937e-08
-2.755426145e-08
-2.962924113e-08
-3.313798214e-08
-3.8106401e-08
-4.109166188e-08
-4.267165242e-08
-4.433309789e-08
-4.871860203e-08
-5.221114468e-08
-5.552870326e-08
-5.813515852e-08
-6.088259307e-08
-6.478684061e-08
-6.961339542e-08
-7.451635723e-08
-7.902286529e-08
-8.268239981e-08
-8.713462487e-08
-9.181487002e-08
-9.547330413e-08
-9.914856319e-08
-1.026894158e-07
-1.076061411e-07
-1.12444638e-07
-1.18016557e-07
-1.242367924e-07
-1.286048059e-07
-1.343858855e-07
-1.416061791e-07
-1.4730092e-07
-1.5299348e-07
-1.581805499e-07
-1.629396533e-07
-1.69978689e-07
-1.784944153e-07
-1.841181277e-07
-1.911160216e-07
-1.967943092e-07
-2.008912929e-07
-2.074355503e-07
-2.134100894e-07
-2.195622723e-07
-2.256385864e-07
-2.312583476e-07
-2.370709685e-07
-2.448339642e-07
-2.538489368e-07
-2.602337242e-07
-2.662573712e-07
-2.74708291e-07
-2.823063432e-07
-2.903071914e-07
-2.956227771e-07
-2.951091261e-07
-2.604148797e-07
-2.75665423e-07
-2.786116045e-07
-2.791460818e-07
)


100
(
2.743970459e-08
3.161680613e-08
3.394888258e-08
3.504535312e-08
3.628223807e-08
3.576524151e-08
3.645744045e-08
3.532279653e-08
3.579966447e-08
3.460958081e-08
3.4101508e-08
3.413846816e-08
3.253090766e-08
3.174286665e-08
3.12431672e-08
2.962983946e-08
2.820233094e-08
2.717303848e-08
2.602502704e-08
2.445751948e-08
2.309977478e-08
2.196282364e-08
2.080845635e-08
1.916900839e-08
1.754865124e-08
1.599046914e-08
1.400404501e-08
1.160763369e-08
9.300608484e-09
7.76267382e-09
6.830737427e-09
5.722203175e-09
3.615172662e-09
6.310806529e-10
-1.88023223e-09
-3.528037848e-09
-5.95293069e-09
-9.64309629e-09
-1.272449249e-08
-1.42295815e-08
-1.623741442e-08
-2.014325261e-08
-2.428373417e-08
-2.682151415e-08
-2.867350265e-08
-3.154919026e-08
-3.493128052e-08
-3.775516163e-08
-4.016567734e-08
-4.200951542e-08
-4.469258906e-08
-4.838941169e-08
-5.2554477e-08
-5.664526665e-08
-5.965639886e-08
-6.184039908e-08
-6.642485212e-08
-7.141040775e-08
-7.584061731e-08
-8.021729483e-08
-8.419205997e-08
-8.833561376e-08
-9.209762627e-08
-9.687978242e-08
-1.023328663e-07
-1.063662557e-07
-1.102144282e-07
-1.165911195e-07
-1.225372219e-07
-1.265331968e-07
-1.304602494e-07
-1.350032067e-07
-1.407140983e-07
-1.488577383e-07
-1.564564754e-07
-1.616874604e-07
-1.694196211e-07
-1.74484724e-07
-1.780194315e-07
-1.836073164e-07
-1.900680902e-07
-1.964284145e-07
-2.014220303e-07
-2.060649918e-07
-2.109338403e-07
-2.151976241e-07
-2.217520817e-07
-2.308126895e-07
-2.386113838e-07
-2.434720341e-07
-2.478760098e-07
-2.555605386e-07
-2.617604858e-07
-2.684382167e-07
-2.703945162e-07
-2.627185353e-07
-2.378578723e-07
-2.57814084e-07
-2.640935633e-07
-2.667151563e-07
)


100
(
2.744639694e-08
3.146554047e-08
3.406487123e-08
3.593494124e-08
3.683557739e-08
3.68296914e-08
3.747354534e-08
3.705543595e-08
3.672782586e-08
3.674208964e-08
3.537009672e-08
3.540466709e-08
3.508472022e-08
3.351381932e-08
3.289869917e-08
3.238515039e-08
3.077176905e-08
2.935865145e-08
2.831955036e-08
2.728956848e-08
2.577535561e-08
2.43480916e-08
2.324121954e-08
2.207968619e-08
2.065262137e-08
1.908772365e-08
1.751372447e-08
1.541420762e-08
1.279970693e-08
1.018427853e-08
8.473436732e-09
7.622729655e-09
6.557405961e-09
4.28636551e-09
1.248228681e-09
-1.11605666e-09
-2.879097828e-09
-5.404473524e-09
-9.023096985e-09
-1.16570046e-08
-1.329318878e-08
-1.489936276e-08
-1.793617741e-08
-2.093960638e-08
-2.371746781e-08
-2.582339077e-08
-2.796782085e-08
-3.083383647e-08
-3.429922248e-08
-3.786790193e-08
-4.108444255e-08
-4.307737145e-08
-4.58052363e-08
-4.98368568e-08
-5.415067034e-08
-5.762968304e-08
-6.101620687e-08
-6.347700786e-08
-6.718994825e-08
-7.145886092e-08
-7.652999695e-08
-8.221528575e-08
-8.606858807e-08
-8.947136542e-08
-9.490667354e-08
-1.003827795e-07
-1.040018534e-07
-1.07318021e-07
-1.104741187e-07
-1.148846771e-07
-1.216017588e-07
-1.291864169e-07
-1.326839257e-07
-1.393427141e-07
-1.472206807e-07
-1.515105102e-07
-1.546935543e-07
-1.60195011e-07
-1.663776704e-07
-1.719592198e-07
-1.763639823e-07
-1.810213306e-07
-1.85625138e-07
-1.902612158e-07
-1.955482038e-07
-2.026019816e-07
-2.064529006e-07
-2.131716199e-07
-2.181941628e-07
-2.243479352e-07
-2.31124626e-07
-2.372623749e-07
-2.42412628e-07
-2.448716925e-07
-2.519488674e-07
-2.208528397e-07
-2.055985049e-07
-2.328465865e-07
-2.403048133e-07
-2.46327011e-07
)


100
(
2.727278736e-08
3.165282477e-08
3.453873588e-08
3.669957231e-08
3.701745471e-08
3.821481809e-08
3.796209062e-08
3.888607596e-08
3.780647465e-08
3.811955551e-08
3.761820974e-08
3.64299301e-08
3.674394619e-08
3.619339769e-08
3.463651343e-08
3.410297005e-08
3.36690287e-08
3.213852781e-08
3.065807478e-08
2.962253588e-08
2.877220819e-08
2.732139341e-08
2.580389398e-08
2.474632358e-08
2.358895947e-08
2.237355873e-08
2.087430634e-08
1.926218882e-08
1.715391296e-08
1.431776966e-08
1.162545976e-08
9.859740225e-09
8.879829366e-09
7.636579801e-09
5.302060745e-09
2.41044519e-09
2.549425674e-10
-1.474947446e-09
-3.725140435e-09
-6.634860286e-09
-9.018415398e-09
-1.075900952e-08
-1.218063709e-08
-1.429541764e-08
-1.715577426e-08
-2.039196568e-08
-2.351354828e-08
-2.573206344e-08
-2.771432874e-08
-3.101066261e-08
-3.474860373e-08
-3.829759494e-08
-4.136155085e-08
-4.370785932e-08
-4.627697631e-08
-4.992152551e-08
-5.35694334e-08
-5.805933436e-08
-6.23767019e-08
-6.491078408e-08
-6.819599703e-08
-7.362262741e-08
-7.925126065e-08
-8.322950418e-08
-8.58875727e-08
-8.87577938e-08
-9.27229002e-08
-9.809543882e-08
-1.04342427e-07
-1.07156574e-07
-1.119838656e-07
-1.192460705e-07
-1.246807056e-07
-1.28000289e-07
-1.317007373e-07
-1.37669376e-07
-1.429787674e-07
-1.470795886e-07
-1.510706104e-07
-1.553710976e-07
-1.598867237e-07
-1.64455462e-07
-1.704394792e-07
-1.767195502e-07
-1.805437344e-07
-1.856522559e-07
-1.884000566e-07
-1.933520998e-07
-1.984508704e-07
-2.043229001e-07
-2.109132093e-07
-2.157527092e-07
-2.210234801e-07
-2.241455045e-07
-2.319661587e-07
-1.748085588e-07
-1.747095846e-07
-2.088110364e-07
-2.164180492e-07
-2.228735359e-07
)


100
(
2.68764823e-08
3.181333579e-08
3.498790444e-08
3.66937536e-08
3.780329523e-08
3.914083698e-08
3.906689705e-08
3.974297001e-08
3.977700146e-08
3.907594592e-08
3.954952566e-08
3.865521333e-08
3.784250806e-08
3.810860534e-08
3.743653539e-08
3.592398432e-08
3.545517527e-08
3.512691928e-08
3.375004502e-08
3.217285525e-08
3.119061709e-08
3.032394125e-08
2.908275598e-08
2.761812825e-08
2.644807835e-08
2.531386597e-08
2.426188968e-08
2.285145134e-08
2.120539853e-08
1.917917427e-08
1.639717193e-08
1.365712067e-08
1.16669364e-08
1.051138195e-08
9.350957103e-09
7.315786577e-09
4.913828636e-09
2.918280878e-09
1.244655751e-09
-6.334475085e-10
-3.002731006e-09
-5.636242059e-09
-8.130633352e-09
-1.006744045e-08
-1.162086197e-08
-1.393615415e-08
-1.711620812e-08
-2.044977886e-08
-2.321893118e-08
-2.532203546e-08
-2.743730046e-08
-3.049404999e-08
-3.377402681e-08
-3.725693036e-08
-4.104898909e-08
-4.358171974e-08
-4.567108605e-08
-4.95665314e-08
-5.453855624e-08
-5.932358792e-08
-6.274966021e-08
-6.449200407e-08
-6.72729445e-08
-7.116196347e-08
-7.555699955e-08
-8.049019547e-08
-8.363005454e-08
-8.761916081e-08
-9.469485581e-08
-1.012689815e-07
-1.040107031e-07
-1.058195223e-07
-1.100418595e-07
-1.134982859e-07
-1.171136495e-07
-1.207936697e-07
-1.252042678e-07
-1.295182686e-07
-1.337927203e-07
-1.387928491e-07
-1.446199119e-07
-1.487224983e-07
-1.527680717e-07
-1.574727828e-07
-1.624900221e-07
-1.661657498e-07
-1.706436423e-07
-1.748134692e-07
-1.796237046e-07
-1.847158893e-07
-1.896553453e-07
-1.936898213e-07
-1.97601873e-07
-2.02263418e-07
-1.939770683e-07
-1.417662935e-07
-1.614020977e-07
-1.896374814e-07
-2.002348543e-07
-2.09971824e-07
)


100
(
2.665651869e-08
3.181923188e-08
3.499093356e-08
3.662410492e-08
3.878000224e-08
3.94228024e-08
4.055074849e-08
4.025195448e-08
4.145832334e-08
4.080217065e-08
4.061790692e-08
4.099700919e-08
3.980088317e-08
3.927812898e-08
3.959626164e-08
3.891135686e-08
3.739302326e-08
3.696719133e-08
3.674759223e-08
3.559086303e-08
3.387679996e-08
3.293557524e-08
3.206889223e-08
3.103669483e-08
2.961963211e-08
2.831323405e-08
2.725268487e-08
2.616309925e-08
2.503469718e-08
2.34540298e-08
2.144641076e-08
1.883747143e-08
1.628106662e-08
1.452584859e-08
1.323262759e-08
1.200891118e-08
1.035006658e-08
8.330361805e-09
6.263123538e-09
4.347302927e-09
2.568651398e-09
4.777312471e-10
-2.182891601e-09
-5.02963662e-09
-7.501237904e-09
-9.220366235e-09
-1.08657365e-08
-1.33456763e-08
-1.63788337e-08
-1.913831903e-08
-2.185996296e-08
-2.407484107e-08
-2.595830497e-08
-2.869710639e-08
-3.275737708e-08
-3.729078975e-08
-4.119118004e-08
-4.263602162e-08
-4.466510297e-08
-4.831646441e-08
-5.171521484e-08
-5.497069565e-08
-5.775566201e-08
-5.958327261e-08
-6.30525117e-08
-6.961857921e-08
-7.617185561e-08
-7.952416259e-08
-8.157715825e-08
-8.680153679e-08
-8.99059989e-08
-9.234810304e-08
-9.515536962e-08
-9.80317543e-08
-1.009839136e-07
-1.042760347e-07
-1.085768658e-07
-1.127808797e-07
-1.172456886e-07
-1.215057365e-07
-1.250407541e-07
-1.283646921e-07
-1.33188482e-07
-1.376691334e-07
-1.411916698e-07
-1.440889466e-07
-1.51030238e-07
-1.536750505e-07
-1.58209446e-07
-1.601461399e-07
-1.623849592e-07
-1.651868052e-07
-1.67209127e-07
-1.677871643e-07
-1.533321992e-07
-1.2648418e-07
-1.595841882e-07
-1.766416629e-07
-1.901965041e-07
-1.975333298e-07
)


100
(
2.665672616e-08
3.162838134e-08
3.478413845e-08
3.720451977e-08
3.930987738e-08
4.00084681e-08
4.149778933e-08
4.166364912e-08
4.211164074e-08
4.286235162e-08
4.194183642e-08
4.212928712e-08
4.224991085e-08
4.114730118e-08
4.083288243e-08
4.121573987e-08
4.057497965e-08
3.90641039e-08
3.864889401e-08
3.848109446e-08
3.756238558e-08
3.590376006e-08
3.482945723e-08
3.397091197e-08
3.319440249e-08
3.178295462e-08
3.036611129e-08
2.93501855e-08
2.829336853e-08
2.729212427e-08
2.588966631e-08
2.404843517e-08
2.187044672e-08
1.970172701e-08
1.77945434e-08
1.638560736e-08
1.503347071e-08
1.358430349e-08
1.17571922e-08
9.579814367e-09
7.433100958e-09
5.580832431e-09
3.824529498e-09
1.560776769e-09
-1.13784921e-09
-3.729802655e-09
-5.85930592e-09
-7.618817998e-09
-9.261191675e-09
-1.140299262e-08
-1.411568768e-08
-1.759937615e-08
-2.098218884e-08
-2.294360204e-08
-2.429964193e-08
-2.766525468e-08
-3.171549044e-08
-3.495812978e-08
-3.692409191e-08
-3.779753766e-08
-3.88540545e-08
-4.202432075e-08
-4.754585963e-08
-5.29837167e-08
-5.496909766e-08
-5.723090638e-08
-6.246172798e-08
-6.636754221e-08
-6.851806273e-08
-7.061707224e-08
-7.357012771e-08
-7.712311309e-08
-8.064451713e-08
-8.337180244e-08
-8.611264283e-08
-8.907514768e-08
-9.225736283e-08
-9.532407378e-08
-9.813554132e-08
-1.009690182e-07
-1.048779982e-07
-1.083310389e-07
-1.125127645e-07
-1.14776127e-07
-1.178263762e-07
-1.230044604e-07
-1.282393253e-07
-1.306838516e-07
-1.320430894e-07
-1.330800378e-07
-1.339029353e-07
-1.346623792e-07
-1.344105704e-07
-1.352523951e-07
-1.247017272e-07
-1.182488422e-07
-1.498504705e-07
-1.643803075e-07
-1.80460577e-07
-1.8999661e-07
)


100
(
2.666242842e-08
3.152943892e-08
3.49330482e-08
3.775147872e-08
3.926356111e-08
4.106837935e-08
4.181109985e-08
4.321936422e-08
4.287950225e-08
4.392281994e-08
4.408835343e-08
4.317140615e-08
4.368838542e-08
4.37360155e-08
4.267337463e-08
4.248429916e-08
4.292001686e-08
4.241453307e-08
4.091958766e-08
4.043419874e-08
4.030055885e-08
3.968508453e-08
3.809418321e-08
3.686014315e-08
3.604861863e-08
3.521342634e-08
3.411133153e-08
3.277386536e-08
3.155917774e-08
3.058061486e-08
2.944179097e-08
2.826044938e-08
2.648477826e-08
2.458662057e-08
2.282732906e-08
2.107893828e-08
1.952235419e-08
1.803919266e-08
1.659245384e-08
1.497775546e-08
1.296095414e-08
1.076425799e-08
8.862517308e-09
7.202996831e-09
5.538600025e-09
3.445055035e-09
1.09347764e-09
-1.342666455e-09
-3.797232948e-09
-5.748944874e-09
-7.307079667e-09
-9.666688128e-09
-1.318471444e-08
-1.671808526e-08
-1.891195695e-08
-1.986690153e-08
-2.088832466e-08
-2.32610092e-08
-2.565413126e-08
-2.896154682e-08
-3.182076984e-08
-3.334807676e-08
-3.633397362e-08
-4.172773496e-08
-4.62663491e-08
-4.815098187e-08
-4.922443887e-08
-5.100985247e-08
-5.344561821e-08
-5.600767495e-08
-5.853476695e-08
-6.113655176e-08
-6.387561357e-08
-6.656495343e-08
-6.952623103e-08
-7.231557617e-08
-7.447842293e-08
-7.668055042e-08
-7.897125968e-08
-8.144175654e-08
-8.504772878e-08
-8.808303087e-08
-8.901719766e-08
-9.112660458e-08
-9.556302869e-08
-1.011047493e-07
-1.026248672e-07
-1.036070168e-07
-1.046426529e-07
-1.059420984e-07
-1.071661933e-07
-1.090605534e-07
-1.06515031e-07
-1.091475449e-07
-9.270326286e-08
-1.030118613e-07
-1.291373729e-07
-1.448681726e-07
-1.632399708e-07
-1.840635381e-07
)


100
(
2.633627481e-08
3.156218157e-08
3.515926176e-08
3.785726785e-08
3.948704641e-08
4.18268085e-08
4.249030169e-08
4.391406036e-08
4.457560624e-08
4.451608409e-08
4.563692648e-08
4.547263184e-08
4.484529684e-08
4.540654199e-08
4.542075098e-08
4.437240033e-08
4.42270126e-08
4.470751025e-08
4.438049971e-08
4.295307708e-08
4.231219754e-08
4.221387983e-08
4.197396556e-08
4.04549601e-08
3.900915965e-08
3.827536664e-08
3.742425159e-08
3.665930149e-08
3.532424353e-08
3.390270713e-08
3.277700795e-08
3.158392918e-08
3.045515485e-08
2.907823474e-08
2.747791431e-08
2.58233917e-08
2.425175551e-08
2.254924562e-08
2.106536907e-08
1.963135084e-08
1.823001523e-08
1.663606115e-08
1.478923207e-08
1.291338671e-08
1.116382318e-08
9.521515804e-09
7.916549644e-09
5.998235002e-09
3.409603629e-09
4.083639889e-10
-2.144425659e-09
-3.539164057e-09
-4.8757362e-09
-7.406267018e-09
-1.002245884e-08
-1.173425259e-08
-1.305031952e-08
-1.391651934e-08
-1.52550548e-08
-1.870043554e-08
-2.346475584e-08
-2.742146247e-08
-2.843020076e-08
-2.968732489e-08
-3.281507883e-08
-3.464905554e-08
-3.605001633e-08
-3.774166404e-08
-3.970071799e-08
-4.171401181e-08
-4.353655691e-08
-4.543938478e-08
-4.729691637e-08
-4.986724446e-08
-5.261575335e-08
-5.521533848e-08
-5.673643013e-08
-5.779384431e-08
-6.053375267e-08
-6.319296696e-08
-6.36423995e-08
-6.564075162e-08
-6.608721279e-08
-7.053460698e-08
-7.401314113e-08
-7.490085187e-08
-7.597759434e-08
-7.692994842e-08
-7.791947294e-08
-7.804751728e-08
-7.772022437e-08
-7.650638883e-08
-7.512533185e-08
-7.125397675e-08
-5.680540456e-08
-7.762701935e-08
-1.032266524e-07
-1.191752434e-07
-1.375106241e-07
-1.561011871e-07
)


100
(
2.577283747e-08
3.154419885e-08
3.528513728e-08
3.766120326e-08
4.0103466e-08
4.18348393e-08
4.361847075e-08
4.422104709e-08
4.595705212e-08
4.59823692e-08
4.63618066e-08
4.755278843e-08
4.705544901e-08
4.659395226e-08
4.724847183e-08
4.729203475e-08
4.626619386e-08
4.609790361e-08
4.658203852e-08
4.6523629e-08
4.517676813e-08
4.430272123e-08
4.426025256e-08
4.39767768e-08
4.300389234e-08
4.167025087e-08
4.068971215e-08
3.987220802e-08
3.881524975e-08
3.777400244e-08
3.64464252e-08
3.514566602e-08
3.414253713e-08
3.298462157e-08
3.189818387e-08
3.036697241e-08
2.880560724e-08
2.743824163e-08
2.593259536e-08
2.440888278e-08
2.32370351e-08
2.203965785e-08
2.07373799e-08
1.924612533e-08
1.742115152e-08
1.545049996e-08
1.364042355e-08
1.198204409e-08
1.054293444e-08
8.373004824e-09
5.617931636e-09
3.252534511e-09
2.043797615e-09
1.354294201e-09
4.640724893e-10
-1.229938792e-09
-3.65565569e-09
-6.639351759e-09
-8.76065865e-09
-9.934106918e-09
-1.276201032e-08
-1.66279991e-08
-1.895036067e-08
-1.980706792e-08
-2.048201656e-08
-2.129350511e-08
-2.250927997e-08
-2.411850139e-08
-2.58197436e-08
-2.742818777e-08
-2.885057587e-08
-3.029600844e-08
-3.22574976e-08
-3.450803953e-08
-3.61360397e-08
-3.714749498e-08
-3.753019203e-08
-3.896961476e-08
-4.1175813e-08
-4.337241645e-08
-4.322165336e-08
-4.448342493e-08
-4.631794824e-08
-4.80773183e-08
-5.03540357e-08
-4.961597456e-08
-4.967440323e-08
-4.994588251e-08
-4.979886178e-08
-4.947435628e-08
-4.690621488e-08
-4.195770161e-08
-4.06223459e-08
-3.632148763e-08
-2.609177672e-08
-4.560239139e-08
-7.400610661e-08
-9.087248259e-08
-1.08204773e-07
-1.265081629e-07
)


100
(
2.554269947e-08
3.133472533e-08
3.513498715e-08
3.77702151e-08
4.058173036e-08
4.193012327e-08
4.430008614e-08
4.524781057e-08
4.640102839e-08
4.77189318e-08
4.754040609e-08
4.830313624e-08
4.94191136e-08
4.87600834e-08
4.842501145e-08
4.916556151e-08
4.93439191e-08
4.835289768e-08
4.805314556e-08
4.855641073e-08
4.885648926e-08
4.759308867e-08
4.641571433e-08
4.642697977e-08
4.61674989e-08
4.579586577e-08
4.451420055e-08
4.301869589e-08
4.20953819e-08
4.110904231e-08
4.052864697e-08
3.932415329e-08
3.801980072e-08
3.687965826e-08
3.584209556e-08
3.466967592e-08
3.355603038e-08
3.212063737e-08
3.093906281e-08
2.987923947e-08
2.870770498e-08
2.733039559e-08
2.623505501e-08
2.489045425e-08
2.366029602e-08
2.21121754e-08
2.015991382e-08
1.805014364e-08
1.653824645e-08
1.543298941e-08
1.439131869e-08
1.287143635e-08
1.126531153e-08
1.002703253e-08
8.956411077e-09
7.804278288e-09
6.263642301e-09
3.18484239e-09