/*--------------------------------*- C++ -*----------------------------------*\
| =========                 |                                                 |
| \\      /  F ield         | OpenFOAM: The Open Source CFD Toolbox           |
|  \\    /   O peration     | Version:  2.3.1                                 |
|   \\  /    A nd           | Web:      www.OpenFOAM.org                      |
|    \\/     M anipulation  |                                                 |
\*---------------------------------------------------------------------------*/
FoamFile
{
    version     2.0;
    format      ascii;
    class       dictionary;
    location    "constant";
    object      DPSI25;
}
// * * * * * * * * * * * * * * * * * * * * * * * * * * * * * * * * * * * * * //

DPSI25_table
100
(

100
(
4.303684158e-09
3.24692668e-09
1.729364437e-09
1.065744486e-09
7.142731205e-10
4.963602681e-10
3.774618791e-10
2.909181029e-10
2.284815127e-10
1.867359964e-10
1.476994756e-10
1.121140991e-10
1.022856618e-10
8.29259125e-11
6.7784537e-11
6.387381815e-11
5.355652924e-11
4.424204685e-11
4.267632288e-11
3.749929189e-11
3.108825878e-11
2.888894225e-11
2.712883099e-11
2.268760213e-11
1.929572072e-11
1.879138356e-11
1.746396724e-11
1.490221994e-11
1.328093502e-11
1.29656917e-11
1.151369245e-11
9.381685988e-12
8.458536575e-12
8.27705593e-12
7.852858506e-12
6.849561526e-12
6.115870715e-12
5.971887079e-12
5.594997096e-12
4.725608499e-12
4.094707064e-12
3.982759069e-12
3.70444006e-12
3.067550532e-12
2.625783386e-12
2.569342118e-12
2.513750776e-12
2.186771135e-12
1.868089845e-12
1.831251141e-12
1.747137159e-12
1.466929679e-12
1.233897996e-12
1.203638507e-12
1.099511637e-12
8.954401693e-13
7.648961806e-13
7.232835706e-13
6.536472418e-13
5.610374507e-13
4.89557298e-13
4.497262352e-13
4.112270873e-13
3.623106277e-13
3.191473739e-13
2.914735713e-13
2.581882476e-13
2.220192881e-13
1.959905674e-13
1.740898331e-13
1.528041286e-13
1.30878483e-13
1.122496173e-13
9.967949716e-14
8.552052171e-14
6.902483703e-14
6.202556003e-14
5.232179527e-14
4.071066297e-14
3.554255084e-14
2.596771639e-14
2.13513166e-14
1.722360705e-14
1.225128676e-14
9.667828427e-15
6.659746401e-15
5.249421586e-15
3.492724177e-15
3.279098201e-15
2.511950341e-15
1.733001284e-15
1.089774402e-15
6.742069455e-16
4.04596523e-16
2.034676516e-16
9.062778459e-17
3.604099872e-17
3.355647414e-17
1.966684733e-17
3.744004432e-18
)


100
(
4.395524136e-09
3.376862375e-09
1.858083789e-09
1.144868093e-09
7.747257021e-10
5.439340542e-10
4.083353879e-10
3.152198091e-10
2.499884694e-10
2.020899145e-10
1.633657203e-10
1.279945434e-10
1.074562198e-10
9.088457605e-11
7.550143931e-11
6.63207077e-11
5.807465563e-11
4.946520016e-11
4.423913213e-11
3.992647811e-11
3.475815483e-11
3.089571944e-11
2.836414124e-11
2.518548041e-11
2.182775047e-11
1.974898049e-11
1.829867527e-11
1.637857403e-11
1.461492123e-11
1.358326472e-11
1.254196926e-11
1.101286879e-11
9.642572548e-12
8.817371571e-12
8.223332485e-12
7.486160495e-12
6.727933119e-12
6.284020885e-12
5.954856321e-12
5.405432657e-12
4.751879529e-12
4.351504166e-12
4.132696364e-12
3.801351247e-12
3.34284731e-12
2.992259448e-12
2.800748862e-12
2.578082864e-12
2.246499939e-12
1.957149066e-12
1.825170276e-12
1.722556789e-12
1.564033892e-12
1.426634308e-12
1.374309825e-12
1.279809192e-12
9.977557466e-13
5.269945977e-13
-1.279418417e-13
-5.993488565e-13
1.319264524e-13
1.33834992e-12
1.154412658e-12
1.921520637e-13
2.719457789e-13
8.909291934e-13
5.761256499e-13
1.105544446e-13
4.557655808e-13
6.979719726e-13
2.990466168e-13
2.033042203e-13
3.170155799e-13
-4.079667671e-13
-8.845995656e-13
5.264888125e-13
8.856356942e-13
-1.704619822e-13
5.800910526e-13
5.050131668e-13
-5.330558952e-16
5.039515187e-13
-5.524608677e-14
1.088605554e-13
3.948823377e-13
-3.887677012e-13
2.127664443e-13
1.223977226e-13
-3.766042844e-14
2.807140326e-13
3.329951991e-16
-2.201767563e-13
-3.738614129e-13
-3.412491661e-13
-2.041835431e-13
-3.010323555e-14
-8.706773953e-14
1.244505043e-12
1.420049749e-12
5.745229972e-13
)


100
(
4.472560821e-09
3.498105032e-09
1.982723071e-09
1.22833615e-09
8.371403917e-10
5.933962814e-10
4.413551106e-10
3.422288335e-10
2.715270206e-10
2.204883782e-10
1.791034196e-10
1.434266859e-10
1.17826584e-10
9.84634033e-11
8.271198e-11
7.15037887e-11
6.260521586e-11
5.401078254e-11
4.775957821e-11
4.321160533e-11
3.828378209e-11
3.382973564e-11
3.069942724e-11
2.787003817e-11
2.459977554e-11
2.184682671e-11
1.998572468e-11
1.83403873e-11
1.651906538e-11
1.488835238e-11
1.38034225e-11
1.272435861e-11
1.132931591e-11
1.000561427e-11
9.182253204e-12
8.622245607e-12
7.903412189e-12
7.023875011e-12
6.370222348e-12
6.075137847e-12
5.615843515e-12
4.887965159e-12
4.215185455e-12
4.119963304e-12
4.217300942e-12
3.889108009e-12
3.419778906e-12
3.208815342e-12
3.132630344e-12
2.701246061e-12
2.022889136e-12
1.425288337e-12
1.347097498e-12
1.415385924e-12
1.244006616e-12
1.018574687e-12
1.077631691e-12
1.045002926e-12
4.773316848e-13
-3.870128051e-13
-8.229984168e-13
1.736413122e-13
1.7090846e-12
2.037957477e-12
1.286596738e-12
1.029717126e-12
1.266829857e-12
1.159257755e-12
9.241736459e-13
1.012399805e-12
1.049751935e-12
8.835341422e-13
8.921830205e-13
4.162046769e-13
-1.52702873e-12
-2.907915209e-12
-9.91616369e-13
5.823913692e-13
8.207608094e-13
9.124043424e-13
-1.336799266e-12
8.082528469e-14
-4.634743109e-13
-1.74772667e-12
1.55675238e-12
3.821671343e-13
-2.823025973e-13
4.859155182e-13
-1.559685301e-12
-2.814039307e-12
-2.24275107e-12
-2.567732965e-12
-7.573260008e-12
-5.082443264e-12
-7.586655073e-13
-5.440094759e-12
5.156389836e-12
1.90389948e-11
1.33933513e-11
6.706159853e-12
)


100
(
4.530232324e-09
3.603151731e-09
2.103823481e-09
1.313119101e-09
9.022189065e-10
6.457325573e-10
4.783667264e-10
3.710294509e-10
2.961079708e-10
2.397969452e-10
1.9688535e-10
1.592998997e-10
1.305058994e-10
1.090523459e-10
9.077619937e-11
7.750693897e-11
6.819172127e-11
5.972226097e-11
5.182608087e-11
4.668456026e-11
4.267419891e-11
3.780196022e-11
3.32863495e-11
3.020356068e-11
2.761896088e-11
2.454885132e-11
2.175236942e-11
2.008649791e-11
1.890158877e-11
1.719675059e-11
1.51099519e-11
1.375932352e-11
1.299265765e-11
1.162495511e-11
1.002212194e-11
8.905536435e-12
8.525614898e-12
8.005222492e-12
7.069592912e-12
6.042419665e-12
5.379662454e-12
5.199689962e-12
4.592737075e-12
3.748831244e-12
2.892539758e-12
2.927634858e-12
3.304018042e-12
3.125163664e-12
2.540983201e-12
2.555266041e-12
2.803592653e-12
2.475880435e-12
2.377702495e-12
2.766236059e-12
3.213654176e-12
2.989814864e-12
2.514264502e-12
2.625366405e-12
3.154699044e-12
2.854797902e-12
2.041913298e-12
1.5513323e-12
1.821998487e-12
2.500001029e-12
2.797091473e-12
2.654157107e-12
2.306050693e-12
1.415382563e-12
-6.369317872e-14
-1.352315947e-12
-2.445069117e-12
-4.054954921e-12
-5.067217578e-12
-1.516356165e-12
-3.615913631e-13
-8.079383055e-12
-4.009630786e-12
6.478485103e-12
-2.094246024e-12
-5.549170207e-12
2.399065243e-12
2.877092974e-13
-6.472199594e-13
1.832864634e-12
-1.474437525e-12
-5.596140674e-12
-8.066388483e-12
-7.938328314e-12
-1.202566369e-11
-1.745515764e-11
-1.302495909e-11
-1.652349894e-11
-1.516180922e-11
-1.831774454e-11
-3.327252581e-11
-2.87714779e-11
4.807905702e-11
9.763231431e-11
5.537823375e-11
3.188832983e-11
)


100
(
4.569978768e-09
3.680977243e-09
2.214270945e-09
1.402857992e-09
9.70173304e-10
6.98746571e-10
5.202589327e-10
4.013443202e-10
3.218747479e-10
2.610117999e-10
2.152212347e-10
1.78240116e-10
1.449270302e-10
1.206774828e-10
1.01791985e-10
8.51099298e-11
7.352963554e-11
6.55108387e-11
5.787884208e-11
5.044608785e-11
4.547954394e-11
4.187119764e-11
3.712668475e-11
3.167523235e-11
2.793127018e-11
2.585499364e-11
2.338485107e-11
2.0682657e-11
1.908266625e-11
1.843819333e-11
1.699371972e-11
1.487673058e-11
1.248975208e-11
1.19251788e-11
1.162808625e-11
9.801831067e-12
7.222678789e-12
6.397825275e-12
6.489459179e-12
5.452635311e-12
5.249962093e-12
5.186015808e-12
6.008744366e-12
6.523170514e-12
5.645749358e-12
4.055790416e-12
4.776092102e-12
6.289756331e-12
5.603268027e-12
4.710722826e-12
5.017971418e-12
5.631652683e-12
5.191159374e-12
5.047726862e-12
5.510176023e-12
5.616969197e-12
4.299872541e-12
3.209051331e-12
3.627624646e-12
4.696022232e-12
4.733594141e-12
2.957768708e-12
5.380058348e-13
-1.130828497e-12
-2.069717933e-12
-2.244743407e-12
-1.167920525e-12
-3.038326397e-13
-8.50802362e-13
-1.333451993e-12
-1.407452306e-12
-4.804878952e-12
-1.456133371e-11
-2.137631636e-11
-8.47157268e-12
6.456577068e-12
-3.981208712e-14
-5.294216295e-12
-1.686068618e-13
1.056156367e-12
-2.699880469e-12
-1.549155116e-11
-2.497375801e-11
-1.768173893e-11
-1.098025456e-11
-9.406775235e-12
-1.764314988e-11
-3.75083249e-11
-7.071458808e-11
-4.7924735e-11
-7.943140605e-12
-4.586413659e-11
-6.22771037e-11
-7.466333529e-11
-1.15275186e-10
-6.70236582e-11
1.937103701e-10
2.993767898e-10
1.555171339e-10
9.841928204e-11
)


100
(
4.600363173e-09
3.74830651e-09
2.314527176e-09
1.490387661e-09
1.042340879e-09
7.544487364e-10
5.651060485e-10
4.366672631e-10
3.49105922e-10
2.871130387e-10
2.348077963e-10
1.956761092e-10
1.628754938e-10
1.337286939e-10
1.126896814e-10
9.563943775e-11
7.992576403e-11
6.918745592e-11
6.250877266e-11
5.575501742e-11
4.817246444e-11
4.265330036e-11
3.935832293e-11
3.451199188e-11
2.739453527e-11
2.146272892e-11
1.979511572e-11
2.008481864e-11
1.943831826e-11
1.722757416e-11
1.648146914e-11
1.627430169e-11
1.460393016e-11
1.157677565e-11
1.193822315e-11
1.377425962e-11
1.233495188e-11
7.624580177e-12
6.695736309e-12
9.225682511e-12
8.445701302e-12
7.524277414e-12
8.019923886e-12
1.047601232e-11
1.103399659e-11
8.543945312e-12
6.474535802e-12
8.811286568e-12
1.050651664e-11
8.676970515e-12
7.177405146e-12
7.23186132e-12
7.271202526e-12
6.455886335e-12
5.839882031e-12
5.40950354e-12
2.902649556e-12
-1.299685854e-12
-4.449824806e-12
-5.523658843e-12
-4.045698106e-12
-1.692221403e-12
-8.324804816e-13
-4.773770505e-13
4.013031099e-13
3.351359064e-13
-9.193999278e-14
6.349750955e-13
1.137041922e-12
-1.783882109e-12
-8.325103377e-12
-1.521751864e-11
-1.903148971e-11
-1.858197755e-11
-1.869825424e-11
-1.169094896e-11
-2.665262237e-12
-8.022195357e-12
-2.634383851e-11
-4.20174411e-11
-3.98853577e-11
-2.644537957e-11
-2.335828295e-11
-3.829020081e-11
-5.800052578e-11
-5.160028322e-11
-4.620917291e-11
-1.247130687e-10
-1.292964463e-10
-4.471338833e-11
-1.020656113e-10
-1.42575608e-10
-1.579055311e-10
-2.293767399e-10
-2.77000564e-10
-1.320887116e-11
5.482964536e-10
6.331959933e-10
3.468281057e-10
2.316422122e-10
)


100
(
4.614688477e-09
3.803059158e-09
2.403647973e-09
1.580169597e-09
1.114130456e-09
8.121663075e-10
6.114052432e-10
4.758015173e-10
3.780759869e-10
3.115812573e-10
2.589772858e-10
2.134247059e-10
1.796723624e-10
1.496087136e-10
1.235168257e-10
1.048785283e-10
8.880706193e-11
7.307850985e-11
6.277463908e-11
5.779716148e-11
5.209793609e-11
4.409429314e-11
3.7372111e-11
3.45793971e-11
2.977996613e-11
1.997863452e-11
1.345426394e-11
1.445982916e-11
1.806641378e-11
1.907279044e-11
1.648704143e-11
1.739425465e-11
1.94854195e-11
1.699755594e-11
1.372814618e-11
1.63624187e-11
1.973713569e-11
1.603725792e-11
1.090715248e-11
1.221225523e-11
1.540757551e-11
1.381331803e-11
1.226867541e-11
1.306552171e-11
1.540259684e-11
1.338633468e-11
9.488076202e-12
7.483144772e-12
9.000886173e-12
9.461699465e-12
6.234588435e-12
3.183721618e-12
-2.874562861e-13
-2.136629329e-12
-3.675224613e-12
-4.938399343e-12
-4.436519483e-12
-3.16145366e-12
-2.829856953e-12
-3.968171114e-12
-3.917860891e-12
-2.286735703e-12
-2.946113776e-12
-3.42328186e-12
-2.316130578e-12
-4.72519549e-12
-1.267313522e-11
-2.208543078e-11
-2.456280201e-11
-2.259427739e-11
-1.997042427e-11
-1.546757832e-11
-1.418858283e-11
-1.519405847e-11
-2.067320199e-11
-4.143506647e-11
-5.721241805e-11
-5.946928023e-11
-5.413346299e-11
-3.935738394e-11
-4.100485993e-11
-7.609198059e-11
-1.138074582e-10
-1.117130001e-10
-9.385257654e-11
-1.200056196e-10
-1.663330966e-10
-2.610666749e-10
-2.88454559e-10
-1.496098661e-10
-1.429935253e-10
-2.851976235e-10
-4.086517363e-10
-5.438385308e-10
-5.763655361e-10
2.037054609e-10
1.225714736e-09
1.206974663e-09
7.006455282e-10
4.827429762e-10
)


100
(
4.617075677e-09
3.846792573e-09
2.483784042e-09
1.664795591e-09
1.184299811e-09
8.733619846e-10
6.605840707e-10
5.161230662e-10
4.145818352e-10
3.363070611e-10
2.815619882e-10
2.331038017e-10
1.941242837e-10
1.649339783e-10
1.364252133e-10
1.122879525e-10
9.538551091e-11
7.936135481e-11
6.378300557e-11
5.407753162e-11
5.103141735e-11
4.733590318e-11
3.935873968e-11
3.144935231e-11
3.030205289e-11
2.719950297e-11
1.481497073e-11
8.524246264e-12
1.253267041e-11
1.970075212e-11
1.956105948e-11
1.927332113e-11
2.580022313e-11
2.783406487e-11
2.221311485e-11
1.898910438e-11
2.465404645e-11
2.706574921e-11
2.047878213e-11
1.494340829e-11
1.777564248e-11
2.093603609e-11
1.790681339e-11
1.444414269e-11
1.370532144e-11
1.225949581e-11
6.676686686e-12
1.254631184e-14
-5.018810881e-12
-7.401530915e-12
-6.526303635e-12
-6.586948698e-12
-7.623843943e-12
-8.055205462e-12
-8.2766332e-12
-4.68772333e-12
-1.490295576e-12
-1.04105236e-12
-2.308636635e-13
-2.944172235e-12
-6.163937136e-12
-9.272536885e-12
-1.734232652e-11
-2.99815549e-11
-4.037350181e-11
-4.002148158e-11
-3.431230611e-11
-3.145936041e-11
-2.947446816e-11
-2.896355152e-11
-3.079887725e-11
-3.544811362e-11
-5.439944178e-11
-7.927933609e-11
-8.187117229e-11
-7.485580741e-11
-6.809015043e-11
-5.929454057e-11
-6.932721513e-11
-1.168649281e-10
-1.641305963e-10
-1.704215403e-10
-1.675287486e-10
-1.946992651e-10
-2.452087075e-10
-2.848442463e-10
-3.096170485e-10
-3.85019355e-10
-4.066695417e-10
-3.638492582e-10
-4.991458562e-10
-6.961476993e-10
-8.564299118e-10
-1.094618594e-09
-1.053382357e-09
7.582948419e-10
2.450277973e-09
2.075587457e-09
1.291073272e-09
9.388943684e-10
)


100
(
4.607128894e-09
3.876161852e-09
2.555097758e-09
1.741980267e-09
1.2555525e-09
9.346513538e-10
7.134821362e-10
5.570417667e-10
4.49194789e-10
3.628468516e-10
3.007333021e-10
2.552194516e-10
2.082280154e-10
1.743091515e-10
1.492687643e-10
1.218692527e-10
9.971016721e-11
8.246978895e-11
6.7387069e-11
5.459830302e-11
4.454926539e-11
4.471376426e-11
4.501219202e-11
3.816627265e-11
3.131146983e-11
3.021562762e-11
2.786689911e-11
1.529620734e-11
9.617652802e-12
1.617480862e-11
2.407242491e-11
2.383119729e-11
2.70755074e-11
3.681188163e-11
3.597601573e-11
2.875512265e-11
2.65346318e-11
3.2047077e-11
2.963290353e-11
2.014650693e-11
1.465781331e-11
1.579638856e-11
1.60313377e-11
9.876321798e-12
3.510594512e-12
-3.60415055e-12
-8.294698982e-12
-1.279083474e-11
-1.795489496e-11
-1.896229231e-11
-1.707689384e-11
-1.275909317e-11
-7.217292139e-12
-5.478370918e-12
-6.607237944e-12
-7.600387791e-12
-1.148753294e-11
-1.346651403e-11
-1.257437207e-11
-1.908156365e-11
-3.307048663e-11
-4.79613777e-11
-5.489402674e-11
-5.548019287e-11
-5.606315819e-11
-5.147290234e-11
-4.461923311e-11
-4.583254366e-11
-5.375585038e-11
-7.526832714e-11
-1.120582811e-10
-1.333217394e-10
-1.237795552e-10
-1.098291605e-10
-9.827948448e-11
-9.365843438e-11
-1.158870364e-10
-1.721148225e-10
-2.252637235e-10
-2.39175716e-10
-2.33250268e-10
-2.45837679e-10
-3.388186234e-10
-4.242630274e-10
-4.637082542e-10
-4.860282316e-10
-6.101442094e-10
-6.202947661e-10
-5.454705376e-10
-7.233469429e-10
-9.875446536e-10
-1.286494436e-09
-1.628880282e-09
-1.842591373e-09
-1.56635614e-09
1.630781967e-09
4.175179614e-09
3.273981513e-09
2.15696009e-09
1.613842133e-09
)


100
(
4.587718448e-09
3.890759076e-09
2.613332177e-09
1.809450798e-09
1.328795759e-09
9.959812156e-10
7.655753565e-10
6.005086462e-10
4.825358944e-10
3.964010524e-10
3.173041709e-10
2.672363434e-10
2.285040226e-10
1.818018942e-10
1.523963727e-10
1.317832271e-10
1.047623754e-10
8.160023363e-11
7.031957168e-11
6.224781267e-11
5.031499792e-11
3.971375384e-11
4.299110239e-11
4.852061808e-11
4.291124265e-11
3.783809468e-11
3.468093537e-11
3.245788915e-11
2.245829604e-11
1.754117158e-11
2.525185085e-11
2.819094319e-11
2.802297411e-11
3.650404079e-11
4.632610054e-11
4.043091066e-11
2.950185247e-11
2.664249495e-11
2.688687059e-11
1.879633725e-11
5.215133578e-12
-5.028137916e-12
-9.413364008e-12
-7.540526397e-12
-9.4570935e-12
-1.385853901e-11
-1.815092381e-11
-2.216489955e-11
-1.970675904e-11
-1.798944516e-11
-1.902809622e-11
-1.550809025e-11
-1.34088131e-11
-1.622122792e-11
-1.781432196e-11
-2.468025378e-11
-4.128520668e-11
-5.892360482e-11
-7.358563665e-11
-7.570181054e-11
-6.693528515e-11
-6.249104228e-11
-6.301722549e-11
-6.398307594e-11
-6.925477661e-11
-7.756421512e-11
-9.411687166e-11
-1.275461883e-10
-1.650009591e-10
-1.819788092e-10
-1.807274433e-10
-1.735453834e-10
-1.571342981e-10
-1.568280381e-10
-1.884472377e-10
-2.514860425e-10
-3.131160402e-10
-3.281984561e-10
-3.215421069e-10
-3.459503444e-10
-4.415807265e-10
-5.358159344e-10
-5.916275312e-10
-6.40395068e-10
-7.286584568e-10
-8.74772545e-10
-8.999328922e-10
-9.074346177e-10
-1.096707791e-09
-1.362187428e-09
-1.764870417e-09
-2.099527264e-09
-2.629777257e-09
-3.028145117e-09
-1.929802126e-09
3.329108747e-09
6.503285852e-09
4.809397108e-09
3.331071847e-09
2.540151265e-09
)


100
(
4.562231914e-09
3.896402835e-09
2.658510021e-09
1.875968621e-09
1.397339262e-09
1.056052585e-09
8.15238676e-10
6.459645039e-10
5.137826967e-10
4.208562213e-10
3.438690241e-10
2.747513824e-10
2.337802862e-10
1.985026996e-10
1.534143781e-10
1.292272991e-10
1.1528247e-10
9.117625396e-11
6.945926756e-11
6.409324977e-11
6.300816651e-11
5.350084255e-11
4.542953103e-11
4.717320468e-11
5.402343072e-11
5.274635469e-11
4.866366696e-11
4.260965137e-11
4.030511628e-11
3.362995366e-11
2.767758019e-11
3.222615995e-11
3.053312523e-11
2.813581584e-11
3.677606666e-11
4.01684322e-11
2.874985871e-11
1.462172392e-11
3.694385238e-12
-4.081680172e-12
-1.228285746e-11
-2.161031609e-11
-2.779588213e-11
-3.33160596e-11
-2.943883805e-11
-1.905482686e-11
-1.679589185e-11
-1.79455782e-11
-1.923458453e-11
-2.428071865e-11
-2.520757794e-11
-2.681566786e-11
-3.806047314e-11
-5.115905735e-11
-6.84882713e-11
-9.210862483e-11
-1.016055082e-10
-1.045229551e-10
-1.113536437e-10
-1.059480768e-10
-9.769652432e-11
-9.039589517e-11
-8.785254536e-11
-1.065202791e-10
-1.460281833e-10
-1.91598399e-10
-2.252750572e-10
-2.344548754e-10
-2.328089605e-10
-2.308596811e-10
-2.37801405e-10
-2.522492851e-10
-2.895417152e-10
-3.684912714e-10
-4.409194713e-10
-4.537510582e-10
-4.442106667e-10
-4.807644607e-10
-5.780172119e-10
-7.042034823e-10
-8.020941811e-10
-8.264041099e-10
-8.210340839e-10
-1.052223785e-09
-1.209927573e-09
-1.302785999e-09
-1.395117702e-09
-1.514124722e-09
-1.836431706e-09
-2.217363868e-09
-2.745190127e-09
-3.440467344e-09
-4.333297694e-09
-4.585649341e-09
-1.477048684e-09
6.424727182e-09
9.358347138e-09
6.599139496e-09
4.74648401e-09
3.669923081e-09
)


100
(
4.500244585e-09
3.877716132e-09
2.692018067e-09
1.937583595e-09
1.459440756e-09
1.115479784e-09
8.621039056e-10
6.846213624e-10
5.519676887e-10
4.412955158e-10
3.627061605e-10
2.896877164e-10
2.3167074e-10
2.006607755e-10
1.697588975e-10
1.273538558e-10
1.107929432e-10
1.064110107e-10
8.750265971e-11
6.720520322e-11
6.666039594e-11
7.251755753e-11
6.39865645e-11
5.699449584e-11
5.468238589e-11
6.145133348e-11
6.431954782e-11
5.911926391e-11
5.162445105e-11
4.111568963e-11
3.629643477e-11
4.530056847e-11
2.850110344e-11
8.245536669e-12
9.166663713e-12
8.704246335e-12
6.912791326e-12
-2.615326213e-12
-1.257363679e-11
-2.699999513e-11
-3.473072861e-11
-3.350845318e-11
-3.665698969e-11
-3.885641685e-11
-3.729232116e-11
-3.735182979e-11
-3.070625344e-11
-2.216353159e-11
-2.934727975e-11
-4.394338433e-11
-6.051272609e-11
-8.697029213e-11
-1.068217901e-10
-1.186377434e-10
-1.342673611e-10
-1.395419965e-10
-1.431017128e-10
-1.484961762e-10
-1.350634714e-10
-1.306077776e-10
-1.51300719e-10
-1.79792495e-10
-2.208066098e-10
-2.629429928e-10
-2.861560884e-10
-2.958798663e-10
-2.971713889e-10
-2.967610819e-10
-2.845438587e-10
-3.14721401e-10
-4.063424407e-10
-5.156848669e-10
-5.905089446e-10
-5.978944464e-10
-6.219776946e-10
-7.030444421e-10
-7.993778516e-10
-9.157076433e-10
-1.020567437e-09
-1.052407284e-09
-1.107907114e-09
-1.297484368e-09
-1.463539502e-09
-1.620809177e-09
-1.750342868e-09
-2.079069703e-09
-2.256407559e-09
-2.337322655e-09
-2.970082294e-09
-3.566587906e-09
-4.203814469e-09
-5.280118522e-09
-6.365095701e-09
-6.539359247e-09
2.063493651e-10
1.135035369e-08
1.271632402e-08
8.774857509e-09
6.245233933e-09
4.481582358e-09
)


100
(
4.402827543e-09
3.833143158e-09
2.719369083e-09
1.986684752e-09
1.511671569e-09
1.169429557e-09
9.122575154e-10
7.168915468e-10
5.8045013e-10
4.608763335e-10
3.719183236e-10
3.074974831e-10
2.376830175e-10
1.916435192e-10
1.728854575e-10
1.491944458e-10
1.119531309e-10
1.025617345e-10
1.07998821e-10
9.558820692e-11
7.934231457e-11
7.697775475e-11
8.320095982e-11
7.818900652e-11
7.023543457e-11
6.152691038e-11
6.449138894e-11
6.948707129e-11
6.121577315e-11
4.861859455e-11
2.999061021e-11
1.719650911e-11
1.584340396e-11
-5.050828186e-13
-2.065414451e-11
-2.643556079e-11
-3.511474174e-11
-3.013947522e-11
-2.350220912e-11
-3.189965882e-11
-3.995744712e-11
-4.912699134e-11
-4.462265111e-11
-3.58930301e-11
-4.029422529e-11
-4.848224876e-11
-5.887511653e-11
-7.945929595e-11
-9.653570427e-11
-1.091977251e-10
-1.309579491e-10
-1.518617797e-10
-1.698481761e-10
-1.961060462e-10
-1.880412663e-10
-1.63337201e-10
-1.727353677e-10
-1.899492948e-10
-2.182774371e-10
-2.688140662e-10
-3.050060484e-10
-3.348158594e-10
-3.724947407e-10
-3.974025273e-10
-4.157640971e-10
-3.793632697e-10
-3.568616466e-10
-4.055932559e-10
-4.820995617e-10
-5.984552413e-10
-6.994733574e-10
-7.714217987e-10
-8.442112235e-10
-8.942795715e-10
-9.563272305e-10
-1.152798868e-09
-1.400497769e-09
-1.443072597e-09
-1.382837485e-09
-1.502920148e-09
-1.816048597e-09
-2.087393631e-09
-2.161815817e-09
-2.283205079e-09
-2.749257249e-09
-3.098305108e-09
-3.112516528e-09
-3.789779987e-09
-4.816881374e-09
-5.488880878e-09
-6.117372527e-09
-7.385860929e-09
-8.966610548e-09
-8.620614932e-09
3.52750429e-09
1.736445204e-08
1.640909209e-08
1.18184415e-08
8.733284811e-09
6.682706162e-09
)


100
(
4.304971622e-09
3.780540124e-09
2.730314204e-09
2.020984815e-09
1.562651179e-09
1.216436432e-09
9.538092864e-10
7.460646759e-10
5.981070701e-10
4.896724287e-10
3.748511721e-10
3.070454525e-10
2.591698231e-10
1.940526135e-10
1.618703128e-10
1.573236417e-10
1.420095177e-10
1.109992393e-10
1.060881059e-10
1.19664375e-10
1.130144507e-10
9.707222264e-11
8.838897619e-11
9.25445841e-11
8.975670978e-11
7.733313883e-11
6.344712205e-11
5.140063336e-11
5.02721581e-11
4.36286393e-11
2.361613401e-11
-6.481760321e-13
-3.096183272e-11
-3.972362979e-11
-3.673258535e-11
-4.739568966e-11
-5.478950865e-11
-6.409310076e-11
-6.248319693e-11
-4.059648412e-11
-3.029257021e-11
-3.899986576e-11
-5.03388433e-11
-6.618761511e-11
-7.506186557e-11
-8.466727674e-11
-1.164350311e-10
-1.535904552e-10
-1.838721991e-10
-2.176655752e-10
-2.253979228e-10
-2.077095853e-10
-2.056249648e-10
-2.177813723e-10
-2.36720347e-10
-2.669017481e-10
-2.71613162e-10
-3.027473496e-10
-3.861768504e-10
-4.370381178e-10
-4.902121761e-10
-5.292809179e-10
-4.981910466e-10
-4.713360396e-10
-5.019141453e-10
-5.58792089e-10
-6.296762935e-10
-7.218349929e-10
-8.259192248e-10
-9.241078712e-10
-1.003738618e-09
-1.059477025e-09
-1.14684903e-09
-1.312724917e-09
-1.546572763e-09
-1.745070803e-09
-1.881071816e-09
-1.998806284e-09
-2.082276747e-09
-2.374849008e-09
-2.759108483e-09
-2.850845843e-09
-3.02172625e-09
-3.55686282e-09
-3.960297802e-09
-3.978161048e-09
-4.551861065e-09
-5.955502697e-09
-6.821099966e-09
-7.604750604e-09
-8.84900371e-09
-1.084700693e-08
-1.243119645e-08
-9.859900599e-09
8.162928787e-09
2.398510206e-08
2.05874811e-08
1.553859178e-08
1.010994326e-08
5.832392395e-09
)


100
(
4.208417581e-09
3.720500974e-09
2.726487236e-09
2.046969957e-09
1.604660203e-09
1.256795335e-09
9.859149919e-10
7.795756075e-10
6.062671216e-10
4.945612627e-10
4.015679814e-10
3.026150672e-10
2.532443248e-10
2.187530308e-10
1.655555077e-10
1.471136964e-10
1.564697241e-10
1.482479987e-10
1.233619754e-10
1.190805304e-10
1.35206077e-10
1.323156527e-10
1.132322001e-10
9.201700368e-11
9.089963416e-11
8.949569073e-11
6.669250018e-11
4.269459604e-11
1.420896777e-11
5.919963563e-13
-3.155825133e-12
-2.145106511e-11
-4.451852238e-11
-6.937950017e-11
-8.925018432e-11
-7.7322182e-11
-6.217184895e-11
-6.45182439e-11
-6.870740054e-11
-7.584169594e-11
-6.613578609e-11
-4.99021929e-11
-6.5952993e-11
-1.016196109e-10
-1.385340312e-10
-1.885871828e-10
-2.232551607e-10
-2.382171438e-10
-2.620157254e-10
-2.767280862e-10
-2.8938012e-10
-3.07498203e-10
-2.729580381e-10
-2.479398978e-10
-3.116778181e-10
-3.928017612e-10
-4.717244902e-10
-5.644848111e-10
-5.855823421e-10
-5.794277548e-10
-6.000314269e-10
-6.445897881e-10
-7.00826292e-10
-6.576910436e-10
-6.92358483e-10
-8.627622969e-10
-1.026888537e-09
-1.166713769e-09
-1.216616788e-09
-1.23893161e-09
-1.350426957e-09
-1.545404095e-09
-1.756411856e-09
-1.955852684e-09
-2.139439978e-09
-2.284406601e-09
-2.470763853e-09
-2.786983825e-09
-3.202548144e-09
-3.488240352e-09
-3.630842823e-09
-3.86188933e-09
-4.415900436e-09
-5.008468137e-09
-5.187429773e-09
-5.478754265e-09
-6.470795624e-09
-7.764636743e-09
-9.076701699e-09
-1.041539932e-08
-1.186990676e-08
-1.497359958e-08
-1.711405246e-08
-1.158255597e-08
1.32197753e-08
3.123433133e-08
2.569729256e-08
2.014161181e-08
1.405470525e-08
9.271251426e-09
)


100
(
4.113940066e-09
3.655642584e-09
2.708971693e-09
2.068911388e-09
1.634348139e-09
1.290009538e-09
1.006976321e-09
7.95699687e-10
6.282855113e-10
4.892029399e-10
4.039386944e-10
3.221156362e-10
2.44897383e-10
2.168387175e-10
1.983634742e-10
1.571690412e-10
1.475366351e-10
1.670934037e-10
1.654055927e-10
1.435119031e-10
1.321236395e-10
1.448791471e-10
1.435963573e-10
1.170320283e-10
8.648278017e-11
6.403001343e-11
5.178180759e-11
2.73152886e-11
-6.142788743e-12
-3.893004645e-11
-7.299593395e-11
-7.110012431e-11
-6.056121674e-11
-7.636987381e-11
-9.194967669e-11
-1.11856556e-10
-1.026523951e-10
-7.145595459e-11
-6.665435611e-11
-8.303886071e-11
-1.04593374e-10
-1.386655886e-10
-1.604740934e-10
-1.824241062e-10
-2.2987546e-10
-2.719283414e-10
-3.07661455e-10
-3.686124894e-10
-3.656773975e-10
-3.178098915e-10
-3.237405894e-10
-3.500412071e-10
-3.925761089e-10
-4.583530187e-10
-5.111631406e-10
-5.79096512e-10
-6.745210662e-10
-7.236826742e-10
-8.035316591e-10
-8.08195517e-10
-7.07437744e-10
-7.399312936e-10
-8.676895648e-10
-1.011125098e-09
-1.195410957e-09
-1.335124521e-09
-1.42294316e-09
-1.532132952e-09
-1.639684391e-09
-1.70998405e-09
-1.847040729e-09
-2.212945649e-09
-2.596122437e-09
-2.727173024e-09
-2.799691109e-09
-3.067918303e-09
-3.45251457e-09
-3.861035951e-09
-4.255498633e-09
-4.514465094e-09
-4.83356034e-09
-5.593429994e-09
-6.1811659e-09
-6.322066415e-09
-6.835207278e-09
-7.879119705e-09
-9.107824988e-09
-1.055264571e-08
-1.151820874e-08
-1.340477977e-08
-1.568794572e-08
-1.913040197e-08
-2.181577192e-08
-1.278670078e-08
1.832577627e-08
3.850060834e-08
3.167657657e-08
2.555432896e-08
1.835920977e-08
1.247480267e-08
)


100
(
3.959107935e-09
3.552647731e-09
2.683176676e-09
2.077690285e-09
1.649794139e-09
1.311007587e-09
1.03044356e-09
7.974188103e-10
6.335818799e-10
4.885275765e-10
3.882742538e-10
3.321607332e-10
2.632897908e-10
2.092839622e-10
2.032528153e-10
1.987471983e-10
1.664471845e-10
1.580778676e-10
1.829301598e-10
1.861604495e-10
1.610872052e-10
1.319160002e-10
1.354314088e-10
1.346879999e-10
9.405824547e-11
4.94319952e-11
-2.991163346e-12
-2.359744965e-11
-3.312748023e-11
-6.813853388e-11
-9.638731806e-11
-1.263481642e-10
-1.288593429e-10
-9.494176635e-11
-8.074929569e-11
-9.30142885e-11
-1.119214533e-10
-1.341922315e-10
-1.273050801e-10
-1.190321055e-10
-1.615339278e-10
-2.189301012e-10
-2.756394459e-10
-3.434463225e-10
-3.76120396e-10
-3.721324658e-10
-3.836472621e-10
-4.025701085e-10
-4.359350458e-10
-4.77913739e-10
-4.463144793e-10
-4.460139285e-10
-5.602910523e-10
-6.78284721e-10
-7.641952553e-10
-8.79689637e-10
-9.141873206e-10
-8.763604418e-10
-9.099670908e-10
-9.650614616e-10
-1.041629271e-09
-1.045388352e-09
-1.162089383e-09
-1.441973549e-09
-1.67357952e-09
-1.844244497e-09
-1.917558682e-09
-1.993284073e-09
-2.170955236e-09
-2.455318355e-09
-2.830796591e-09
-3.090586521e-09
-3.255695315e-09
-3.456543958e-09
-3.678594267e-09
-4.121340987e-09
-4.758709529e-09
-5.221793664e-09
-5.569689546e-09
-6.00439187e-09
-6.55954522e-09
-7.222579912e-09
-7.659909361e-09
-8.302778296e-09
-9.985015597e-09
-1.124689384e-08
-1.170460602e-08
-1.342751242e-08
-1.536744486e-08
-1.75951313e-08
-2.334989556e-08
-2.555920288e-08
-2.543496567e-08
-1.157670038e-08
2.698061971e-08
4.653377714e-08
3.832986414e-08
3.181321543e-08
2.187180499e-08
1.338718198e-08
)


100
(
3.773306211e-09
3.424884312e-09
2.644049549e-09
2.071158091e-09
1.661921122e-09
1.317194609e-09
1.035261941e-09
7.90218296e-10
6.177059243e-10
4.994370323e-10
3.683584314e-10
3.114852579e-10
2.912351474e-10
2.312952349e-10
1.966920357e-10
2.094415251e-10
2.129786948e-10
1.858683628e-10
1.709621016e-10
1.930568801e-10
1.968040224e-10
1.602138815e-10
1.171951648e-10
8.878945789e-11
7.208851782e-11
3.172623531e-11
-2.197314594e-11
-7.359216864e-11
-1.163218642e-10
-1.203309746e-10
-1.170820855e-10
-1.291110572e-10
-1.446389589e-10
-1.648171724e-10
-1.23448173e-10
-7.848867403e-11
-1.080548151e-10
-1.545389388e-10
-2.043103312e-10
-2.781550274e-10
-3.138794499e-10
-3.306326074e-10
-3.837907151e-10
-4.286153496e-10
-4.909034658e-10
-5.761411823e-10
-5.250863626e-10
-4.398668328e-10
-4.919715063e-10
-5.759069702e-10
-6.72562008e-10
-7.980280033e-10
-8.620745819e-10
-9.007399282e-10
-9.796222041e-10
-1.073233712e-09
-1.199016652e-09
-1.154054215e-09
-1.031210312e-09
-1.162251942e-09
-1.384110505e-09
-1.586943358e-09
-1.819581461e-09
-2.014845285e-09
-2.146487429e-09
-2.291018258e-09
-2.48940495e-09
-2.652787423e-09
-2.901443035e-09
-3.372716592e-09
-3.815222885e-09
-4.025500487e-09
-4.194213094e-09
-4.563488911e-09
-5.215339102e-09