/*--------------------------------*- C++ -*----------------------------------*\
| =========                 |                                                 |
| \\      /  F ield         | OpenFOAM: The Open Source CFD Toolbox           |
|  \\    /   O peration     | Version:  2.3.1                                 |
|   \\  /    A nd           | Web:      www.OpenFOAM.org                      |
|    \\/     M anipulation  |                                                 |
\*---------------------------------------------------------------------------*/
FoamFile
{
    version     2.0;
    format      ascii;
    class       dictionary;
    location    "constant";
    object      DPSI28;
}
// * * * * * * * * * * * * * * * * * * * * * * * * * * * * * * * * * * * * * //

DPSI28_table
100
(

100
(
-6.567553835e-08
-5.766481417e-08
-4.462967269e-08
-3.685199647e-08
-3.191824621e-08
-2.780860515e-08
-2.458136914e-08
-2.201473751e-08
-1.981481032e-08
-1.812015823e-08
-1.608494449e-08
-1.417404096e-08
-1.318934866e-08
-1.158104428e-08
-1.026747947e-08
-9.715066578e-09
-8.430618165e-09
-7.267093965e-09
-7.013431603e-09
-6.13987319e-09
-5.058683242e-09
-4.691593358e-09
-4.324338796e-09
-3.310309575e-09
-2.551219943e-09
-2.478959594e-09
-2.060404344e-09
-1.155238185e-09
-6.277211198e-10
-6.043403106e-10
-5.266999815e-11
8.063085604e-10
1.11868058e-09
1.101861064e-09
1.346838496e-09
2.146931485e-09
2.656073871e-09
2.604441995e-09
2.816362769e-09
3.558162836e-09
4.031576254e-09
3.964283258e-09
4.135477413e-09
4.781627584e-09
5.171980521e-09
5.078796148e-09
5.025773045e-09
5.746927909e-09
6.39334495e-09
6.279016359e-09
6.326027639e-09
6.962901282e-09
7.440802607e-09
7.33030528e-09
7.4741878e-09
7.958355712e-09
8.178091789e-09
8.065062824e-09
8.214356348e-09
8.75558754e-09
9.028270676e-09
8.900069905e-09
9.082575821e-09
9.574726187e-09
9.742035885e-09
9.586259415e-09
9.951904777e-09
1.040877829e-08
1.034729261e-08
1.039871798e-08
1.082706542e-08
1.101451407e-08
1.091445842e-08
1.130871714e-08
1.157916349e-08
1.148181671e-08
1.182415355e-08
1.201898885e-08
1.205385356e-08
1.232893028e-08
1.234532985e-08
1.25807537e-08
1.273733067e-08
1.284861241e-08
1.298008347e-08
1.310582839e-08
1.32361591e-08
1.328267131e-08
1.340820371e-08
1.337566903e-08
1.337039413e-08
1.343780187e-08
1.347327086e-08
1.346685333e-08
1.340133534e-08
1.343927561e-08
1.347909594e-08
1.321897634e-08
1.376641139e-08
1.429986786e-08
)


100
(
-6.29159684e-08
-5.587716689e-08
-4.392132995e-08
-3.670604743e-08
-3.221493971e-08
-2.80457221e-08
-2.506888392e-08
-2.262430276e-08
-2.047968887e-08
-1.887226077e-08
-1.690789269e-08
-1.50853967e-08
-1.377050181e-08
-1.234918506e-08
-1.113105646e-08
-1.027930406e-08
-9.182589898e-09
-8.185256309e-09
-7.599324405e-09
-6.837065003e-09
-5.992285062e-09
-5.401663219e-09
-4.910403873e-09
-4.199507766e-09
-3.470278504e-09
-2.998974178e-09
-2.59559439e-09
-2.039215436e-09
-1.459409397e-09
-1.068031596e-09
-6.927029401e-10
-1.704438615e-10
3.787191774e-10
7.63131755e-10
1.000715234e-09
1.303875059e-09
1.741904644e-09
2.167551464e-09
2.45517447e-09
2.730283484e-09
3.103933372e-09
3.530696038e-09
3.837828252e-09
4.051275322e-09
4.321342499e-09
4.710966268e-09
5.004145514e-09
5.141531793e-09
5.318728696e-09
5.666406262e-09
6.160877314e-09
6.481269233e-09
6.62363052e-09
6.872940514e-09
7.289408905e-09
7.580493266e-09
7.746522744e-09
8.231228622e-09
9.420168434e-09
1.095464984e-08
9.631363495e-09
6.983522259e-09
8.492766503e-09
1.138639914e-08
1.006152236e-08
7.711932241e-09
1.034304169e-08
1.216246089e-08
9.6385521e-09
9.098238902e-09
1.192176577e-08
1.168973199e-08
9.271978246e-09
1.26358643e-08
1.433213598e-08
9.458869798e-09
1.121917396e-08
1.437658255e-08
9.8735195e-09
1.204365732e-08
1.357041995e-08
1.082869805e-08
1.464009142e-08
1.159397028e-08
1.158635048e-08
1.452597527e-08
1.177896155e-08
1.4200602e-08
1.374474738e-08
1.361639845e-08
1.474864376e-08
1.514680474e-08
1.561366999e-08
1.602572546e-08
1.618978707e-08
1.62539133e-08
1.982727918e-08
3.428582707e-08
4.021862738e-08
3.403827452e-08
)


100
(
-6.025460082e-08
-5.412034127e-08
-4.312694157e-08
-3.665196604e-08
-3.234529857e-08
-2.842581059e-08
-2.538650692e-08
-2.307958726e-08
-2.100180112e-08
-1.941712716e-08
-1.772210719e-08
-1.588104794e-08
-1.453347075e-08
-1.306819531e-08
-1.179016276e-08
-1.093797706e-08
-9.987190837e-09
-8.883932663e-09
-8.208778817e-09
-7.638221176e-09
-6.794763158e-09
-6.082632413e-09
-5.582737755e-09
-5.015964044e-09
-4.303374707e-09
-3.692495032e-09
-3.211796515e-09
-2.73234198e-09
-2.227474483e-09
-1.749952921e-09
-1.317757902e-09
-8.712901549e-10
-4.0914634e-10
4.518792694e-11
4.730482771e-10
8.352317127e-10
1.128353289e-09
1.412181944e-09
1.785317659e-09
2.231025699e-09
2.604937583e-09
2.888161619e-09
3.186225427e-09
3.597861825e-09
3.939982116e-09
4.137677824e-09
4.358064789e-09
4.676119665e-09
5.020368703e-09
5.302131844e-09
5.612108606e-09
6.080970264e-09
6.719683884e-09
7.210828541e-09
7.426916464e-09
7.509062771e-09
7.934755006e-09
8.504892251e-09
9.062017747e-09
1.037693072e-08
1.234485116e-08
1.124581418e-08
8.068754718e-09
8.004624458e-09
1.033142815e-08
1.032835513e-08
8.739641414e-09
9.842880955e-09
1.065881457e-08
9.522733373e-09
9.001518019e-09
1.037495198e-08
1.092869137e-08
1.045293395e-08
1.284279596e-08
1.619103978e-08
1.341759343e-08
9.312884091e-09
1.199136277e-08
1.282073842e-08
1.268447001e-08
1.275795755e-08
1.442724531e-08
1.528135169e-08
1.265202533e-08
1.454114032e-08
1.505455158e-08
1.41088201e-08
1.554525413e-08
1.638323074e-08
1.630216274e-08
1.649734515e-08
1.769102232e-08
1.743386495e-08
1.697648869e-08
1.84713092e-08
2.666751377e-08
4.048802728e-08
4.199784723e-08
3.670786107e-08
)


100
(
-5.779077376e-08
-5.234407922e-08
-4.250745081e-08
-3.635646683e-08
-3.204963797e-08
-2.872612766e-08
-2.567591616e-08
-2.346758344e-08
-2.170464175e-08
-1.988936183e-08
-1.843556181e-08
-1.660052652e-08
-1.517549902e-08
-1.397484375e-08
-1.248661894e-08
-1.145292785e-08
-1.07106503e-08
-9.771045806e-09
-8.779837746e-09
-8.214868732e-09
-7.687655606e-09
-6.889858707e-09
-6.187534974e-09
-5.690464256e-09
-5.15952662e-09
-4.483289808e-09
-3.858332795e-09
-3.361097324e-09
-2.913475627e-09
-2.453495007e-09
-1.971143267e-09
-1.494968639e-09
-1.032246008e-09
-5.59355401e-10
-1.101540341e-10
3.376149587e-10
7.341420855e-10
1.057533806e-09
1.342378958e-09
1.709456739e-09
2.235881398e-09
2.787250039e-09
3.262144937e-09
3.650327e-09
4.086295729e-09
4.516685897e-09
4.835923e-09
5.059857309e-09
5.339450173e-09
5.75822001e-09
6.158408136e-09
6.390674895e-09
6.476380444e-09
6.795411699e-09
7.261956368e-09
7.458587731e-09
7.369949162e-09
7.652386748e-09
8.210860767e-09
8.45928252e-09
8.980408519e-09
1.044375757e-08
1.031405005e-08
8.56091352e-09
8.013816915e-09
9.03613161e-09
9.548014067e-09
9.243202584e-09
9.934169307e-09
1.119299389e-08
1.192775288e-08
1.219736777e-08
1.2370473e-08
1.208796537e-08
1.248982031e-08
1.450917115e-08
1.344782061e-08
1.125276303e-08
1.457619117e-08
1.504519619e-08
1.238613307e-08
1.440175302e-08
1.474791296e-08
1.361033071e-08
1.467377318e-08
1.576830358e-08
1.643762756e-08
1.653003504e-08
1.681544097e-08
1.724224045e-08
1.745738736e-08
1.789944407e-08
1.772490022e-08
1.778240658e-08
1.841139377e-08
1.882792093e-08
3.083115906e-08
4.260117144e-08
4.031987722e-08
3.691442975e-08
)


100
(
-5.581557765e-08
-5.068791769e-08
-4.145475636e-08
-3.570060356e-08
-3.200252821e-08
-2.882789438e-08
-2.599560099e-08
-2.369514737e-08
-2.208937873e-08
-2.034552743e-08
-1.892513218e-08
-1.757990502e-08
-1.57890169e-08
-1.45667795e-08
-1.3435896e-08
-1.2075439e-08
-1.117656303e-08
-1.05143627e-08
-9.665445962e-09
-8.758247473e-09
-8.187953287e-09
-7.700777114e-09
-6.981846932e-09
-6.227228401e-09
-5.687857453e-09
-5.212127367e-09
-4.558516033e-09
-3.861865528e-09
-3.296853126e-09
-2.88984665e-09
-2.472878856e-09
-1.983835351e-09
-1.330442138e-09
-8.172171058e-10
-3.802586872e-10
1.627446176e-10
8.512770352e-10
1.363004822e-09
1.702016781e-09
2.115629882e-09
2.397334893e-09
2.833230156e-09
3.194981945e-09
3.461725569e-09
3.776114775e-09
4.282251322e-09
4.639278874e-09
4.813426222e-09
5.0816473e-09
5.345541769e-09
5.726357295e-09
6.087545031e-09
6.283025383e-09
6.296106618e-09
6.580851822e-09
7.035303656e-09
7.199149255e-09
7.187189949e-09
7.429394088e-09
7.778179134e-09
7.91574028e-09
8.234415793e-09
9.075765574e-09
9.877995172e-09
1.022807524e-08
1.043117215e-08
1.060575273e-08
1.095014653e-08
1.141117355e-08
1.159110214e-08
1.158989744e-08
1.19163489e-08
1.331953731e-08
1.472708099e-08
1.314961851e-08
1.146905414e-08
1.373677891e-08
1.460118329e-08
1.323276322e-08
1.337146117e-08
1.411104901e-08
1.543872001e-08
1.627407642e-08
1.604557986e-08
1.616953947e-08
1.602009155e-08
1.638998444e-08
1.74658678e-08
1.840778549e-08
1.80303885e-08
1.727474261e-08
1.835074705e-08
1.860414837e-08
1.829762052e-08
1.85100727e-08
1.948407568e-08
3.276980705e-08
4.244509358e-08
3.830048139e-08
3.566686467e-08
)


100
(
-5.392053576e-08
-4.908543968e-08
-4.035003801e-08
-3.498070713e-08
-3.187888862e-08
-2.879957288e-08
-2.621650565e-08
-2.402993306e-08
-2.237316235e-08
-2.105895659e-08
-1.930627857e-08
-1.804915069e-08
-1.671121929e-08
-1.512449003e-08
-1.403918696e-08
-1.297988597e-08
-1.173253207e-08
-1.089506126e-08
-1.031614187e-08
-9.553544433e-09
-8.665903633e-09
-8.015997518e-09
-7.546801986e-09
-6.882728209e-09
-6.051985951e-09
-5.331034376e-09
-4.849878124e-09
-4.317420003e-09
-3.608754714e-09
-2.810037438e-09
-2.345794884e-09
-2.038911105e-09
-1.547186134e-09
-7.352069048e-10
-3.296378618e-10
-1.874786749e-10
2.79427009e-10
1.275163067e-09
1.815233358e-09
1.829531225e-09
2.247582552e-09
2.652018275e-09
3.023546373e-09
3.112584213e-09
3.292823185e-09
3.755276858e-09
4.311691004e-09
4.408153207e-09
4.533683383e-09
4.906341231e-09
5.15948462e-09
5.452089957e-09
5.793397202e-09
6.002544831e-09
6.108640932e-09
6.429966182e-09
7.025941977e-09
7.731976836e-09
8.30602747e-09
8.709084809e-09
8.991725499e-09
9.239692618e-09
9.528374046e-09
9.760251431e-09
9.930761915e-09
1.026192566e-08
1.067299911e-08
1.085396669e-08
1.093493866e-08
1.120720458e-08
1.196440878e-08
1.281357767e-08
1.326371482e-08
1.347025352e-08
1.45114039e-08
1.399767178e-08
1.29792895e-08
1.368034381e-08
1.462798576e-08
1.580901338e-08
1.607615897e-08
1.54895265e-08
1.578461666e-08
1.647036865e-08
1.680609901e-08
1.708708487e-08
1.71695225e-08
1.830493091e-08
1.856576088e-08
1.785435301e-08
1.849379686e-08
1.88386758e-08
1.8585535e-08
1.861081489e-08
1.847697697e-08
2.101531094e-08
3.288899336e-08
3.974606348e-08
3.616136681e-08
3.413157291e-08
)


100
(
-5.147287457e-08
-4.71962264e-08
-3.916768038e-08
-3.451069549e-08
-3.155216e-08
-2.866679666e-08
-2.626916082e-08
-2.433437758e-08
-2.252230991e-08
-2.13399906e-08
-2.000148767e-08
-1.840526434e-08
-1.727806522e-08
-1.591753474e-08
-1.4506928e-08
-1.353743576e-08
-1.25301665e-08
-1.133178173e-08
-1.049198131e-08
-9.980496724e-09
-9.280351303e-09
-8.34719272e-09
-7.523583031e-09
-7.061428721e-09
-6.456149111e-09
-5.457717097e-09
-4.720639905e-09
-4.383481695e-09
-3.950162414e-09
-3.19421627e-09
-2.221275509e-09
-1.903452854e-09
-1.836481326e-09
-1.202024029e-09
-3.249353396e-10
-1.889650023e-10
-2.903860835e-10
4.448248724e-10
1.487724234e-09
1.717182866e-09
1.622393937e-09
2.128495112e-09
2.585758211e-09
2.837088729e-09
2.829729515e-09
3.258650549e-09
3.766109253e-09
4.103068319e-09
4.237945598e-09
4.46028991e-09
4.890359598e-09
5.180431254e-09
5.778991313e-09
6.360472172e-09
6.824464484e-09
7.207025319e-09
7.547604521e-09
7.931515991e-09
8.333976061e-09
8.744829011e-09
9.020992264e-09
9.146093131e-09
9.386374343e-09
9.708850702e-09
9.949525072e-09
1.020947362e-08
1.068817912e-08
1.130545136e-08
1.183177891e-08
1.22397864e-08
1.245030266e-08
1.249086304e-08
1.276453023e-08
1.317199335e-08
1.340622254e-08
1.40072854e-08
1.474235625e-08
1.534280314e-08
1.554828505e-08
1.518384662e-08
1.544457329e-08
1.628911978e-08
1.689000347e-08
1.713080117e-08
1.716344794e-08
1.733942815e-08
1.787849278e-08
1.86341305e-08
1.888053115e-08
1.835116586e-08
1.838012643e-08
1.88097477e-08
1.879586606e-08
1.861702504e-08
1.786262953e-08
2.14806977e-08
3.241447467e-08
3.641248572e-08
3.341061881e-08
3.254571852e-08
)


100
(
-4.875384695e-08
-4.515195716e-08
-3.807105951e-08
-3.389077488e-08
-3.0968529e-08
-2.853844561e-08
-2.622397558e-08
-2.446714699e-08
-2.300402865e-08
-2.147643996e-08
-2.03900082e-08
-1.888156506e-08
-1.755371732e-08
-1.654288576e-08
-1.51531412e-08
-1.384357641e-08
-1.294490793e-08
-1.194705106e-08
-1.07570028e-08
-9.851044893e-09
-9.383457392e-09
-8.766865364e-09
-7.784523965e-09
-6.763652361e-09
-6.398501746e-09
-6.012264098e-09
-4.896597623e-09
-4.238113669e-09
-4.049641306e-09
-3.763213826e-09
-2.65600335e-09
-1.795758436e-09
-2.029945772e-09
-1.961339515e-09
-9.761850946e-10
-1.226410811e-10
-4.092903481e-10
-4.568544234e-10
5.731935776e-10
1.542414826e-09
1.477359624e-09
1.361108687e-09
1.949459533e-09
2.429745256e-09
2.605947064e-09
2.89414628e-09
3.475244995e-09
3.982138024e-09
4.453718886e-09
4.989146212e-09
5.332689829e-09
5.668309444e-09
6.049747158e-09
6.500018458e-09
7.031987628e-09
7.210437816e-09
7.340190442e-09
7.687260072e-09
7.958275797e-09
8.356480468e-09
8.737111652e-09
9.080804955e-09
9.511536265e-09
1.003350143e-08
1.058592846e-08
1.094171191e-08
1.123459436e-08
1.154221406e-08
1.174099022e-08
1.192677129e-08
1.226104164e-08
1.25525104e-08
1.298693633e-08
1.362018618e-08
1.404166708e-08
1.450968196e-08
1.473312745e-08
1.464104445e-08
1.497371146e-08
1.580398034e-08
1.646907106e-08
1.673518412e-08
1.694714731e-08
1.717751548e-08
1.755407097e-08
1.803283985e-08
1.822653955e-08
1.844636076e-08
1.864221935e-08
1.856900636e-08
1.883284547e-08
1.89566862e-08
1.879633731e-08
1.83805765e-08
1.746303979e-08
2.126403442e-08
3.031566288e-08
3.317622474e-08
3.064953906e-08
2.966094858e-08
)


100
(
-4.633099868e-08
-4.323287537e-08
-3.691939417e-08
-3.303579994e-08
-3.043966541e-08
-2.824732291e-08
-2.622101197e-08
-2.443395233e-08
-2.316095861e-08
-2.164466452e-08
-2.048934594e-08
-1.947869482e-08
-1.779701297e-08
-1.666159721e-08
-1.574260408e-08
-1.431554955e-08
-1.305524769e-08
-1.214076511e-08
-1.115198985e-08
-1.002498574e-08
-8.993481819e-09
-8.625171761e-09
-8.23113795e-09
-7.276999561e-09
-6.262198318e-09
-5.83094166e-09
-5.578177232e-09
-4.579775511e-09
-3.997128827e-09
-3.962406926e-09
-3.583131768e-09
-2.280596348e-09
-1.706306304e-09
-2.290881342e-09
-1.930910938e-09
-8.69844218e-10
-2.973654536e-10
-7.060217084e-10
-2.98923139e-10
7.762512924e-10
1.3310175e-09
1.311973648e-09
1.439427818e-09
2.073169585e-09
2.515151438e-09
3.153990774e-09
3.703788825e-09
4.218502105e-09
4.760113974e-09
5.150145636e-09
5.610739742e-09
5.942896004e-09
6.006040182e-09
6.239120098e-09
6.687290314e-09
7.06607572e-09
7.445879495e-09
7.654547776e-09
7.773953982e-09
8.156005408e-09
8.705646056e-09
9.383921587e-09
9.951351092e-09
1.035958521e-08
1.071206724e-08
1.092711442e-08
1.106596414e-08
1.13268501e-08
1.167105724e-08
1.208372235e-08
1.270439225e-08
1.320437835e-08
1.348561582e-08
1.380916757e-08
1.389832972e-08
1.393864623e-08
1.437608913e-08
1.514400204e-08
1.574915102e-08
1.604426182e-08
1.63201352e-08
1.653704801e-08
1.701614919e-08
1.761776804e-08
1.795612641e-08
1.807668382e-08
1.841808812e-08
1.84180558e-08
1.830289936e-08
1.876222976e-08
1.879299114e-08
1.879039167e-08
1.866337215e-08
1.783643387e-08
1.696605944e-08
2.050893482e-08
2.78853616e-08
3.006685276e-08
2.812243731e-08
2.728694003e-08
)


100
(
-4.43022074e-08
-4.143300324e-08
-3.555636693e-08
-3.197382356e-08
-2.995394859e-08
-2.784169409e-08
-2.605214367e-08
-2.441072932e-08
-2.316048312e-08
-2.208964842e-08
-2.040687995e-08
-1.946584558e-08
-1.845135061e-08
-1.664260507e-08
-1.563222764e-08
-1.479398836e-08
-1.332371015e-08
-1.193131851e-08
-1.116681823e-08
-1.047843048e-08
-9.39612065e-09
-8.207357356e-09
-7.937358785e-09
-7.853947278e-09
-6.969490128e-09
-6.052911762e-09
-5.378489697e-09
-5.172662101e-09
-4.476451859e-09
-3.96807268e-09
-4.09584537e-09
-3.204666837e-09
-1.92473404e-09
-1.95968942e-09
-2.570037239e-09
-1.826231999e-09
-7.452335465e-10
-5.1894159e-10
-5.502210683e-10
8.545835181e-11
9.914768953e-10
1.566062224e-09
1.966964202e-09
2.099160898e-09
2.515009916e-09
3.068536644e-09
3.757164354e-09
4.537884156e-09
4.783126213e-09
4.964371887e-09
5.405134014e-09
5.692743732e-09
6.001953315e-09
6.338221832e-09
6.458520567e-09
6.791633629e-09
7.389102498e-09
7.852537288e-09
8.391878913e-09
8.795308803e-09
8.945002676e-09
9.192215523e-09
9.658262183e-09
1.01382983e-08
1.050752354e-08
1.074694033e-08
1.104739488e-08
1.149309237e-08
1.206687465e-08
1.263062284e-08
1.302365907e-08
1.325004749e-08
1.330619373e-08
1.342526466e-08
1.380494691e-08
1.443362415e-08
1.496774141e-08
1.526855988e-08
1.55650298e-08
1.582315027e-08
1.626093836e-08
1.68946633e-08
1.730572206e-08
1.743373172e-08
1.76924312e-08
1.814145811e-08
1.820514583e-08
1.82968971e-08
1.868343813e-08
1.872559843e-08
1.872948021e-08
1.86445638e-08
1.804910425e-08
1.736707466e-08
1.622783189e-08
1.930000267e-08
2.541225605e-08
2.689516703e-08
2.566942906e-08
2.505581805e-08
)


100
(
-4.242925014e-08
-3.972361564e-08
-3.416155474e-08
-3.108213118e-08
-2.93187606e-08
-2.737450226e-08
-2.573025743e-08
-2.440932726e-08
-2.299457422e-08
-2.203355791e-08
-2.081997744e-08
-1.92329131e-08
-1.832854011e-08
-1.718521121e-08
-1.534916846e-08
-1.444376754e-08
-1.374582605e-08
-1.22962461e-08
-1.085785536e-08
-1.031219929e-08
-9.940175792e-09
-8.933390949e-09
-7.825587823e-09
-7.370735872e-09
-7.372655672e-09
-6.814015797e-09
-5.962682848e-09
-5.048761897e-09
-4.796675099e-09
-4.463249111e-09
-4.163091553e-09
-3.949777611e-09
-2.834762389e-09
-1.915558428e-09
-2.167352207e-09
-2.328713509e-09
-1.500339772e-09
-7.183975233e-10
-1.77455924e-10
2.541879253e-10
7.545745756e-10
1.359067668e-09
1.94105713e-09
2.758887931e-09
3.127514801e-09
3.036959777e-09
3.36395226e-09
3.973238334e-09
4.595754523e-09
5.17722761e-09
5.254956919e-09
5.309026867e-09
5.819059216e-09
6.190368108e-09
6.620258641e-09
7.347937807e-09
7.726528748e-09
7.959894367e-09
8.438951442e-09
8.784160488e-09
9.174996049e-09
9.347345294e-09
9.415463447e-09
9.838154435e-09
1.036095363e-08
1.084658216e-08
1.143618279e-08
1.182733918e-08
1.209270128e-08
1.248586924e-08
1.290022792e-08
1.309491991e-08
1.33202815e-08
1.383117022e-08
1.427882811e-08
1.459494487e-08
1.485756873e-08
1.50731428e-08
1.547961056e-08
1.615322322e-08
1.660017152e-08
1.674808409e-08
1.684341625e-08
1.728874386e-08
1.771968846e-08
1.801396792e-08
1.827932175e-08
1.843267124e-08
1.84925143e-08
1.859514394e-08
1.856124271e-08
1.84059898e-08
1.783264799e-08
1.64957888e-08
1.524840294e-08
1.765639306e-08
2.254808997e-08
2.393781602e-08
2.304961158e-08
2.258922219e-08
)


100
(
-4.025261955e-08
-3.786105491e-08
-3.277233223e-08
-3.019701943e-08
-2.855499054e-08
-2.690624248e-08
-2.528371918e-08
-2.414394922e-08
-2.308351146e-08
-2.180273471e-08
-2.082347858e-08
-1.935716427e-08
-1.79172839e-08
-1.707413148e-08
-1.584770361e-08
-1.398332103e-08
-1.322866087e-08
-1.277838001e-08
-1.147082322e-08
-1.001118445e-08
-9.630643917e-09
-9.568079117e-09
-8.612477121e-09
-7.589191669e-09
-6.871336658e-09
-6.91829247e-09
-6.722618696e-09
-5.896091329e-09
-5.060545962e-09
-4.393581581e-09
-4.076367994e-09
-4.460725197e-09
-3.69869599e-09
-2.349669719e-09
-1.88054127e-09
-1.774902401e-09
-1.642507155e-09
-1.080773003e-09
-5.159209049e-10
4.295102847e-10
1.135536099e-09
1.384450733e-09
1.832745628e-09
2.38875613e-09
2.996900554e-09
3.661169714e-09
3.716690094e-09
3.524090585e-09
4.050872313e-09
4.722600089e-09
5.150540851e-09
5.721394204e-09
6.05201186e-09
6.263770549e-09
6.733187696e-09
7.130658805e-09
7.786166717e-09
8.502585378e-09
8.419847332e-09
8.420812008e-09
8.958816511e-09
9.346356459e-09
9.716908242e-09
1.018714797e-08
1.05308903e-08
1.08083115e-08
1.126754334e-08
1.184975849e-08
1.196258689e-08
1.21802876e-08
1.276581438e-08
1.328412039e-08
1.374173416e-08
1.399199784e-08
1.429824843e-08
1.45982134e-08
1.489392838e-08
1.53869016e-08
1.577457107e-08
1.596565185e-08
1.620766258e-08
1.651779584e-08
1.70056156e-08
1.745459951e-08
1.751413255e-08
1.786344195e-08
1.819720531e-08
1.818204442e-08
1.848446448e-08
1.846179761e-08
1.844001278e-08
1.829705392e-08
1.721630913e-08
1.557105435e-08
1.41077658e-08
1.530521611e-08
1.931948832e-08
2.10589085e-08
2.062010371e-08
2.060382068e-08
)


100
(
-3.77513588e-08
-3.582705871e-08
-3.155318984e-08
-2.918758259e-08
-2.764598718e-08
-2.631129307e-08
-2.496351195e-08
-2.36980118e-08
-2.285002472e-08
-2.157830416e-08
-2.049310916e-08
-1.950079454e-08
-1.780888655e-08
-1.650348588e-08
-1.576949972e-08
-1.457137057e-08
-1.278496553e-08
-1.21548715e-08
-1.197517195e-08
-1.0881895e-08
-9.576201176e-09
-9.081827503e-09
-9.073909724e-09
-8.38140336e-09
-7.415962441e-09
-6.465879871e-09
-6.429000757e-09
-6.539633936e-09
-5.815107537e-09
-5.025316171e-09
-4.144903038e-09
-3.745095438e-09
-3.860044338e-09
-3.040489823e-09
-2.071746479e-09
-1.733416638e-09
-1.046863932e-09
-8.791792895e-10
-7.797188081e-10
-2.140349339e-11
8.311135231e-10
1.836787197e-09
2.100739674e-09
2.024116456e-09
2.502232519e-09
3.136281597e-09
3.655644003e-09
4.190323592e-09
4.392123579e-09
4.492029379e-09
4.943083338e-09
5.396282049e-09
5.971754292e-09
6.987012622e-09
7.154587974e-09
6.84896598e-09
7.395312721e-09
8.011313227e-09
8.5036408e-09
8.966514121e-09
9.047120235e-09
9.172807571e-09
9.63319964e-09
1.019734788e-08
1.098740321e-08
1.094376534e-08
1.085296796e-08
1.141938132e-08
1.185046994e-08
1.241642486e-08
1.292104079e-08
1.32621988e-08
1.364163349e-08
1.395915589e-08
1.418908487e-08
1.473703665e-08
1.533613534e-08
1.549887498e-08
1.553910839e-08
1.566898952e-08
1.6245133e-08
1.684492172e-08
1.697413989e-08
1.701224545e-08
1.74145348e-08
1.796585687e-08
1.78957596e-08
1.799001565e-08
1.843241982e-08
1.851554528e-08
1.824998772e-08
1.761519961e-08
1.655263765e-08
1.5053182e-08
1.242726316e-08
1.206041196e-08
1.626606497e-08
1.822003781e-08
1.746635996e-08
1.738013028e-08
)


100
(
-3.557087788e-08
-3.398574315e-08
-3.019519664e-08
-2.799874662e-08
-2.684982549e-08
-2.559153471e-08
-2.44458093e-08
-2.323153442e-08
-2.239467918e-08
-2.159378585e-08
-1.997542078e-08
-1.906524003e-08
-1.810003892e-08
-1.624807918e-08
-1.511877997e-08
-1.458461254e-08
-1.350929335e-08
-1.185951695e-08
-1.127113794e-08
-1.132691704e-08
-1.048030441e-08
-9.264947366e-09
-8.549993147e-09
-8.570951397e-09
-8.188099093e-09
-7.245982564e-09
-6.365045309e-09
-5.842839639e-09
-5.932369816e-09
-5.665784192e-09
-4.829665706e-09
-3.992524868e-09
-2.997610422e-09
-2.779453516e-09
-2.748722012e-09
-2.04939071e-09
-1.378516693e-09
-3.986618744e-10
2.201911268e-10
-1.835314969e-11
1.126751393e-10
9.807551902e-10
1.857240784e-09
2.558957893e-09
2.662239939e-09
2.672036159e-09
3.320156147e-09
3.929839479e-09
4.347406008e-09
5.066179558e-09
5.408175989e-09
5.281188055e-09
5.582948939e-09
6.308636791e-09
7.13456365e-09
7.783855718e-09
7.503008528e-09
7.527751564e-09
8.347751427e-09
8.564522969e-09
9.139330874e-09
9.828889231e-09
9.73021995e-09
9.754257845e-09
1.04704137e-08
1.110051941e-08
1.12626111e-08
1.146631385e-08
1.190293106e-08
1.231104082e-08
1.273125667e-08
1.310127879e-08
1.341934894e-08
1.379148921e-08
1.440577746e-08
1.496717426e-08
1.521011952e-08
1.533860544e-08
1.541062615e-08
1.587344579e-08
1.642270514e-08
1.656983838e-08
1.660193797e-08
1.715053524e-08
1.761686893e-08
1.741935132e-08
1.761724062e-08
1.822828195e-08
1.829736211e-08
1.827776034e-08
1.806073748e-08
1.74559075e-08
1.629802424e-08
1.373772489e-08
9.893496481e-09
8.907214607e-09
1.321492183e-08
1.536121201e-08
1.530564207e-08
1.59619566e-08
)


100
(
-3.368897899e-08
-3.225303715e-08
-2.877080502e-08
-2.686060863e-08
-2.596038916e-08
-2.483729977e-08
-2.379799231e-08
-2.289170973e-08
-2.175221546e-08
-2.107882097e-08
-2.008227249e-08
-1.844880684e-08
-1.757632228e-08
-1.659748553e-08
-1.482848346e-08
-1.388166053e-08
-1.358597844e-08
-1.265205205e-08
-1.118410413e-08
-1.056546318e-08
-1.074140805e-08
-1.015907684e-08
-9.004413961e-09
-7.97786939e-09
-8.016105257e-09
-8.000284349e-09
-7.036508512e-09
-6.183824923e-09
-5.332560484e-09
-5.126361468e-09
-5.127680994e-09
-4.512581843e-09
-3.722891862e-09
-2.739195392e-09
-1.792813372e-09
-1.778335904e-09
-1.770867889e-09
-1.078321674e-09
-1.831695024e-10
7.57967337e-10
8.34310369e-10
4.771517532e-10
1.046909098e-09
1.977754636e-09
2.576944121e-09
3.265123407e-09
3.567665661e-09
3.631920766e-09
4.084519381e-09
4.5613079e-09
5.298512771e-09
6.235525277e-09
5.900848026e-09
5.521216369e-09
6.536490722e-09
7.388653354e-09
7.798776885e-09
8.335492317e-09
8.22878227e-09
8.142858688e-09
8.613344033e-09
9.529315216e-09
1.052924422e-08
1.002872808e-08
9.928709658e-09
1.079954169e-08
1.127545441e-08
1.172635928e-08
1.201688939e-08
1.230932389e-08
1.270147253e-08
1.30008243e-08
1.335548141e-08
1.385779747e-08
1.423952118e-08
1.45406448e-08
1.492220145e-08
1.528989608e-08
1.577189777e-08
1.613367555e-08
1.618553109e-08
1.620884074e-08
1.668288568e-08
1.723648954e-08
1.717308373e-08
1.724005438e-08
1.750515254e-08
1.750408311e-08
1.816358946e-08
1.848174013e-08
1.782452767e-08
1.733013784e-08
1.602511817e-08
1.273863791e-08
7.496026431e-09
5.674357025e-09
1.010089568e-08
1.241678239e-08
1.180313162e-08
1.200004303e-08
)


100
(
-3.199935715e-08
-3.063978916e-08
-2.735337406e-08
-2.581993667e-08
-2.498362116e-08
-2.405879727e-08
-2.302635499e-08
-2.2271514e-08
-2.144106479e-08
-2.039338095e-08
-1.966382346e-08
-1.842294761e-08
-1.690847262e-08
-1.617154767e-08
-1.529048354e-08
-1.365361229e-08
-1.280745431e-08
-1.272214244e-08
-1.198758098e-08
-1.068977969e-08
-9.91238331e-09
-1.013019959e-08
-9.860633852e-09
-8.742134161e-09
-7.756847177e-09
-7.356989548e-09
-7.318481302e-09
-6.738009836e-09
-5.857585417e-09
-5.043962474e-09
-4.178178146e-09
-4.173858073e-09
-4.187954769e-09
-3.359260247e-09
-2.414643566e-09
-1.185936158e-09
-8.550215047e-10
-1.266264908e-09
-9.462053056e-10
-4.065685837e-11
7.718875591e-10
1.446233711e-09
1.479582524e-09
1.503755835e-09
2.139879548e-09
2.644366857e-09
3.209479443e-09
4.45682888e-09
4.678185255e-09
4.170972839e-09
4.651346432e-09
5.417725342e-09
6.134431417e-09
6.586637887e-09
6.529283372e-09
6.700851379e-09
7.329140223e-09
7.582599675e-09
8.61484551e-09
9.084874478e-09
8.386209455e-09
8.848183537e-09
9.830662337e-09
1.032165928e-08
1.073095484e-08
1.094864179e-08
1.10945348e-08
1.145178566e-08
1.186043981e-08
1.210376613e-08
1.231741815e-08
1.303137826e-08
1.372398882e-08
1.395398479e-08
1.418280925e-08
1.44985288e-08
1.478737348e-08
1.525058896e-08
1.562984972e-08
1.577687816e-08
1.598688048e-08
1.650841861e-08
1.697453535e-08
1.687769963e-08
1.676076226e-08
1.710109872e-08
1.761465694e-08
1.790333407e-08
1.77113819e-08
1.791927858e-08
1.747432694e-08
1.654707491e-08
1.540777047e-08
1.198675023e-08
5.685745107e-09
2.729349217e-09
7.06294327e-09
9.371275446e-09
8.444804279e-09
8.376907773e-09
)


100
(
-2.999130416e-08
-2.887803151e-08
-2.604684554e-08
-2.472331414e-08
-2.392603873e-08
-2.320240986e-08
-2.239833149e-08
-2.150210173e-08
-2.088649509e-08
-1.985696787e-08
-1.894252834e-08
-1.820190778e-08
-1.681729489e-08
-1.549391628e-08
-1.495893398e-08
-1.420392985e-08
-1.270369958e-08
-1.185367446e-08
-1.194586375e-08
-1.147235175e-08
-1.029246595e-08
-9.230791687e-09
-9.445999739e-09
-9.536026419e-09
-8.435069552e-09
-7.487722819e-09
-6.533486457e-09
-6.429108599e-09
-6.381706626e-09
-5.523811185e-09
-4.710137648e-09
-3.630951732e-09
-3.099937403e-09
-3.383457756e-09
-3.142546014e-09
-2.173027217e-09
-1.054539994e-09
-1.4253654e-10
-3.150090492e-10
-6.474059598e-10
1.232959544e-10
9.573726151e-10
1.548356898e-09
2.251916079e-09
2.511449968e-09
2.435110411e-09
2.807016209e-09
3.510325968e-09
4.554129675e-09
5.483481996e-09
4.930171003e-09
4.621499734e-09
5.60684932e-09
6.232944829e-09
6.464580806e-09
7.224213687e-09
7.466707143e-09
7.222965658e-09
7.885689164e-09
8.761618281e-09
9.444937824e-09
8.972615908e-09
9.058349731e-09
1.005792098e-08
1.047039156e-08
1.088664217e-08
1.119920959e-08
1.150477463e-08
1.18480745e-08
1.222347179e-08
1.291801042e-08
1.324919388e-08
1.328247097e-08
1.358090558e-08
1.382226468e-08
1.425424827e-08
1.490187678e-08
1.544329558e-08
1.578558698e-08
1.575760429e-08
1.591435715e-08
1.628714137e-08
1.658328999e-08
1.687869515e-08
1.743208481e-08
1.761135754e-08
1.706909637e-08
1.721141003e-08
1.784520268e-08
1.797261442e-08
1.808555593e-08
1.669292263e-08
1.470480945e-08
9.918785196e-09
2.258253009e-09
1.181910386e-10
4.209885232e-09
6.431283937e-09
5.577720935e-09
5.545219489e-09
)


100
(
-2.787902502e-08
-2.708051935e-08
-2.476615925e-08
-2.357380377e-08
-2.29779441e-08
-2.225076357e-08
-2.159323868e-08
-2.072939245e-08
-2.013549868e-08
-1.954378751e-08
-1.816708915e-08
-1.746628645e-08
-1.688456224e-08
-1.538436653e-08
-1.423484806e-08
-1.39142239e-08
-1.326671275e-08
-1.192859189e-08
-1.101185389e-08
-1.12162885e-08
-1.103578013e-08
-9.908376153e-09
-8.915075648e-09
-8.64192182e-09
-8.685013679e-09
-8.036259002e-09
-7.087772871e-09
-6.228305867e-09
-5.502320485e-09
-5.361636691e-09
-5.126459451e-09
-4.354225844e-09
-3.325476786e-09
-2.145609597e-09
-2.440432268e-09
-2.954070896e-09
-1.976530002e-09
-8.669634164e-10
-9.718559065e-11
6.572938493e-10
5.678857609e-10
3.500732861e-10
9.110501968e-10
1.461285936e-09
2.47082982e-09
3.93731965e-09
3.553901607e-09
2.740117818e-09
3.689297533e-09
4.711228868e-09
5.376444107e-09
5.840754758e-09
5.608564943e-09
5.417116441e-09
5.870742177e-09
6.685342216e-09
8.095253603e-09
8.083030237e-09
7.213694086e-09
8.034297472e-09
8.978912867e-09
9.333551806e-09
9.776071135e-09
1.014096396e-08
1.03221806e-08
1.054389819e-08
1.100912207e-08
1.123088652e-08
1.153230406e-08
1.22726494e-08
1.285404579e-08
1.316589455e-08
1.347382999e-08
1.374871718e-08
1.428229145e-08
1.459606923e-08
1.456536944e-08
1.478475745e-08
1.52222982e-08
1.586746612e-08
1.65558263e-08
1.660710616e-08
1.616730302e-08
1.670319322e-08