/*--------------------------------*- C++ -*----------------------------------*\
| =========                 |                                                 |
| \\      /  F ield         | OpenFOAM: The Open Source CFD Toolbox           |
|  \\    /   O peration     | Version:  2.3.1                                 |
|   \\  /    A nd           | Web:      www.OpenFOAM.org                      |
|    \\/     M anipulation  |                                                 |
\*---------------------------------------------------------------------------*/
FoamFile
{
    version     2.0;
    format      ascii;
    class       dictionary;
    location    "constant";
    object      DPSI2;
}
// * * * * * * * * * * * * * * * * * * * * * * * * * * * * * * * * * * * * * //

DPSI2_table
100
(

100
(
2.706939201e-07
3.522253071e-07
3.398969068e-07
3.594431996e-07
3.760962231e-07
3.763731128e-07
3.962325716e-07
3.992084271e-07
4.103951029e-07
4.113832992e-07
4.12601512e-07
4.001956808e-07
3.980693085e-07
4.014902798e-07
4.042702937e-07
4.072102341e-07
4.113658237e-07
4.192850811e-07
4.221001312e-07
4.250477147e-07
4.273847462e-07
4.283127235e-07
4.288614262e-07
4.261297193e-07
4.151111768e-07
4.081209511e-07
4.061123401e-07
4.072433861e-07
4.109740911e-07
4.097749384e-07
4.09170858e-07
3.935952569e-07
3.774196007e-07
3.671066334e-07
3.628168382e-07
3.628801228e-07
3.662492539e-07
3.691340412e-07
3.687490877e-07
3.646241696e-07
3.550025355e-07
3.495100385e-07
3.434867552e-07
3.314725771e-07
3.091804013e-07
2.959219485e-07
2.864636553e-07
2.805312487e-07
2.684892435e-07
2.631637149e-07
2.585595112e-07
2.488569378e-07
2.24901615e-07
2.084730316e-07
1.958148017e-07
1.732443448e-07
1.406683944e-07
1.171317451e-07
9.940355531e-08
7.596865307e-08
4.124803941e-08
1.547761058e-08
-1.381275153e-09
-2.756748523e-08
-6.388589655e-08
-9.399983421e-08
-1.159911982e-07
-1.587342727e-07
-2.032617504e-07
-2.408416662e-07
-2.829430978e-07
-3.418685806e-07
-3.980762952e-07
-4.478973686e-07
-5.19770794e-07
-5.895121178e-07
-6.675612861e-07
-7.587239312e-07
-8.472069022e-07
-9.698487951e-07
-1.083637411e-06
-1.213849622e-06
-1.384665166e-06
-1.516917931e-06
-1.775939954e-06
-1.951281117e-06
-2.2298611e-06
-2.529060987e-06
-2.82164388e-06
-3.246677349e-06
-3.622125343e-06
-4.123795193e-06
-4.590645909e-06
-5.21034643e-06
-5.779537275e-06
-6.494704054e-06
-6.820933024e-06
-3.867862085e-06
5.378831064e-06
-1.595872153e-05
)


100
(
2.70593174e-07
3.530817041e-07
3.457239182e-07
3.644168161e-07
3.77182311e-07
3.846842877e-07
3.977250611e-07
4.077450144e-07
4.163906973e-07
4.228586326e-07
4.246628598e-07
4.162611972e-07
4.124718651e-07
4.139852133e-07
4.174723086e-07
4.210858097e-07
4.254812854e-07
4.321343785e-07
4.383604412e-07
4.419820786e-07
4.4438705e-07
4.469701192e-07
4.493882441e-07
4.477770448e-07
4.389156159e-07
4.332993289e-07
4.30712318e-07
4.300014432e-07
4.311001297e-07
4.328090723e-07
4.347795859e-07
4.241096855e-07
4.098317694e-07
3.993168537e-07
3.935463582e-07
3.903268989e-07
3.902579304e-07
3.923262239e-07
3.955715328e-07
3.948859745e-07
3.876296303e-07
3.820398447e-07
3.780918982e-07
3.704162401e-07
3.520389888e-07
3.371901108e-07
3.260514412e-07
3.184444626e-07
3.067418902e-07
2.981468356e-07
2.919148087e-07
2.84802902e-07
2.681341188e-07
2.515049761e-07
2.365493035e-07
2.168080936e-07
1.90268384e-07
1.657737592e-07
1.444226032e-07
1.204434212e-07
8.897927643e-08
5.934324071e-08
3.37567728e-08
4.869192903e-09
-2.812581449e-08
-5.81589818e-08
-8.56970221e-08
-1.263359524e-07
-1.667450519e-07
-2.057602092e-07
-2.512298057e-07
-3.079806911e-07
-3.613354716e-07
-4.163659828e-07
-4.910524944e-07
-5.612621389e-07
-6.329817869e-07
-7.272028575e-07
-8.235088861e-07
-9.314553766e-07
-1.045560617e-06
-1.167362401e-06
-1.327531965e-06
-1.454332601e-06
-1.653123279e-06
-1.837603899e-06
-2.058409817e-06
-2.304589814e-06
-2.58188309e-06
-2.895186118e-06
-3.220143603e-06
-3.594868568e-06
-3.994796567e-06
-4.434188724e-06
-4.922806705e-06
-5.364580615e-06
-5.313729998e-06
-5.674432154e-07
1.195210118e-06
-1.199775206e-05
)


100
(
2.705598043e-07
3.496767106e-07
3.541008812e-07
3.655049048e-07
3.779917024e-07
3.957993189e-07
3.983412207e-07
4.183842837e-07
4.227908331e-07
4.346555569e-07
4.407380723e-07
4.357658178e-07
4.338112037e-07
4.310619293e-07
4.321292907e-07
4.377681892e-07
4.425329249e-07
4.457429768e-07
4.541647964e-07
4.623849302e-07
4.63972288e-07
4.672461154e-07
4.724231585e-07
4.753521246e-07
4.699062892e-07
4.662293055e-07
4.635481747e-07
4.61296413e-07
4.570853678e-07
4.592412764e-07
4.633416058e-07
4.634496554e-07
4.547713031e-07
4.456295733e-07
4.375250082e-07
4.305126702e-07
4.240533217e-07
4.213293114e-07
4.237635827e-07
4.262401681e-07
4.259462063e-07
4.227804046e-07
4.192585742e-07
4.143345747e-07
4.049772887e-07
3.942875841e-07
3.818736476e-07
3.69779075e-07
3.570647579e-07
3.460020004e-07
3.350213412e-07
3.260504247e-07
3.157639236e-07
3.030597626e-07
2.878639376e-07
2.713869284e-07
2.539913591e-07
2.350995346e-07
2.138721573e-07
1.912062827e-07
1.67952438e-07
1.406586192e-07
1.097046627e-07
7.813339768e-08
4.751808269e-08
1.832782085e-08
-1.177507138e-08
-4.536148883e-08
-7.975569721e-08
-1.164295914e-07
-1.571597031e-07
-2.020840524e-07
-2.461593297e-07
-2.976199448e-07
-3.57316802e-07
-4.121359699e-07
-4.644057867e-07
-5.399077479e-07
-6.13399428e-07
-6.717577854e-07
-7.585440895e-07
-8.353224472e-07
-9.232483832e-07
-1.025134709e-06
-1.095260416e-06
-1.222149744e-06
-1.317605831e-06
-1.40991511e-06
-1.549124812e-06
-1.628132351e-06
-1.771178202e-06
-1.865323557e-06
-2.029746062e-06
-2.143245845e-06
-2.274460901e-06
-2.251029814e-06
-1.682422679e-06
2.732031308e-06
-3.898813729e-06
-4.845446101e-06
)


100
(
2.706078236e-07
3.38424429e-07
3.570613052e-07
3.639660801e-07
3.85393134e-07
3.995426496e-07
4.069674577e-07
4.219476661e-07
4.330852681e-07
4.412804412e-07
4.546322317e-07
4.519233026e-07
4.515422387e-07
4.507745252e-07
4.481003409e-07
4.514130194e-07
4.581544546e-07
4.622209804e-07
4.664057415e-07
4.759065523e-07
4.833200259e-07
4.861539872e-07
4.900725491e-07
4.96240553e-07
4.994496685e-07
4.964168357e-07
4.935742691e-07
4.919617191e-07
4.900960827e-07
4.871510449e-07
4.870604069e-07
4.90304554e-07
4.908024659e-07
4.875026848e-07
4.785013785e-07
4.698845307e-07
4.618926518e-07
4.563878202e-07
4.501916091e-07
4.481234946e-07
4.487383144e-07
4.48363278e-07
4.449839255e-07
4.374408119e-07
4.314869807e-07
4.273037745e-07
4.219134752e-07
4.090669617e-07
3.951589765e-07
3.845894287e-07
3.737353539e-07
3.590154004e-07
3.439968232e-07
3.334613009e-07
3.217839806e-07
3.056861881e-07
2.882702018e-07
2.751106129e-07
2.596456923e-07
2.404749388e-07
2.201117269e-07
1.998689326e-07
1.753728092e-07
1.45858067e-07
1.129055358e-07
7.969790203e-08
4.730163109e-08
1.401293595e-08
-2.141736058e-08
-5.587464954e-08
-9.041102514e-08
-1.283510598e-07
-1.710489164e-07
-2.131171687e-07
-2.539965249e-07
-2.999075582e-07
-3.529376952e-07
-4.010487412e-07
-4.461347162e-07
-5.043459464e-07
-5.681589356e-07
-6.301545464e-07
-6.86122446e-07
-7.719904551e-07
-8.452264695e-07
-9.093094396e-07
-1.005207885e-06
-1.08157289e-06
-1.152919678e-06
-1.238298519e-06
-1.329112016e-06
-1.427672918e-06
-1.516762027e-06
-1.653260217e-06
-1.685784072e-06
-1.621520764e-06
-2.334338006e-07
-5.80522438e-08
-3.0581828e-06
-3.534928032e-06
)


100
(
2.707376564e-07
3.284222012e-07
3.570431327e-07
3.707315986e-07
3.937518741e-07
3.995911379e-07
4.177243143e-07
4.233095933e-07
4.425422965e-07
4.499975681e-07
4.620816989e-07
4.688151335e-07
4.66690929e-07
4.688867134e-07
4.683690237e-07
4.668621029e-07
4.715730946e-07
4.784383068e-07
4.830399815e-07
4.871399611e-07
4.968083665e-07
5.046738478e-07
5.08949058e-07
5.123034271e-07
5.191896727e-07
5.23333419e-07
5.238205425e-07
5.205230017e-07
5.18376254e-07
5.155836932e-07
5.139420151e-07
5.107317055e-07
5.117613675e-07
5.125307843e-07
5.109496743e-07
5.017474717e-07
4.913824129e-07
4.83898164e-07
4.8180245e-07
4.750115921e-07
4.669536831e-07
4.626754172e-07
4.637577329e-07
4.605318629e-07
4.517513928e-07
4.433837152e-07
4.453042887e-07
4.436913724e-07
4.317435788e-07
4.171288098e-07
4.090870909e-07
3.987601609e-07
3.83690587e-07
3.67392429e-07
3.544852872e-07
3.407986955e-07
3.240843348e-07
3.062921842e-07
2.89486827e-07
2.725958305e-07
2.539255239e-07
2.342757228e-07
2.139135811e-07
1.909476647e-07
1.643786028e-07
1.342669009e-07
1.020986584e-07
6.954764462e-08
3.694040311e-08
4.071863115e-09
-3.065180027e-08
-6.653701398e-08
-1.032289939e-07
-1.410310621e-07
-1.827495408e-07
-2.258975171e-07
-2.685671091e-07
-3.092613963e-07
-3.55508995e-07
-4.135603688e-07
-4.6679424e-07
-5.203399712e-07
-5.87065321e-07
-6.494756412e-07
-7.109136366e-07
-7.746945478e-07
-8.440709374e-07
-9.127895919e-07
-9.963955763e-07
-1.071861895e-06
-1.14047451e-06
-1.227797708e-06
-1.3090266e-06
-1.377277567e-06
-1.480654124e-06
-1.133424041e-06
1.260501172e-06
-1.757123342e-06
-2.557874086e-06
-2.886118909e-06
)


100
(
2.693088351e-07
3.258367947e-07
3.600403615e-07
3.802837168e-07
3.945844163e-07
4.062836943e-07
4.23220417e-07
4.32460687e-07
4.463768957e-07
4.611470332e-07
4.677159257e-07
4.809525025e-07
4.850290352e-07
4.848171335e-07
4.874695155e-07
4.875200117e-07
4.869302569e-07
4.920390745e-07
4.991289641e-07
5.047247796e-07
5.089795081e-07
5.178037419e-07
5.260968504e-07
5.31856404e-07
5.342621854e-07
5.407324866e-07
5.456122613e-07
5.448699555e-07
5.391897852e-07
5.353804433e-07
5.343256424e-07
5.345703418e-07
5.303664737e-07
5.262896084e-07
5.286911277e-07
5.292695256e-07
5.207048063e-07
5.089012348e-07
5.070758137e-07
5.062513787e-07
4.990796037e-07
4.900261443e-07
4.858435358e-07
4.864624031e-07
4.818517926e-07
4.711709734e-07
4.652806553e-07
4.679123556e-07
4.661080447e-07
4.547388016e-07
4.430056225e-07
4.345936039e-07
4.239751033e-07
4.081839891e-07
3.897769502e-07
3.732905127e-07
3.558039001e-07
3.350970449e-07
3.139983313e-07
2.948493715e-07
2.776563949e-07
2.610112095e-07
2.445671564e-07
2.275450015e-07
2.076969959e-07
1.849758449e-07
1.589167849e-07
1.292230611e-07
9.587607043e-08
6.046097518e-08
2.463747712e-08
-1.123857261e-08
-4.789407908e-08
-8.543806779e-08
-1.249962085e-07
-1.664590384e-07
-2.092356362e-07
-2.559846556e-07
-3.039907769e-07
-3.520491269e-07
-4.016327439e-07
-4.545310621e-07
-5.154889108e-07
-5.752962157e-07
-6.343244808e-07
-6.99038711e-07
-7.599774476e-07
-8.208226386e-07
-8.936136797e-07
-9.762015367e-07
-1.048474949e-06
-1.111257658e-06
-1.198363957e-06
-1.247316675e-06
-1.284786384e-06
-9.717269991e-07
1.268136594e-06
-1.938417789e-06
-2.379359452e-06
-2.634737941e-06
)


100
(
2.666427336e-07
3.241118686e-07
3.629054273e-07
3.843278091e-07
3.937837034e-07
4.15921249e-07
4.248088726e-07
4.430500898e-07
4.500863761e-07
4.674995955e-07
4.787488696e-07
4.886101638e-07
5.00298578e-07
5.0315253e-07
5.042123854e-07
5.071505022e-07
5.078435168e-07
5.079931368e-07
5.127023907e-07
5.206191649e-07
5.272673548e-07
5.314263027e-07
5.385961138e-07
5.466564694e-07
5.529514681e-07
5.541415991e-07
5.569430415e-07
5.60885203e-07
5.602332962e-07
5.555140722e-07
5.510814577e-07
5.560644131e-07
5.56581596e-07
5.517985255e-07
5.461695224e-07
5.520603783e-07
5.531880889e-07
5.444265023e-07
5.311494958e-07
5.329694805e-07
5.344092762e-07
5.271297446e-07
5.163762616e-07
5.127995283e-07
5.123983786e-07
5.061901563e-07
4.950297131e-07
4.876970997e-07
4.887050899e-07
4.846362935e-07
4.733187992e-07
4.591202988e-07
4.475056621e-07
4.352673085e-07
4.223233183e-07
4.086184261e-07
3.910960365e-07
3.715184245e-07
3.523021812e-07
3.329389892e-07
3.136572619e-07
2.95597209e-07
2.79945082e-07
2.63602314e-07
2.435690146e-07
2.206991386e-07
1.94707402e-07
1.658311861e-07
1.352397882e-07
1.034749248e-07
7.053681672e-08
3.66011003e-08
1.213603019e-09
-3.617694981e-08
-7.491534824e-08
-1.182265796e-07
-1.644019304e-07
-2.109302231e-07
-2.574795131e-07
-3.045418207e-07
-3.569927059e-07
-4.077446679e-07
-4.542638015e-07
-5.093522687e-07
-5.648679941e-07
-6.248285795e-07
-6.900767772e-07
-7.541058532e-07
-8.108666616e-07
-8.861136832e-07
-9.733110551e-07
-1.03541569e-06
-1.120775226e-06
-1.176033293e-06
-1.100778365e-06
-8.568810721e-07
2.925479611e-07
-2.02829499e-06
-2.339143576e-06
-2.563593131e-06
)


100
(
2.655290127e-07
3.205127207e-07
3.622309273e-07
3.824337064e-07
4.001098888e-07
4.20657237e-07
4.311683865e-07
4.478380934e-07
4.590800888e-07
4.703798875e-07
4.887081666e-07
4.982615487e-07
5.096913585e-07
5.200569967e-07
5.223761207e-07
5.242479014e-07
5.279922874e-07
5.281184126e-07
5.280617473e-07
5.335383998e-07
5.419026207e-07
5.491480834e-07
5.524928744e-07
5.571885332e-07
5.645146184e-07
5.699856148e-07
5.720142372e-07
5.758851138e-07
5.813437189e-07
5.804969773e-07
5.752653074e-07
5.727170291e-07
5.808489218e-07
5.818898654e-07
5.752440877e-07
5.718018425e-07
5.78095376e-07
5.777344935e-07
5.652846008e-07
5.576181429e-07
5.608810482e-07
5.623379121e-07
5.543941954e-07
5.45829517e-07
5.412552614e-07
5.379448759e-07
5.267596564e-07
5.128773941e-07
5.017361006e-07
4.965560897e-07
4.880469372e-07
4.780755799e-07
4.667230427e-07
4.555938982e-07
4.471670119e-07
4.398367594e-07
4.306242465e-07
4.1889425e-07
4.027152235e-07
3.838404172e-07
3.623732718e-07
3.374493726e-07
3.123054065e-07
2.882796097e-07
2.656174954e-07
2.424955369e-07
2.179633851e-07
1.926140994e-07
1.670214407e-07
1.409784078e-07
1.127299712e-07
8.081191988e-08
4.582781119e-08
7.36043837e-09
-3.32761968e-08
-7.582668146e-08
-1.198099534e-07
-1.644311365e-07
-2.134902507e-07
-2.616335425e-07
-3.073306265e-07
-3.553919546e-07
-4.021309933e-07
-4.54138766e-07
-5.072931535e-07
-5.608854368e-07
-6.159229791e-07
-6.842234168e-07
-7.458539375e-07
-8.073506057e-07
-8.784837363e-07
-9.579423288e-07
-1.032723227e-06
-1.051205685e-06
-8.755100857e-07
-3.776937382e-07
-4.198623349e-07
-2.003471355e-06
-2.244712805e-06
-2.431538358e-06
)


100
(
2.655517299e-07
3.148301508e-07
3.576072606e-07
3.822804977e-07
4.079559329e-07
4.204410644e-07
4.402591677e-07
4.497272342e-07
4.683327777e-07
4.775421044e-07
4.928807997e-07
5.092669902e-07
5.179849399e-07
5.303210367e-07
5.40260018e-07
5.42454083e-07
5.446039251e-07
5.468982338e-07
5.496129631e-07
5.497466951e-07
5.533372945e-07
5.614253834e-07
5.695945597e-07
5.723598957e-07
5.74984299e-07
5.826102977e-07
5.889537627e-07
5.936849836e-07
5.991037244e-07
6.045868053e-07
6.02534828e-07
5.928982397e-07
5.976899309e-07
6.076315459e-07
6.080972876e-07
5.986270112e-07
5.980663206e-07
6.038585612e-07
6.015484595e-07
5.903326409e-07
5.841052489e-07
5.872193102e-07
5.883490778e-07
5.809582362e-07
5.700424647e-07
5.607850814e-07
5.495418767e-07
5.361690088e-07
5.240663064e-07
5.123701718e-07
5.044092237e-07
4.991359461e-07
4.930706377e-07
4.857235639e-07
4.754397465e-07
4.639755946e-07
4.568193678e-07
4.487298023e-07
4.35862772e-07
4.191551346e-07
3.975782984e-07
3.721360568e-07
3.449479114e-07
3.186920696e-07
2.941277082e-07
2.706013746e-07
2.480796174e-07
2.247226975e-07
1.981316502e-07
1.688946037e-07
1.387399452e-07
1.071985878e-07
7.388257096e-08
3.840229182e-08
1.46280344e-09
-3.782635622e-08
-8.233691189e-08
-1.274320163e-07
-1.7144044e-07
-2.163550466e-07
-2.604468545e-07
-3.08810509e-07
-3.589402331e-07
-4.086912694e-07
-4.5632941e-07
-5.033787824e-07
-5.588897381e-07
-6.234009276e-07
-6.832482705e-07
-7.403617808e-07
-8.033789116e-07
-8.773853157e-07
-9.382767057e-07
-8.528612576e-07
-6.292129756e-07
1.244162801e-07
-4.601700018e-07
-1.780131356e-06
-2.008251295e-06
-2.187929713e-06
)


100
(
2.65633801e-07
3.102260717e-07
3.540535629e-07
3.859627471e-07
4.097604189e-07
4.239417457e-07
4.454638205e-07
4.5746763e-07
4.728431283e-07
4.871254659e-07
4.966336714e-07
5.143428086e-07
5.286652619e-07
5.381702584e-07
5.512817904e-07
5.609614658e-07
5.625394338e-07
5.653561103e-07
5.690870744e-07
5.70999135e-07
5.705855928e-07
5.728796162e-07
5.810262589e-07
5.890528632e-07
5.940610552e-07
5.964521691e-07
6.027304341e-07
6.100220462e-07
6.173445615e-07
6.252326398e-07
6.257507712e-07
6.192840043e-07
6.150927943e-07
6.22774438e-07
6.338392051e-07
6.32014224e-07
6.265332275e-07
6.257953433e-07
6.29504873e-07
6.228582089e-07
6.125490448e-07
6.034590703e-07
6.012015997e-07
5.979669216e-07
5.942862719e-07
5.859903599e-07
5.752026977e-07
5.65148594e-07
5.558270807e-07
5.469679942e-07
5.388375783e-07
5.283838732e-07
5.197979808e-07
5.128305628e-07
5.035100742e-07
4.906547965e-07
4.765822689e-07
4.609483095e-07
4.47375309e-07
4.335575775e-07
4.178879572e-07
4.005087699e-07
3.792718426e-07
3.558632605e-07
3.323009066e-07
3.069208978e-07
2.786372559e-07
2.495458042e-07
2.197922162e-07
1.894352537e-07
1.589241676e-07
1.285400719e-07
9.846989745e-08
6.516526337e-08
2.677580785e-08
-1.267455685e-08
-5.248692382e-08
-9.327155042e-08
-1.336636297e-07
-1.772582488e-07
-2.243504146e-07
-2.7324726e-07
-3.214479708e-07
-3.653317378e-07
-4.166601567e-07
-4.704099941e-07
-5.216786178e-07
-5.740114968e-07
-6.301439113e-07
-6.903743316e-07
-7.535736491e-07
-8.119855708e-07
-8.381163743e-07
-6.737916814e-07
-5.938809957e-07
7.486961832e-07
-4.152314873e-08
-1.442741293e-06
-1.684009525e-06
-1.841696242e-06
)


100
(
2.642553238e-07
3.089785521e-07
3.5323028e-07
3.885514437e-07
4.069935568e-07
4.307554951e-07
4.462872015e-07
4.66759117e-07
4.764657471e-07
4.938423947e-07
5.058864229e-07
5.170343821e-07
5.35735702e-07
5.493537462e-07
5.585110403e-07
5.714716409e-07
5.813298549e-07
5.843330591e-07
5.852622571e-07
5.890190344e-07
5.929177298e-07
5.925819241e-07
5.931396102e-07
6.017736306e-07
6.110694203e-07
6.183431571e-07
6.206756428e-07
6.243181204e-07
6.31242853e-07
6.383176723e-07
6.471338684e-07
6.522340685e-07
6.384043397e-07
6.367629423e-07
6.490419368e-07
6.60805564e-07
6.591034669e-07
6.539740725e-07
6.486301258e-07
6.434514464e-07
6.337968626e-07
6.225255725e-07
6.124631422e-07
6.094259467e-07
6.106765871e-07
6.119507303e-07
6.112235182e-07
6.029821585e-07
5.911780645e-07
5.828184121e-07
5.740981634e-07
5.640483568e-07
5.536744084e-07
5.396609158e-07
5.251150711e-07
5.11275116e-07
4.954582292e-07
4.806062867e-07
4.668638129e-07
4.520551361e-07
4.392834255e-07
4.268617564e-07
4.1069504e-07
3.892097109e-07
3.630564904e-07
3.342859233e-07
3.042988217e-07
2.740244621e-07
2.438596023e-07
2.149534294e-07
1.866542461e-07
1.55092158e-07
1.199108912e-07
8.512287613e-08
5.060778938e-08
1.621794158e-08
-1.688640853e-08
-5.299449449e-08
-9.633717803e-08
-1.43204821e-07
-1.897219055e-07
-2.327095834e-07
-2.789060428e-07
-3.312565454e-07
-3.835681943e-07
-4.339699753e-07
-4.820430231e-07
-5.324320812e-07
-5.860617905e-07
-6.447229335e-07
-6.995237698e-07
-7.458042772e-07
-7.285356386e-07
-6.45883149e-07
-4.572003433e-07
1.278399191e-06
3.695257795e-07
-1.149680249e-06
-1.404773983e-06
-1.524120762e-06
)


100
(
2.6106165e-07
3.083500399e-07
3.527609577e-07
3.847930256e-07
4.076587489e-07
4.346381282e-07
4.4972044e-07
4.706805416e-07
4.850525594e-07
4.980532423e-07
5.151168547e-07
5.262191172e-07
5.395361793e-07
5.567961619e-07
5.692643376e-07
5.78014363e-07
5.91085829e-07
6.018587648e-07
6.050165177e-07
6.058275832e-07
6.106313294e-07
6.146524958e-07
6.163737063e-07
6.174565548e-07
6.244786822e-07
6.345162927e-07
6.436139913e-07
6.462667889e-07
6.469012079e-07
6.522755527e-07
6.634686858e-07
6.754009556e-07
6.722323762e-07
6.678603683e-07
6.684417963e-07
6.759471415e-07
6.796753795e-07
6.784739872e-07
6.701737502e-07
6.618283362e-07
6.545834779e-07
6.489880993e-07
6.450552464e-07
6.392496824e-07
6.329689303e-07
6.326589835e-07
6.348107899e-07
6.34304049e-07
6.296667529e-07
6.194305807e-07
6.06152704e-07
5.9253776e-07
5.779057138e-07
5.641165033e-07
5.525749909e-07
5.378612834e-07
5.228015708e-07
5.105868403e-07
4.982428418e-07
4.848346274e-07
4.704762636e-07
4.528633379e-07
4.332161185e-07
4.114967976e-07
3.873422036e-07
3.617138944e-07
3.362172284e-07
3.110322742e-07
2.839736098e-07
2.53217617e-07
2.184479713e-07
1.834459955e-07
1.491877009e-07
1.181056998e-07
9.01812214e-08
6.123115115e-08
2.672923345e-08
-1.205839054e-08
-5.431435033e-08
-9.542792903e-08
-1.360637432e-07
-1.81990853e-07
-2.31670887e-07
-2.820989556e-07
-3.270019264e-07
-3.781621202e-07
-4.299986289e-07
-4.7720416e-07
-5.307309759e-07
-5.846552124e-07
-6.330295015e-07
-6.637863813e-07
-6.390001021e-07
-6.259641971e-07
7.400752251e-08
1.305766157e-06
2.789477091e-07
-1.041344213e-06
-1.2682735e-06
-1.402824602e-06
)


100
(
2.592960077e-07
3.066704478e-07
3.498316206e-07
3.792115711e-07
4.110414183e-07
4.33020573e-07
4.556006189e-07
4.71225836e-07
4.93197097e-07
5.052886604e-07
5.206535996e-07
5.366422613e-07
5.462413538e-07
5.601027122e-07
5.772322736e-07
5.895696571e-07
5.980287795e-07
6.114672159e-07
6.22982022e-07
6.274263484e-07
6.274701942e-07
6.331648062e-07
6.386017233e-07
6.421000726e-07
6.433176673e-07
6.482317929e-07
6.582226539e-07
6.67268299e-07
6.738972202e-07
6.754351708e-07
6.797516546e-07
6.857605059e-07
7.000805502e-07
7.011379892e-07
6.930058932e-07
6.875502239e-07
6.88862168e-07
6.917292336e-07
6.958248622e-07
6.960311424e-07
6.893581027e-07
6.832062107e-07
6.794911905e-07
6.753460928e-07
6.714080852e-07
6.646707891e-07
6.588040011e-07
6.576113925e-07
6.556166883e-07
6.467351808e-07
6.350542596e-07
6.192274196e-07
6.023443517e-07
5.900146669e-07
5.813647683e-07
5.728936754e-07
5.631398239e-07
5.480650444e-07
5.337926078e-07
5.188575234e-07
4.996002031e-07
4.795345454e-07
4.590411281e-07
4.381155254e-07
4.196060745e-07
4.015229639e-07
3.808637359e-07
3.57620446e-07
3.2947011e-07
2.974243805e-07
2.632863931e-07
2.317101882e-07
2.04076379e-07
1.772515975e-07
1.47630105e-07
1.117125721e-07
7.37896217e-08
3.869706442e-08
8.402559485e-09
-2.612945028e-08
-7.067941926e-08
-1.172154033e-07
-1.609148619e-07
-2.012806561e-07
-2.516831741e-07
-3.026893037e-07
-3.505732129e-07
-4.011613208e-07
-4.564114435e-07
-4.969693651e-07
-5.396903285e-07
-5.563894853e-07
-5.134401847e-07
-3.971759951e-07
3.854570031e-07
7.936802454e-07
-2.803290501e-07
-1.116482958e-06
-1.276368227e-06
-1.389533463e-06
)


100
(
2.593257441e-07
3.039428818e-07
3.450813993e-07
3.785722602e-07
4.113527009e-07
4.319348725e-07
4.586366582e-07
4.758264979e-07
4.957853359e-07
5.139650292e-07
5.255059634e-07
5.415183877e-07
5.553377473e-07
5.658520278e-07
5.807376793e-07
5.981296273e-07
6.106229999e-07
6.190831518e-07
6.326549475e-07
6.447625539e-07
6.509238466e-07
6.520164881e-07
6.569680664e-07
6.633897067e-07
6.690969592e-07
6.69867798e-07
6.721618962e-07
6.816069989e-07
6.916289718e-07
6.998609742e-07
7.037229145e-07
7.0538233e-07
7.10142088e-07
7.120631669e-07
7.094300326e-07
7.091739742e-07
7.084053321e-07
7.097094762e-07
7.16937587e-07
7.238411133e-07
7.278576413e-07
7.242393963e-07
7.158519436e-07
7.115958579e-07
7.080400813e-07
7.025949809e-07
6.965569225e-07
6.869369365e-07
6.759178867e-07
6.670530171e-07
6.585535078e-07
6.51222743e-07
6.42767159e-07
6.288285205e-07
6.142820617e-07
6.064452661e-07
5.9846518e-07
5.865072338e-07
5.692204785e-07
5.475235046e-07
5.255958946e-07
5.081155247e-07
4.941581982e-07
4.789196449e-07
4.61005791e-07
4.436212924e-07
4.236738615e-07
3.984269947e-07
3.718926705e-07
3.457296834e-07
3.220111616e-07
2.986067837e-07
2.734680744e-07
2.421473652e-07
2.062234787e-07
1.69669804e-07
1.385222797e-07
1.107476129e-07
8.185864441e-08
4.287707266e-08
3.899869662e-10
-3.542435428e-08
-7.110659456e-08
-1.16841619e-07
-1.649681355e-07
-2.075844616e-07
-2.57258307e-07
-3.096394129e-07
-3.509105421e-07
-3.91720038e-07
-4.25135506e-07
-4.313445339e-07
-3.859756054e-07
-2.577107656e-07
2.617809915e-07
1.366457685e-07
-7.693793676e-07
-1.207184642e-06
-1.339906955e-06
-1.43871272e-06
)


100
(
2.594057703e-07
3.018707754e-07
3.424972774e-07
3.792196803e-07
4.06721303e-07
4.341802658e-07
4.571886771e-07
4.811793313e-07
4.968075653e-07
5.182594911e-07
5.333213084e-07
5.443700141e-07
5.613610925e-07
5.753766813e-07
5.861319309e-07
6.015947059e-07
6.192989383e-07
6.325535795e-07
6.410277182e-07
6.541441123e-07
6.672904729e-07
6.75644075e-07
6.774572852e-07
6.814125895e-07
6.880924832e-07
6.933323214e-07
6.970045552e-07
6.99461578e-07
7.050971011e-07
7.143189436e-07
7.215887901e-07
7.271628906e-07
7.26081766e-07
7.234169333e-07
7.25597427e-07
7.300407998e-07
7.358466189e-07
7.391233083e-07
7.391404916e-07
7.429872643e-07
7.505914484e-07
7.554983064e-07
7.559809477e-07
7.5048814e-07
7.42949032e-07
7.357462129e-07
7.262758109e-07
7.16114864e-07
7.089839902e-07
7.004366286e-07
6.914732387e-07
6.856130291e-07
6.798807088e-07
6.70962951e-07
6.58773246e-07
6.442078203e-07
6.290371386e-07
6.144363568e-07
5.974440465e-07
5.796978375e-07
5.628637512e-07
5.457833056e-07
5.315837585e-07
5.18481313e-07
5.022727704e-07
4.806666265e-07
4.570194375e-07
4.340399228e-07
4.150442005e-07
3.970043737e-07
3.782770201e-07
3.569989572e-07
3.277289097e-07
2.953300703e-07
2.635683534e-07
2.368524681e-07
2.111732657e-07
1.805945656e-07
1.420782082e-07
1.050622165e-07
7.605328208e-08
4.681623536e-08
6.266666623e-09
-3.870833082e-08
-7.412285052e-08
-1.188468189e-07
-1.683214365e-07
-2.101655418e-07
-2.501011971e-07
-2.871372e-07
-3.2067639e-07
-3.513255997e-07
-3.064547792e-07
-2.968810746e-07
2.033501377e-07
-2.596473602e-07
-9.428409907e-07
-1.180081039e-06
-1.325731109e-06
-1.4508165e-06
)


100
(
2.574170484e-07
3.011838846e-07
3.414590116e-07
3.768082514e-07
4.030782484e-07
4.352057707e-07
4.563003551e-07
4.82084418e-07
5.017611423e-07
5.192226285e-07
5.391903159e-07
5.529888393e-07
5.657133455e-07
5.823230487e-07
5.962005069e-07
6.069677531e-07
6.226396786e-07
6.408227178e-07
6.549327891e-07
6.63647685e-07
6.758748532e-07
6.899891312e-07
7.01022599e-07
7.029461434e-07
7.045649881e-07
7.120919317e-07
7.187605395e-07
7.250905038e-07
7.265737988e-07
7.27351838e-07
7.329193867e-07
7.398910649e-07
7.472197227e-07
7.512525855e-07
7.499373247e-07
7.488345706e-07
7.542404067e-07
7.613100221e-07
7.683609908e-07
7.695030241e-07
7.698302984e-07
7.748815159e-07
7.801674297e-07
7.793943548e-07
7.746014701e-07
7.651331209e-07
7.540265269e-07
7.470919515e-07
7.427778162e-07
7.387616509e-07
7.340925163e-07
7.245453229e-07
7.155749347e-07
7.09268447e-07
6.99001804e-07
6.811394937e-07
6.629328643e-07
6.443593698e-07
6.299419257e-07
6.186737895e-07
6.052057404e-07
5.889414698e-07
5.715058522e-07
5.544404783e-07
5.343046974e-07
5.121703784e-07
4.927377773e-07
4.763508609e-07
4.605888763e-07
4.442442785e-07
4.248397104e-07
3.976559287e-07
3.682917387e-07
3.432601125e-07
3.21518165e-07
2.990152711e-07
2.69926293e-07
2.328624766e-07
1.958439489e-07
1.685981778e-07
1.452516733e-07
1.074515763e-07
6.680837145e-08
3.56301716e-08
5.249167996e-10
-5.159109666e-08
-9.0247869e-08
-1.198997243e-07
-1.599781054e-07
-1.978339509e-07
-2.262563255e-07
-2.554075833e-07
-1.923131883e-07
-1.035102788e-07
3.243074316e-07
-2.652439397e-07
-8.782696758e-07
-1.060569647e-06
-1.198698775e-06
-1.291137641e-06
)


100
(
2.539151115e-07
3.006504331e-07
3.403045202e-07
3.718494843e-07
4.028232366e-07
4.31466351e-07
4.578531568e-07
4.799450569e-07
5.057307631e-07
5.228756609e-07
5.41436627e-07
5.611865364e-07
5.738447614e-07
5.870103683e-07
6.037925337e-07
6.178266745e-07
6.286013857e-07
6.441271853e-07
6.626101767e-07
6.78010837e-07
6.87020282e-07
6.977829494e-07
7.121186471e-07
7.227732759e-07
7.288150218e-07
7.316153302e-07
7.370835576e-07
7.431631487e-07
7.463218594e-07
7.498252728e-07
7.512178731e-07
7.541391159e-07
7.628828427e-07
7.721240696e-07
7.79668496e-07
7.78393997e-07
7.748335396e-07
7.78618465e-07
7.862212527e-07
7.928360882e-07
7.98747157e-07
7.989538138e-07
7.956720346e-07
7.932406946e-07
7.896826079e-07
7.890169585e-07
7.90442764e-07
7.840928376e-07
7.754481493e-07
7.725701323e-07
7.699887215e-07
7.649979711e-07
7.578562581e-07
7.452687954e-07
7.298173406e-07
7.144484745e-07
7.00362238e-07
6.870784368e-07
6.726991673e-07
6.595593034e-07
6.473361689e-07
6.328461996e-07
6.128754919e-07
5.903789683e-07
5.679768345e-07
5.511444703e-07
5.367739649e-07
5.226742876e-07
5.070173269e-07
4.87176973e-07
4.618024913e-07
4.357536274e-07
4.145177235e-07
3.9490955e-07
3.754006959e-07
3.487778059e-07
3.149713291e-07
2.817169151e-07
2.548952109e-07
2.309961557e-07
2.010029431e-07
1.593509533e-07
1.267838129e-07
9.980491162e-08
5.725746853e-08
2.649087063e-08
-1.456190458e-09
-3.479264946e-08
-6.546611009e-08
-1.063165447e-07
-1.230517913e-07
-1.190569954e-07
-5.89868347e-08
6.220262451e-08
4.880777919e-07
-4.873865464e-08
-6.704670475e-07
-8.903091632e-07
-1.020575504e-06
-1.081689531e-06
)


100
(
2.524957136e-07
2.991549585e-07
3.378330484e-07
3.687305634e-07
4.024496489e-07
4.270469343e-07
4.577800629e-07
4.804917049e-07
5.050362547e-07
5.272577075e-07
5.437364376e-07
5.635792434e-07
5.824943866e-07
5.947944615e-07
6.084479908e-07
6.256774821e-07
6.403780417e-07
6.510245999e-07
6.657186223e-07
6.843625037e-07
7.021969738e-07
7.104209432e-07
7.184564707e-07
7.335396208e-07
7.460698222e-07
7.559785087e-07
7.580760981e-07
7.572675422e-07
7.618859985e-07
7.684138575e-07
7.771931373e-07
7.807317628e-07
7.823077469e-07
7.880968592e-07
7.974893822e-07
8.047724981e-07
8.083628153e-07
8.049809315e-07
8.044070812e-07
8.108753743e-07
8.170316849e-07
8.177329254e-07
8.177877961e-07
8.127108611e-07
8.086758532e-07
8.089661759e-07
8.131699551e-07
8.15749328e-07
8.151987547e-07
8.078855351e-07
8.026982085e-07
7.991592839e-07
7.887602471e-07
7.766966249e-07
7.6536447e-07
7.537241284e-07
7.419536087e-07
7.318808628e-07
7.193655561e-07
7.058186643e-07
6.917631767e-07
6.741682897e-07
6.548039224e-07
6.356032242e-07
6.205425388e-07
6.058578158e-07
5.909942778e-07
5.755051017e-07
5.549638988e-07
5.288052235e-07
5.040308034e-07
4.860143755e-07
4.696483301e-07
4.510435752e-07
4.266054771e-07
3.983308137e-07
3.696697309e-07
3.435249691e-07
3.187094452e-07
2.908054857e-07
2.560352522e-07
2.296082801e-07
1.989664606e-07
1.612840756e-07
1.294443306e-07
1.207776388e-07
9.101278964e-08
5.24183714e-08
1.559037342e-08
-6.684405307e-10
-1.711298121e-08
3.066360304e-10
5.570364951e-08
2.144978605e-07
6.311491778e-07
1.458216634e-07
-4.384677761e-07
-6.907433942e-07
-8.334282897e-07
-8.977353042e-07
)


100
(