/*--------------------------------*- C++ -*----------------------------------*\
| =========                 |                                                 |
| \\      /  F ield         | OpenFOAM: The Open Source CFD Toolbox           |
|  \\    /   O peration     | Version:  2.3.1                                 |
|   \\  /    A nd           | Web:      www.OpenFOAM.org                      |
|    \\/     M anipulation  |                                                 |
\*---------------------------------------------------------------------------*/
FoamFile
{
    version     2.0;
    format      ascii;
    class       dictionary;
    location    "constant";
    object      GRPSI12;
}
// * * * * * * * * * * * * * * * * * * * * * * * * * * * * * * * * * * * * * //

GRPSI12_table
100
(

100
(
-0.01136153583
-0.009976161244
-0.008183556408
-0.006578584989
-0.005230332751
-0.003333567786
-0.002218594315
-0.0006961242434
0.000513225162
0.002134875529
0.002773853585
0.005039548347
0.005714251029
0.006594819614
0.008654856762
0.009322274593
0.009903891034
0.01242656494
0.01318502787
0.01356924387
0.01565347188
0.01706122649
0.0175935374
0.01850685926
0.02075282446
0.02145232722
0.02184677013
0.02315585569
0.02562924966
0.02628824594
0.02668669821
0.02813409926
0.02996657492
0.03054117049
0.03088996394
0.03195797074
0.03460239111
0.03609121105
0.03649119343
0.03745770731
0.03970672898
0.04136457629
0.04178361416
0.04263277737
0.04441570067
0.04594226681
0.04633273474
0.04672902531
0.04917684114
0.05151564803
0.0528138414
0.05342071347
0.05534415903
0.05722229343
0.05842996128
0.05919485591
0.0605532699
0.06184763165
0.06267314368
0.06356089438
0.06486489298
0.06751010496
0.0691693683
0.06935757575
0.07065290668
0.07384172218
0.07559507584
0.07522770749
0.07810309224
0.08083780763
0.08194916714
0.08281725778
0.08662254241
0.08859292932
0.08846852198
0.09113266249
0.09524030017
0.0953047846
0.09768512286
0.1023541187
0.1022995451
0.1062450618
0.1093947649
0.1096892162
0.1161305533
0.1166600415
0.1202562363
0.1243302936
0.1257123839
0.1305471028
0.1323669306
0.1359969922
0.1375406731
0.1405101175
0.1415196894
0.1438469105
0.1441082758
0.1402976104
0.1083028164
0.07931582583
)


100
(
-0.01136282468
-0.01019035699
-0.008466112519
-0.00688856567
-0.005437750766
-0.003733905843
-0.002461173207
-0.001072753807
0.0001628231989
0.001717786029
0.002497605815
0.004441631802
0.005396111633
0.006231507775
0.008008217706
0.008988230922
0.009598072645
0.01144774784
0.01278208313
0.01331539686
0.01476600605
0.0162784611
0.01725358066
0.01803930587
0.01958068319
0.02084644238
0.02155755098
0.02250259653
0.02408566255
0.02547596661
0.02638466266
0.02741667038
0.02868979054
0.02980049114
0.03061075273
0.03139806801
0.0329695994
0.03442239386
0.03578031153
0.03692218872
0.0382982078
0.03958584582
0.04079059224
0.04213747039
0.04327963781
0.04432950165
0.04529567945
0.04625050201
0.04788860526
0.04923284847
0.0505149798
0.05193357085
0.05399463741
0.055132129
0.05611225589
0.05729152868
0.05931909363
0.06007855628
0.06078634816
0.06177969582
0.06378963406
0.06455875898
0.06620711027
0.06797113545
0.06920009217
0.07010896712
0.07207206347
0.07440545004
0.07514406206
0.07693640899
0.07911685194
0.08147074276
0.08261771191
0.08456808985
0.08712669676
0.08860954622
0.08917914051
0.09197882367
0.09468106367
0.0960691727
0.09860559769
0.1000284476
0.1033242805
0.1040058122
0.1066095627
0.1093175722
0.1108892236
0.1133677641
0.1157735681
0.1176193678
0.1195364482
0.1214047765
0.1232210961
0.1244333477
0.1261562917
0.1272194497
0.1274474975
0.1195809597
0.09894701455
0.08131271799
)


100
(
-0.01136546812
-0.01056240563
-0.009017333523
-0.007323603815
-0.005955230255
-0.004508675497
-0.00306529163
-0.001819626206
-0.000563581559
0.0008629610365
0.001892289185
0.00333241484
0.004669452999
0.005541639266
0.006786071494
0.008139429606
0.008985217766
0.009982011664
0.01145194188
0.0126962506
0.0135038387
0.01471285944
0.01605988917
0.01721047545
0.01799753275
0.01929105197
0.02048901608
0.02150764552
0.02217748915
0.02354718932
0.02487831023
0.02620289928
0.02700822305
0.02814240604
0.02922817254
0.03025298763
0.03104230213
0.03200118155
0.03337138704
0.03472985936
0.03610439131
0.03725049779
0.03839703739
0.03950223468
0.040618096
0.04202465474
0.0429670965
0.04385451649
0.04474701896
0.04631180536
0.04711696464
0.04833105419
0.04956141964
0.05140500007
0.05240467767
0.05334861453
0.05457840092
0.05692890699
0.05809597202
0.05876541802
0.06044765659
0.06176932626
0.06230919633
0.06434093827
0.06616326133
0.06668417949
0.06736254385
0.07016337376
0.07145851351
0.0725216592
0.07390125361
0.07584497834
0.07627712825
0.0778345947
0.08087058312
0.0817665399
0.08120007333
0.08479970899
0.08693634198
0.08568931793
0.08888073351
0.09005436567
0.09071108589
0.09345149814
0.09328167624
0.0957299149
0.09650832754
0.09697464763
0.09884417996
0.09891497104
0.1004473934
0.1009367976
0.1022231779
0.1031326802
0.1044744992
0.1049032469
0.1052927461
0.09267273557
0.08641540772
0.08128869156
)


100
(
-0.0113682391
-0.01073990756
-0.009357973789
-0.007752822004
-0.006587789211
-0.00510446652
-0.003797402606
-0.002487610802
-0.001315069449
1.319679712e-05
0.001191842557
0.002401218323
0.003717419939
0.004854200608
0.00582325062
0.007009107386
0.008211224145
0.009141429413
0.01005290368
0.01138293133
0.01266664404
0.01353988518
0.01455409098
0.01585253775
0.0171219681
0.01793544697
0.01895788829
0.02013798899
0.02128293254
0.02206741386
0.02298033957
0.02428391571
0.02560233645
0.02682278066
0.02752773603
0.02851703074
0.02950967692
0.03075501706
0.03123469458
0.03208335505
0.03335813876
0.03475904135
0.03602039213
0.03644215222
0.03750266086
0.0389559838
0.04109337585
0.0414680219
0.04211535363
0.04351330939
0.04552017066
0.04610032084
0.04638929473
0.04808141279
0.0501828739
0.05119481067
0.05117414015
0.05352135182
0.05587714367
0.0574856901
0.05792625118
0.05989748757
0.06096777902
0.06178741392
0.06303235467
0.06453892546
0.06491745164
0.06575027643
0.06770404491
0.06846673965
0.06904472803
0.06986834903
0.0717454782
0.07208930376
0.07212055306
0.07439610052
0.07753339475
0.07728070188
0.07760873943
0.07979787496
0.08095234547
0.082644415
0.08219394477
0.08449108231
0.08526989106
0.08538800631
0.08739287202
0.08794731834
0.08853022512
0.08917940769
0.09030977687
0.09160977305
0.09212382316
0.09388799229
0.09466954251
0.09580257718
0.09486073519
0.08289010329
0.08020122264
0.07688276203
)


100
(
-0.01137066872
-0.01090372802
-0.009677910291
-0.008364765783
-0.007208157836
-0.005673272028
-0.004533613475
-0.003173388102
-0.002051774385
-0.0008123930889
0.0004029732519
0.001587589698
0.002741089284
0.003969577091
0.005059059125
0.005990693983
0.007114861347
0.008298340458
0.009224041719
0.01002982475
0.01131607311
0.01258766056
0.01353347318
0.01437647312
0.01564430602
0.01687843184
0.01782442881
0.01857625738
0.01966632228
0.02076081894
0.02178049296
0.02232235547
0.02340217671
0.02466134615
0.02613516619
0.02666623024
0.02736196296
0.02836677826
0.03029686306
0.03083941574
0.03119404027
0.03202067535
0.03396170146
0.03531831771
0.0357488428
0.03597967671
0.03837283689
0.04077735917
0.04120793254
0.04115624573
0.04317629745
0.0452413679
0.04618555165
0.0463560674
0.04799062379
0.05009518099
0.05133541288
0.05156564004
0.05280871702
0.05477817747
0.05609589375
0.0567224161
0.05788553341
0.05861939063
0.05959998575
0.06098262625
0.06230092157
0.06274340423
0.06336172549
0.06419540382
0.06575200811
0.06658335363
0.06727200734
0.06778595109
0.06883699038
0.06941986494
0.07169181867
0.07206549449
0.07272617825
0.07519068837
0.07517991251
0.07546982594
0.07783381971
0.0781633164
0.07893537114
0.07972530511
0.08059300647
0.08143816525
0.08252792279
0.08357973509
0.08420768485
0.08535057705
0.0864751945
0.08753904492
0.0889254129
0.08989932996
0.08425714898
0.0771476451
0.07534227636
0.07322081621
)


100
(
-0.01166334765
-0.01120402736
-0.01016549405
-0.008977098639
-0.007628306182
-0.006375248111
-0.005144032489
-0.003945518637
-0.002734152727
-0.001622670159
-0.000431170244
0.000760668352
0.001896620408
0.002996142676
0.00417367692
0.005206630838
0.006086406642
0.007178479841
0.008341936804
0.009280889671
0.01006057204
0.01124735858
0.01250225408
0.01356614773
0.01430873287
0.01546386847
0.01663484072
0.0174550673
0.01797504374
0.01887924002
0.02011568123
0.02137890016
0.02189559546
0.02248499834
0.02398657152
0.02566262181
0.02622551889
0.02645321478
0.02801878514
0.03012637095
0.03081088916
0.03113046259
0.03195689086
0.03403364603
0.03540841079
0.03547241718
0.03585017734
0.03822561108
0.04061131372
0.04087224423
0.04121981889
0.04299013041
0.04504313202
0.04604208685
0.04617830032
0.04736230764
0.04898069844
0.049548119
0.04989532342
0.05053731036
0.05174751408
0.05277955014
0.05385875789
0.05539372659
0.05644428717
0.05758685515
0.05878538641
0.05950297223
0.06096146458
0.06174192913
0.06230958988
0.06302889043
0.06414244314
0.0654687354
0.06673967606
0.067014784
0.06695714815
0.06866398341
0.06926920662
0.06977442755
0.07061451043
0.07132242629
0.07277563102
0.07389754503
0.07466793533
0.07579919306
0.07648293492
0.07710462871
0.0779136421
0.07951629585
0.08036271648
0.08076620109
0.0823542978
0.08333489961
0.08477601323
0.0860389826
0.07740800448
0.07432253605
0.07383004192
0.07228256501
)


100
(
-0.01214693691
-0.01153734092
-0.01063708951
-0.009454456289
-0.008074763881
-0.007079350595
-0.00572310332
-0.0047068703
-0.003457730758
-0.002358391658
-0.001256232964
-9.787562569e-05
0.001052465382
0.002128008211
0.003197268254
0.004326119428
0.005315303422
0.00616290138
0.007212034069
0.008363871931
0.009360660596
0.01013317281
0.01119214623
0.01244012047
0.0136516966
0.01441613389
0.01535318828
0.01645499272
0.01716082177
0.01765039338
0.01829341576
0.02001936198
0.02129056467
0.02183126898
0.02215286264
0.02405489247
0.02570412966
0.0262273819
0.02595716257
0.02793948705
0.03004667137
0.03083737241
0.03085820969
0.03201470036
0.0340998776
0.03545304782
0.03538547172
0.0357468831
0.03807840125
0.03999656966
0.04048529121
0.0405490791
0.04164563185
0.04284897777
0.0439591625
0.04503777017
0.04569418589
0.04616442836
0.04711826176
0.04810303576
0.0489305451
0.04946553002
0.05084405529
0.0522412183
0.05319549068
0.05408569553
0.05523248999
0.05610272639
0.0567167292
0.05800497887
0.05924692137
0.06036034495
0.06154128031
0.06245348193
0.06284579249
0.06443470251
0.06437251573
0.06508213223
0.06593551259
0.06685998998
0.06809530685
0.06897039091
0.06899305261
0.07018397478
0.07108523611
0.07218652071
0.07326917501
0.07418979386
0.074646431
0.07578392741
0.07732864564
0.07806278651
0.0792810185
0.08028785024
0.08170796876
0.08279855634
0.07479364148
0.07344904216
0.07365279857
0.07304440002
)


100
(
-0.01233973659
-0.01184886287
-0.01100731249
-0.009804362595
-0.008723480685
-0.007621272191
-0.006432195271
-0.005315010573
-0.004247563377
-0.003072776828
-0.002054584357
-0.0009518327147
0.0001780964206
0.001284519991
0.00231056513
0.003349662726
0.004443364622
0.005418305782
0.006242453946
0.007233703895
0.008386940631
0.009459635846
0.01021222937
0.01110267692
0.01232653379
0.01360156328
0.01452902972
0.01552628513
0.01663383814
0.01720084199
0.01749027377
0.01809594829
0.02008416381
0.0213120008
0.0216360683
0.02212980471
0.02413897472
0.02575000185
0.02570688226
0.02595998355
0.02785263484
0.02992303937
0.03051207903
0.03089169685
0.03205083619
0.03411974556
0.03488572032
0.03498897525
0.0350560934
0.03667311784
0.03758084038
0.03852577347
0.03905157479
0.03956289953
0.04056096497
0.04191454271
0.04328465776
0.04450022559
0.04519138616
0.04615948064
0.0471860501
0.0477854042
0.04841409205
0.04891772101
0.04995237145
0.0508464297
0.05189672509
0.05322589376
0.0538795806
0.05493410353
0.0564182567
0.05737176444
0.05834463027
0.05905106482
0.05957274799
0.06066558055
0.06221396663
0.06290543728
0.06388371944
0.06462308646
0.06501661741
0.06591068308
0.06672235479
0.06751362386
0.06831293595
0.06903866078
0.06976824989
0.0709347741
0.07213078246
0.07279348717
0.07357934875
0.07486850714
0.07608386074
0.07747704598
0.07846669831
0.07854106852
0.07194087251
0.07214480022
0.07219250308
0.07232043601
)


100
(
-0.01234154406
-0.01203217617
-0.01124591824
-0.01025658061
-0.009364498334
-0.008085239463
-0.007173362849
-0.005917391833
-0.004990186386
-0.003858858417
-0.002780141574
-0.001794045991
-0.0007079441407
0.0003970702423
0.00147325391
0.002456657699
0.003462134605
0.004538665802
0.005524107378
0.006320163286
0.007223250134
0.008357736624
0.009490915081
0.01021414679
0.01091575352
0.01208969057
0.01337808613
0.01455493717
0.01568156851
0.01677569637
0.01722118764
0.01704336035
0.01814447773
0.02014152223
0.02131510572
0.02128625686
0.02219489369
0.02420825843
0.02562718729
0.02556321996
0.02601236601
0.02774761714
0.02961372709
0.03026278359
0.03049620557
0.03135367083
0.03237443382
0.03310383581
0.03375159087
0.0339901948
0.034717039
0.03585806057
0.03710394334
0.03833310956
0.03903178116
0.03916058536
0.04050027836
0.04186638921
0.04294315353
0.04399406913
0.04474078506
0.04550135108
0.04603025595
0.04694240756
0.04813598564
0.0488294615
0.04942786357
0.05085383325
0.05207964941
0.05266807603
0.05322040894
0.05391082004
0.05481679829
0.05634667624
0.05775213
0.0583950773
0.05972301568
0.0604299992
0.06075986437
0.06152536511
0.06255205784
0.06349796603
0.06412445515
0.06471106398
0.06535807338
0.06595749207
0.06695532974
0.06829279644
0.06938619505
0.0700712608
0.07075726424
0.07202391699
0.07300069705
0.07441726986
0.07493372097
0.07388952844
0.06827527688
0.06897651141
0.06926314193
0.06914729642
)


100
(
-0.0123433218
-0.01221429748
-0.01155679632
-0.01080573385
-0.009811075558
-0.008702479927
-0.007757701775
-0.006679435847
-0.005601087062
-0.00466145117
-0.003538967069
-0.002542884215
-0.00156934529
-0.0005198008235
0.0005681579743
0.00162470504
0.002567020878
0.003530051526
0.004589639949
0.005586593635
0.006336843025
0.007120078438
0.008218197734
0.009331372743
0.01013183392
0.01074259659
0.01174628659
0.01303499543
0.01442704276
0.01574011523
0.01685878506
0.01702407068
0.01689363401
0.01820365833
0.02017601364
0.02101352087
0.02129969891
0.02224197943
0.02421960966
0.02514316152
0.02544555561
0.02563092707
0.02687274449
0.0279201269
0.02899279711
0.02949728951
0.02993618039
0.03071827379
0.0317666501
0.03286648175
0.03388349689
0.03415537125
0.03481421362
0.03602358375
0.03728369179
0.03811486676
0.03895748214
0.0392099053
0.0401011594
0.04110333179
0.04228904143
0.04376274846
0.04445834781
0.04490070687
0.04609971939
0.04732248375
0.0479184759
0.04845722044
0.04887690505
0.04960855591
0.05091133454
0.05253528794
0.05282807483
0.05406326751
0.05557850457
0.05624027427
0.05655452543
0.05743424704
0.05851430749
0.05941093264
0.06002399837
0.0607370823
0.06136167425
0.06200478777
0.06289656491
0.06395894582
0.06454258369
0.06542337617
0.06631069289
0.06741551082
0.06861783252
0.06975113274
0.0708358934
0.0717258472
0.07313904343
0.06802987857
0.06326003864
0.0642492244
0.06462498124
0.06489352212
)


100
(
-0.01250832747
-0.01248214595
-0.01197111352
-0.01131298122
-0.01018519266
-0.009387603709
-0.008248533013
-0.007450013537
-0.006267429333
-0.005339940652
-0.004362597458
-0.003292264248
-0.002353706272
-0.001396199381
-0.0003823601932
0.0006893274751
0.001719940956
0.002612508385
0.00351086739
0.004547697798
0.00555658144
0.006273984792
0.006933636384
0.007980869585
0.009073588637
0.00998501991
0.01056415802
0.01133513151
0.01259142521
0.01400980367
0.01565404112
0.01676859377
0.01649341689
0.01687068729
0.01820823985
0.02009076241
0.02076215945
0.02122149572
0.02195580344
0.02322010389
0.02401189003
0.02445468362
0.02461008596
0.02535255474
0.02647693266
0.0277580509
0.02899827685
0.02950634633
0.02972809946
0.03077087179
0.03187369345
0.03293816041
0.03388310614
0.03431981384
0.03481122074
0.0358346341
0.03661140711
0.03780530997
0.03895361131
0.03925154977
0.03990350978
0.04132546438
0.04279065166
0.04369941601
0.04408368855
0.0444857933
0.04522363306
0.04630017169
0.04770909904
0.04785583415
0.04873763458
0.05026851194
0.05134350345
0.05189566408
0.05246171731
0.05367034024
0.05473180623
0.0553827127
0.05600233706
0.05674262688
0.05745693436
0.05820539649
0.05933834986
0.0603770888
0.06097040829
0.06172150762
0.06228289651
0.06313001643
0.06404321117
0.06520075954
0.06646769339
0.06750894578
0.06897920053
0.07000180279
0.07184752295
0.06191673041
0.05843595639
0.05997560366
0.06039715589
0.06088072658
)


100
(
-0.01286074769
-0.01276942966
-0.01237159821
-0.01158223933
-0.01072627595
-0.00994604822
-0.008888520909
-0.008008261531
-0.007076599129
-0.0059845031
-0.005124439981
-0.00412146169
-0.003112853367
-0.002203010527
-0.001275425022
-0.0003109559321
0.0007272827902
0.001717433904
0.002564915567
0.003388078656
0.00440426322
0.005393191165
0.006141912625
0.006764753335
0.007664987572
0.008733147195
0.009737256583
0.01034820071
0.01093074383
0.01207190702
0.01345452352
0.01529991086
0.01630013162
0.01637500359
0.0167746248
0.01797992199
0.01918079599
0.02006268781
0.02038997492
0.020902525
0.02171336513
0.0227602019
0.02382061829
0.02440616771
0.02464881584
0.02545536176
0.02669047099
0.02795071335
0.02893521498
0.02943328216
0.0298516546
0.03070953641
0.03156407634
0.03252052536
0.03379097333
0.03425009172
0.0344849739
0.03551914725
0.03683462575
0.03813254817
0.03909333742
0.03925638563
0.03983952313
0.04078185041
0.04181397966
0.04303897451
0.04341981813
0.04406975549
0.04563552579
0.04714070546
0.04750762191
0.04763940645
0.04859285892
0.04933891605
0.05008613118
0.05071434218
0.05171516584
0.05280091135
0.05357787734
0.05444552234
0.05558981985
0.05632579859
0.05712698984
0.05798700394
0.05888525671
0.05978798033
0.06058383802
0.06139553684
0.06254926812
0.06380404902
0.06505651731
0.06607199342
0.06728591705
0.06869019531
0.06829177469
0.05764204095
0.05675894556
0.05764239217
0.05849835
0.05912947911
)


100
(
-0.01304970413
-0.01303320859
-0.01262271659
-0.01185981803
-0.01131490288
-0.0103488077
-0.009608521549
-0.008525756934
-0.007818070822
-0.006766942513
-0.005782920974
-0.004944752429
-0.003934132593
-0.002983203442
-0.002112850134
-0.001231802843
-0.0003246769421
0.0006670116065
0.001615948284
0.002433372984
0.003186317716
0.00417013283
0.00514709192
0.005949830672
0.006551386665
0.007287655837
0.008314730244
0.009313319875
0.01009884184
0.01067542193
0.01152037076
0.01284848002
0.01467459115
0.01552755238
0.01583029333
0.0160771992
0.01686371723
0.01779564525
0.01895846017
0.01981837983
0.02021002912
0.02082387165
0.02186424181
0.02296258105
0.02395783135
0.02435889193
0.02469119967
0.02563032615
0.02685943485
0.02771089271
0.02865823113
0.02915234577
0.02937998824
0.03007894565
0.03133942436
0.0327569298
0.03408074325
0.0340557058
0.0344977495
0.03564525507
0.03647391287
0.03743298876
0.03816862344
0.03829956836
0.03899455709
0.0406858763
0.04238095105
0.04310831168
0.04331211362
0.04467606107
0.04529679681
0.0458054175
0.0463327488
0.04694943328
0.0476867615
0.04846781744
0.04943338403
0.05042633325
0.05150543737
0.05228395172
0.05308993578
0.05393761873
0.0548662084
0.05594857386
0.05669723836
0.05739745067
0.05861774795
0.0594455814
0.06085422845
0.06155605164
0.062474565
0.06356575346
0.06484793275
0.06562630296
0.06384696588
0.05612268617
0.0575476639
0.05785063612
0.05892024064
0.05964109072
)


100
(
-0.01305098155
-0.01322353115
-0.01282839568
-0.0123386956
-0.01176500869
-0.01085358966
-0.01018249853
-0.009244961878
-0.008354304643
-0.007595230074
-0.006522151306
-0.005620489402
-0.004784801098
-0.003828016998
-0.002930362428
-0.002100377785
-0.001265786992
-0.0004131293109
0.0005249700638
0.001441361693
0.002245969483
0.002972101678
0.003872364976
0.004837097458
0.005708205344
0.00630834002
0.006914326195
0.007845909656
0.008833554038
0.009750171077
0.01042497397
0.0110782819
0.01210924769
0.01334853408
0.01421548138
0.01497289745
0.01544131733
0.01591716586
0.0169114014
0.01807599202
0.019208516
0.01980189836
0.02006673174
0.02092740423
0.02200280812
0.02302133524
0.02388641856
0.0243686863
0.02468627022
0.02538739162
0.0262317813
0.02751257263
0.02877870722
0.02908618069
0.02900341721
0.03019779008
0.0315846385
0.03274900959
0.03342425595
0.03343583308
0.03347668542
0.03430776662
0.03604165119
0.03773520534
0.03780222491
0.03816815049
0.03973117094
0.04084643389
0.04154108621
0.04204881873
0.0428056484
0.04377130744
0.04472198405
0.04530170707
0.04597988158
0.04676648669
0.04745136205
0.04807721004
0.048977605
0.0499410134
0.05096378691
0.05174460406
0.05265083557
0.05339429341
0.05433328416
0.05540584624
0.05643163854
0.05737315509
0.05798677916
0.05881039482
0.05960915203
0.06079937001
0.06174283353
0.06303302173
0.06133973142
0.05660011083
0.05809734424
0.05899135708
0.06017718091
0.06098048328
)


100
(
-0.01305203653
-0.01341433681
-0.01315523212
-0.01280211503
-0.01205409433
-0.01148478618
-0.01060937971
-0.009987182831
-0.008950105395
-0.008218492033
-0.007374077596
-0.006339128678
-0.005522136029
-0.004714516733
-0.003809587249
-0.002957178649
-0.002160718159
-0.001365667993
-0.000560217256
0.000321337103
0.001215266123
0.00202328108
0.002722745147
0.003524628117
0.004466946267
0.005350125492
0.006049318473
0.006643793919
0.007372392036
0.008333745766
0.009271300055
0.01015406503
0.01075314255
0.01134942253
0.01228947778
0.01331624582
0.01438531593
0.01508557366
0.01542670965
0.01604684119
0.01715704515
0.01829854229
0.01922348749
0.01971254387
0.02019765192
0.02101086766
0.0218627334
0.02268566133
0.02376080234
0.02430458203
0.02457199535
0.02532391721
0.02659367822
0.02787820038
0.02862761776
0.02877249734
0.02898706731
0.02997609794
0.03066630472
0.03187352138
0.03273897164
0.03277028115
0.03348082546
0.0351788646
0.03670320899
0.03730915039
0.03758961676
0.03812015905
0.0390010806
0.03985169351
0.04047954387
0.04117958268
0.0421632999
0.04315861093
0.04397891686
0.04473144087
0.04544052245
0.0460688296
0.04671230307
0.0476422425
0.04860135295
0.04950113675
0.05028326581
0.05100874536
0.05201603884
0.0533169672
0.05419366757
0.05492426995
0.05554419267
0.05626049356
0.057455276
0.05872257628
0.05949096449
0.06099735038
0.05794211762
0.05641014091
0.05742238527
0.05867775484
0.06003472595
0.06134307117
)


100
(
-0.01319765223
-0.01363950072
-0.01349927334
-0.01310953451
-0.01244173867
-0.01201915645
-0.0111545748
-0.01050534976
-0.009736451145
-0.008781944971
-0.008098869539
-0.007223161344
-0.00627060815
-0.005499742131
-0.004727459081
-0.003870868964
-0.003056309886
-0.002283856705
-0.001521918482
-0.0007570372021
6.64127269e-05
0.000942429968
0.001759670954
0.002444463461
0.003144152358
0.004049893623
0.004944328833
0.005772383936
0.006390653259
0.006976298689
0.007787047829
0.008710598941
0.009711753278
0.0104909886
0.01099962253
0.01152815071
0.01251344663
0.01359673028
0.01460409747
0.01506389216
0.01543374027
0.01625120771
0.01735482741
0.01827507148
0.01912063016
0.01966938579
0.02002420563
0.02071000913
0.02170970508
0.02292728355
0.02403259161
0.02420528799
0.02445445922
0.02561174552
0.026797187
0.027330776
0.0279964338
0.02811341718
0.02841738307
0.02964207911
0.0311890741
0.03256428757
0.03246366409
0.03277886165
0.0341018363
0.034881684
0.03557927489
0.03617837536
0.03678634987
0.0375918593
0.03844812076
0.03926911804
0.03986925749
0.04082613774
0.04173392344
0.04249744141
0.04321247706
0.0439015442
0.04485342528
0.04577558823
0.04621008277
0.04702034101
0.04764717021
0.04895341951
0.05008664122
0.05101583665
0.05200053096
0.05278531137
0.05377283905
0.05433315784
0.05514611509
0.05644319295
0.05742413441
0.05781298724
0.0535248036
0.05452581137
0.05581433569
0.05683567746
0.05801507535
0.05934056084
)


100
(
-0.01344132217
-0.01387641309
-0.01380056562
-0.01332692799
-0.0129475238
-0.01233134672
-0.01181456506
-0.01095708523
-0.01043463583
-0.009530320797
-0.008689472725
-0.008052778696
-0.00715428527
-0.006266170819
-0.005544490713
-0.004811237848
-0.003999766682
-0.003219077205
-0.002462505241
-0.001730930958
-0.001000759292
-0.0002370909343
0.0006160516099
0.001429792497
0.002146405805
0.002818288436
0.003607838538
0.004497695946
0.005349219924
0.006099234113
0.006674693704
0.007253880843
0.008148917902
0.009160066114
0.01014163731
0.01064054058
0.01096116328
0.01170398748
0.01274506656
0.01376693963
0.01462306031
0.01510574085
0.01550475604
0.01622813371
0.01700896346
0.01806835358
0.0192699662
0.0197204614
0.01982857775
0.02074953533
0.02193543783
0.02305240514
0.02378719205
0.02404369084
0.02432209414
0.02503906325
0.02599609803
0.02735423007
0.02796693585
0.02792925048
0.02893412974
0.03046656872
0.03141739421
0.03189947794
0.03224988639
0.03267933239
0.03337806791
0.0341902946
0.03480221864
0.03547380648
0.03643994183
0.03741212674
0.03817389773
0.0388826597
0.03973908217
0.04062685288
0.04098892152
0.04171748125
0.04254136462
0.04348658202
0.04434619259
0.04532470682
0.04590811254
0.04648017584
0.04778964252
0.04874879624
0.0496221293
0.05045841284
0.05144002094
0.05262247506
0.05307438251
0.05392783285
0.05511540492
0.0557670856
0.05222101719
0.05141415274
0.05303422862
0.05417029061
0.05507555533
0.05633700073
)


100
(
-0.01354025324
-0.01405717041
-0.01400449036
-0.01365525072
-0.01339870683
-0.01269642368
-0.01233388245
-0.01160221837
-0.01091084388
-0.01032185398
-0.009400213403
-0.008657744428
-0.008043104342
-0.007160050893
-0.006327158308
-0.005646000793
-0.004957098075
-0.004187501781
-0.003437063065
-0.002695755786
-0.001992759009
-0.001285609158
-0.0005779167292
0.0002394699198
0.001057214494
0.001826484896
0.002494954649
0.00315131989
0.003986226131
0.00486173186
0.005761734832
0.006373866758
0.006843897597
0.007510366006
0.008493148527
0.009488611827
0.01023465618
0.01056255275
0.011003454
0.01186556743
0.01284923457
0.01368395363
0.01452934096
0.01492739428
0.01529506531
0.01594939881
0.01711243314
0.01834155011
0.01924877516
0.01936200249
0.01977578416
0.02087508349
0.02165691145
0.02248360138
0.02321768728
0.02364624355
0.0238712442
0.02516794303
0.02656343047
0.02753052127
0.02776987211
0.02815495286
0.02928378833
0.02997440494
0.0306728393
0.03117675621
0.03172161967
0.03248780264
0.03334442546
0.03416669697
0.03473899467
0.03524134646
0.03604720524
0.03676765542
0.0375744921
0.03854095597
0.03947131815
0.04038066879
0.04099670714
0.04129576409
0.04212925505
0.04322746924
0.04442741983
0.04522653168
0.04570611368
0.04604727585
0.0471956528
0.04853252324
0.04965772829
0.05045410047
0.05172814377
0.05210213
0.0532088929
0.05375319099
0.05031914336
0.04820858823
0.04954853362
0.05111628789
0.05202779695
0.05340386158
)


100
(
-0.01354105692
-0.01419868512
-0.01422043589
-0.01403582604
-0.01364123769
-0.01323476352
-0.0126653324
-0.01227745686
-0.01143713181
-0.01086877283
-0.01023854162
-0.00933832267
-0.008685615222
-0.008087658032
-0.007242704786
-0.006453805219
-0.005803919813
-0.005160633271
-0.004431671046
-0.003708994228
-0.00298574398
-0.002286786551
-0.001602117819
-0.0009228573471
-0.0001744394443
0.0006385660705
0.001435936654
0.002150137306
0.002781451321
0.003455504373
0.004309975638
0.005221827994
0.005990979335
0.006437720804
0.006866561494
0.007749863246
0.008729295005
0.009562915991
0.01014975486
0.01059670394
0.01098880667
0.0117377639
0.01262444768
0.01373707218
0.01456525619
0.01481293414
0.01494542004
0.01605988836
0.01726022303
0.01822712249
0.01885538908
0.01902323306
0.01926232404
0.01998771893
0.0213327797
0.02277085582
0.02309709416
0.0231907149
0.02430858873
0.02562507582
0.02636807074
0.02693629617
0.02750006459
0.0281606804
0.02872746277
0.02945592595
0.0300231116
0.03068562167
0.03159758516
0.03245146152
0.03311141279
0.03372210911
0.03444870212
0.03524904504
0.03596934955
0.03641360384
0.03735816728
0.03826947027
0.03900351759
0.0397293605
0.04088637479
0.04147775651
0.0424034324
0.04348867686
0.04417770804
0.04495230743
0.04574701924
0.04661412463
0.04758300156
0.04829025926
0.04958314358
0.05007684806
0.05112162856
0.05086586052
0.04674966913
0.04593837377
0.04724591325
0.04823148119
0.04949145849
0.05102707732
)


100
(
-0.01354185189
-0.01436424894
-0.01450120904
-0.01436560461
-0.01389414703
-0.01373021531
-0.01308750042
-0.01270828637
-0.01214750948
-0.01137179971
-0.01088978422
-0.01023060123
-0.009373056392
-0.008783091316
-0.008209663472
-0.007402895458
-0.006650907141
-0.0060195879
-0.005425740601
-0.004725379127
-0.004020161428
-0.003328345181
-0.002625692346
-0.001950743855
-0.001288180142
-0.000605630611
0.0001752756206
0.0009878940436
0.001770348865
0.002380847763
0.002895560572
0.003667329556
0.004566788992
0.005422304381
0.005988371961
0.006411571749
0.006989546444
0.007902771366
0.008715572988
0.009463155063
0.01005139072
0.01049638701
0.01086406588
0.01174837595
0.01286618716
0.01394120078
0.01430165357
0.01449337971
0.01500003077
0.01603231344
0.01673201933
0.01763295241
0.01826724741
0.01846667103
0.01890954596
0.0203336474
0.02179486032
0.02248599351
0.02280087024
0.02323040385
0.02408933025
0.02483832488
0.02548123277
0.02602731793
0.02664501693
0.02744830185
0.02835671537
0.02924034716
0.03002675614
0.03048771942
0.03110920447
0.0317603266
0.03245216064
0.03324402548
0.03402806727
0.03482471719
0.03568245077
0.03651396101
0.03682824525
0.03743463553
0.03845590005
0.03953269292
0.04054411447
0.04097115802
0.04148417367
0.04273280406
0.04362697891
0.04439487663
0.04502938593
0.04609898227
0.04666762454
0.04766963437
0.04833750669
0.04840777909
0.04430626111
0.04467395926
0.04597443615
0.04667680573
0.04766448684
0.049045639
)


100
(
-0.01378077782
-0.01453887293
-0.01476335972
-0.01458138871
-0.01430957275
-0.01399170367
-0.013644688
-0.01305687101
-0.01273908475
-0.0120877363
-0.01141097328
-0.01096990891
-0.01029206
-0.009487246152
-0.008931170362
-0.008400365842
-0.007631541103
-0.006904115383
-0.006292190439
-0.005705214956
-0.005056252725
-0.004383132738
-0.003709939451
-0.003009017563
-0.002316189093
-0.001654342438
-0.0010237292
-0.0003392667636
0.0004549730324
0.001254661046
0.001913061698
0.002399890893