/*--------------------------------*- C++ -*----------------------------------*\
| =========                 |                                                 |
| \\      /  F ield         | OpenFOAM: The Open Source CFD Toolbox           |
|  \\    /   O peration     | Version:  2.3.1                                 |
|   \\  /    A nd           | Web:      www.OpenFOAM.org                      |
|    \\/     M anipulation  |                                                 |
\*---------------------------------------------------------------------------*/
FoamFile
{
    version     2.0;
    format      ascii;
    class       dictionary;
    location    "constant";
    object      GRPSI19;
}
// * * * * * * * * * * * * * * * * * * * * * * * * * * * * * * * * * * * * * //

GRPSI19_table
100
(

100
(
-1.621144766e-06
6.81349532e-07
2.713138332e-06
4.661999022e-06
5.514879015e-06
6.131837041e-06
7.633691642e-06
7.317217128e-06
8.083507643e-06
7.900453894e-06
7.920715004e-06
8.230467659e-06
8.155899432e-06
8.347903336e-06
8.456266702e-06
8.313202637e-06
8.304864826e-06
8.435093739e-06
8.075537336e-06
7.944948338e-06
7.884983903e-06
7.581182867e-06
7.305806586e-06
7.131789913e-06
6.988789246e-06
6.602626711e-06
6.398319163e-06
6.217206509e-06
6.051144222e-06
5.668286365e-06
5.440834805e-06
5.222858631e-06
5.013307806e-06
4.717853513e-06
4.513760803e-06
4.322834739e-06
4.1438266e-06
3.923927885e-06
3.693427403e-06
3.504716709e-06
3.319480698e-06
3.137082859e-06
2.929525878e-06
2.752266679e-06
2.57655233e-06
2.423634393e-06
2.258998535e-06
2.120730892e-06
1.982875376e-06
1.872635554e-06
1.761875973e-06
1.647871638e-06
1.536464539e-06
1.440327279e-06
1.348628294e-06
1.24902493e-06
1.161402347e-06
1.105496178e-06
1.098735574e-06
1.176578012e-06
1.297896066e-06
1.223208321e-06
1.038325563e-06
9.944107301e-07
1.055432622e-06
9.955168654e-07
8.719307131e-07
8.759636981e-07
9.039267457e-07
8.192596908e-07
7.471263955e-07
7.724163554e-07
7.578436919e-07
6.915036383e-07
7.742857095e-07
8.222526216e-07
6.761145304e-07
6.923047169e-07
7.172582966e-07
5.853579682e-07
6.348536454e-07
5.878092084e-07
5.485457639e-07
6.115041781e-07
5.06111888e-07
5.401070188e-07
5.471309748e-07
4.962725242e-07
5.559997733e-07
5.056459644e-07
5.387134531e-07
5.397028606e-07
6.010596062e-07
6.07862273e-07
6.704847446e-07
6.606509846e-07
6.778358597e-07
5.86535243e-07
1.593304233e-07
3.276626609e-08
)


100
(
-1.6219147e-06
7.028179426e-07
2.520913881e-06
4.151817219e-06
4.656177626e-06
5.474241352e-06
5.993461627e-06
6.394848407e-06
6.529382837e-06
6.762078708e-06
6.656540342e-06
6.68183084e-06
6.643934969e-06
6.593280449e-06
6.569749559e-06
6.477245095e-06
6.349521202e-06
6.216004483e-06
6.104470168e-06
5.89678262e-06
5.70405495e-06
5.523547623e-06
5.330406222e-06
5.118310011e-06
4.90636293e-06
4.722728316e-06
4.534098581e-06
4.345811158e-06
4.155530418e-06
3.984136332e-06
3.8156253e-06
3.623328244e-06
3.443532735e-06
3.286344367e-06
3.147512787e-06
3.002191712e-06
2.85721836e-06
2.728834278e-06
2.623843409e-06
2.511273811e-06
2.383140997e-06
2.273259066e-06
2.183255467e-06
2.107689576e-06
1.997317032e-06
1.894584137e-06
1.806243892e-06
1.737759567e-06
1.654789603e-06
1.573097023e-06
1.511677498e-06
1.476415474e-06
1.464669338e-06
1.422595057e-06
1.387143961e-06
1.35716557e-06
1.362578258e-06
1.322567589e-06
1.301057221e-06
1.315434372e-06
1.422745265e-06
1.508604301e-06
1.508044765e-06
1.424193309e-06
1.352064132e-06
1.333697143e-06
1.314141224e-06
1.275759414e-06
1.222484837e-06
1.197272522e-06
1.163395631e-06
1.129213102e-06
1.091816308e-06
1.070083789e-06
1.09219256e-06
1.185610653e-06
1.284335937e-06
1.259564858e-06
1.235719704e-06
1.24330441e-06
1.232029357e-06
1.281454123e-06
1.278961219e-06
1.373343087e-06
1.382859496e-06
1.400282802e-06
1.466603419e-06
1.500638416e-06
1.573007622e-06
1.689165457e-06
1.809188128e-06
1.921622106e-06
2.087467268e-06
2.317188384e-06
2.455897791e-06
2.641110612e-06
2.824840143e-06
1.809916825e-06
7.231059671e-07
2.254994984e-07
)


100
(
-1.623319146e-06
5.214294351e-07
2.04937983e-06
2.765996199e-06
3.421799699e-06
4.19272243e-06
3.89168776e-06
4.618224351e-06
4.313409324e-06
4.544046674e-06
4.525021547e-06
4.21052624e-06
4.205428956e-06
3.954387324e-06
3.729232748e-06
3.682162336e-06
3.520361877e-06
3.221742063e-06
3.207847853e-06
3.113684111e-06
2.87758239e-06
2.789616533e-06
2.72122369e-06
2.614218481e-06
2.424957913e-06
2.395527311e-06
2.312417025e-06
2.2295624e-06
2.096552639e-06
2.093428367e-06
2.037832454e-06
1.995823413e-06
1.913608106e-06
1.892483771e-06
1.857632068e-06
1.845654709e-06
1.817288653e-06
1.799658833e-06
1.808160572e-06
1.815329676e-06
1.845851408e-06
1.875610785e-06
1.902057293e-06
1.94165999e-06
1.990095702e-06
2.086897405e-06
2.109287668e-06
2.138681252e-06
2.158944131e-06
2.260212743e-06
2.259349174e-06
2.283824474e-06
2.299361845e-06
2.373397837e-06
2.361975048e-06
2.337225112e-06
2.325964386e-06
2.394413909e-06
2.347240495e-06
2.220187822e-06
2.13999727e-06
2.228499162e-06
2.3308567e-06
2.326675549e-06
2.226677539e-06
2.177849382e-06
2.172040633e-06
2.134649829e-06
2.117306111e-06
2.204071453e-06
2.283572344e-06
2.343117183e-06
2.449118321e-06
2.604000203e-06
2.633692434e-06
2.696876623e-06
2.931569134e-06
2.991515906e-06
3.038713376e-06
3.277605149e-06
3.32520274e-06
3.44519688e-06
3.636679711e-06
3.678359467e-06
3.875763923e-06
4.07789816e-06
4.326425599e-06
4.640800237e-06
4.890441318e-06
5.282758812e-06
5.703824631e-06
6.12791373e-06
6.564090795e-06
7.137409168e-06
7.80483041e-06
8.585635864e-06
9.154176731e-06
5.108232466e-06
2.628154951e-06
9.829346186e-07
)


100
(
-1.624457246e-06
-1.680150267e-07
1.144317721e-06
1.696019076e-06
2.647071898e-06
2.869827504e-06
3.016086398e-06
3.077950771e-06
3.193446591e-06
3.007552095e-06
3.161648124e-06
2.909404691e-06
2.792098081e-06
2.707578994e-06
2.483383834e-06
2.392377806e-06
2.380003918e-06
2.275488006e-06
2.17193616e-06
2.202718789e-06
2.208913203e-06
2.153255041e-06
2.14046776e-06
2.170486972e-06
2.219086276e-06
2.20766045e-06
2.227575698e-06
2.267558837e-06
2.341674958e-06
2.371487804e-06
2.394685753e-06
2.443293855e-06
2.511606531e-06
2.618406707e-06
2.628276777e-06
2.691586489e-06
2.77178086e-06
2.955640605e-06
3.004368991e-06
3.100543406e-06
3.215268415e-06
3.334769621e-06
3.460385933e-06
3.455079e-06
3.505313351e-06
3.600840891e-06
3.828726283e-06
3.79981904e-06
3.804186776e-06
3.870643925e-06
4.022790132e-06
3.986881682e-06
3.913904312e-06
3.932106048e-06
3.985598115e-06
3.931096575e-06
3.813033122e-06
3.88228906e-06
3.946420759e-06
3.909942781e-06
3.719885509e-06
3.602486778e-06
3.627217138e-06
3.756669494e-06
3.859888688e-06
3.931074684e-06
4.021789108e-06
4.168314022e-06
4.292449124e-06
4.408200667e-06
4.551745533e-06
4.727797294e-06
4.968870649e-06
5.248272683e-06
5.496534437e-06
5.586748046e-06
5.702657625e-06
5.986372422e-06
6.192723743e-06
6.437222788e-06
6.780602734e-06
7.053719223e-06
7.424921853e-06
7.796496943e-06
8.289568952e-06
8.725982371e-06
9.231642277e-06
9.878593353e-06
1.056334664e-05
1.128244594e-05
1.190132312e-05
1.284223089e-05
1.367000221e-05
1.486353489e-05
1.638850925e-05
1.814616584e-05
1.804765289e-05
9.955191992e-06
5.907932813e-06
2.315810303e-06
)


100
(
-1.625186889e-06
-6.601974802e-07
3.938164272e-07
1.255700726e-06
1.893910202e-06
1.940189498e-06
2.282635187e-06
2.181354582e-06
2.414892617e-06
2.353578226e-06
2.382874022e-06
2.391716904e-06
2.237818452e-06
2.227587057e-06
2.184587263e-06
2.101203428e-06
2.122825857e-06
2.20054786e-06
2.235787913e-06
2.24980562e-06
2.351730296e-06
2.488469071e-06
2.575991633e-06
2.632825796e-06
2.771834798e-06
2.978651632e-06
3.165268413e-06
3.275012953e-06
3.423120328e-06
3.59475348e-06
3.810556945e-06
3.875116454e-06
4.008785891e-06
4.138164132e-06
4.401218173e-06
4.388781617e-06
4.442322305e-06
4.500542845e-06
4.877490797e-06
4.90227745e-06
4.949906791e-06
4.99427957e-06
5.200787761e-06
5.265349109e-06
5.17750938e-06
5.058858353e-06
5.263026599e-06
5.48394655e-06
5.366101051e-06
5.232557759e-06
5.354090813e-06
5.479452475e-06
5.453337684e-06
5.372776953e-06
5.440992944e-06
5.548725582e-06
5.588970576e-06
5.631624765e-06
5.789601768e-06
6.039550394e-06
6.270149732e-06
6.388417177e-06
6.451521207e-06
6.575289035e-06
6.800697324e-06
7.078396408e-06
7.290096781e-06
7.432538413e-06
7.587740806e-06
7.728773401e-06
7.937106241e-06
8.104018029e-06
8.300039648e-06
8.550218204e-06
9.000354996e-06
9.35038203e-06
9.573094302e-06
9.998282024e-06
1.054366671e-05
1.098600855e-05
1.149406444e-05
1.212924987e-05
1.293799009e-05
1.365622243e-05
1.447332109e-05
1.527479246e-05
1.601060432e-05
1.685065921e-05
1.832109638e-05
1.940840133e-05
2.021555187e-05
2.189065464e-05
2.341000382e-05
2.570655709e-05
2.828887682e-05
3.128552848e-05
2.585656327e-05
1.59254991e-05
1.033714134e-05
3.794318394e-06
)


100
(
-1.717025022e-06
-7.623303412e-07
1.026218345e-07
7.797946758e-07
1.200350172e-06
1.510297769e-06
1.705049681e-06
1.824290134e-06
1.922875266e-06
2.075801238e-06
2.074991376e-06
2.195232489e-06
2.228800229e-06
2.202773108e-06
2.267779172e-06
2.329330791e-06
2.353491822e-06
2.478863167e-06
2.692651751e-06
2.867241854e-06
2.964261759e-06
3.161593693e-06
3.434220156e-06
3.695199121e-06
3.80498347e-06
4.070906787e-06
4.465810852e-06
4.785433317e-06
4.93760841e-06
5.109941555e-06
5.348702267e-06
5.678263305e-06
5.718431025e-06
5.754829022e-06
5.948778168e-06
6.232806449e-06
6.133932048e-06
5.982690717e-06
6.121986765e-06
6.440978039e-06
6.362560933e-06
6.29577095e-06
6.307877471e-06
6.539713415e-06
6.597869772e-06
6.42315554e-06
6.399675097e-06
6.671331952e-06
6.986153139e-06
6.880371923e-06
6.898759804e-06
7.10042743e-06
7.378899764e-06
7.573271801e-06
7.661235385e-06
7.896504099e-06
8.191119882e-06
8.405809984e-06
8.602744155e-06
8.82272277e-06
9.153273082e-06
9.495989068e-06
9.831261121e-06
1.020133043e-05
1.040193509e-05
1.062702141e-05
1.090319234e-05
1.120193293e-05
1.167384988e-05
1.199492993e-05
1.229310023e-05
1.265029533e-05
1.308030356e-05
1.338342838e-05
1.367587833e-05
1.422264478e-05
1.479610611e-05
1.546592007e-05
1.616242658e-05
1.694212472e-05
1.783168574e-05
1.870947597e-05
1.98145922e-05
2.096214418e-05
2.210237575e-05
2.337533032e-05
2.479093406e-05
2.617605194e-05
2.813213928e-05
3.00978414e-05
3.17688544e-05
3.377058257e-05
3.678594962e-05
4.040801887e-05
4.502173489e-05
4.946133887e-05
3.540458767e-05
2.39943428e-05
1.636018708e-05
5.04475235e-06
)


100
(
-1.869136004e-06
-9.359818146e-07
-2.256074041e-07
3.067617566e-07
7.132886274e-07
1.142159768e-06
1.330734264e-06
1.588669999e-06
1.708667426e-06
1.92683097e-06
2.085218721e-06
2.184590297e-06
2.38213639e-06
2.479629416e-06
2.555271889e-06
2.733696159e-06
2.912068754e-06
3.029355128e-06
3.290674289e-06
3.662370903e-06
4.008379187e-06
4.176177635e-06
4.467462472e-06
4.861194828e-06
5.29715543e-06
5.375584415e-06
5.609217975e-06
6.080409832e-06
6.409104103e-06
6.570266812e-06
6.564021483e-06
6.995520936e-06
7.176536822e-06
7.1313992e-06
6.947932479e-06
7.31825095e-06
7.540593336e-06
7.407949938e-06
7.048488475e-06
7.369309893e-06
7.69347842e-06
7.632188992e-06
7.449866043e-06
7.591066707e-06
7.901007583e-06
8.050744873e-06
7.978928128e-06
8.08569776e-06
8.598454884e-06
9.089971244e-06
9.348889076e-06
9.495384963e-06
9.846194995e-06
1.022191758e-05
1.066105386e-05
1.113659067e-05
1.138263654e-05
1.157244893e-05
1.181315405e-05
1.205735283e-05
1.234301377e-05
1.253709344e-05
1.29720879e-05
1.348121251e-05
1.400468791e-05
1.458541876e-05
1.518203405e-05
1.566183791e-05
1.615920176e-05
1.692227094e-05
1.772564215e-05
1.834838023e-05
1.897181281e-05
1.957553016e-05
2.014398199e-05
2.088642524e-05
2.155063521e-05
2.245089092e-05
2.349317108e-05
2.450867442e-05
2.57736634e-05
2.710037102e-05
2.835143635e-05
3.000395968e-05
3.181283706e-05
3.397620788e-05
3.628297281e-05
3.862139541e-05
4.07752759e-05
4.377489541e-05
4.729828719e-05
5.105277369e-05
5.59710974e-05
6.165605206e-05
6.916336414e-05
7.448453465e-05
5.074643984e-05
3.606573296e-05
2.527439291e-05
6.009570379e-06
)


100
(
-1.929947137e-06
-1.172644572e-06
-5.896324624e-07
-9.833270923e-08
4.156293729e-07
8.210738944e-07
1.126258167e-06
1.403817248e-06
1.650818538e-06
1.853809758e-06
2.177954263e-06
2.355804552e-06
2.562368252e-06
2.892788952e-06
3.061944628e-06
3.255123429e-06
3.582517568e-06
3.866918848e-06
4.116808121e-06
4.504418841e-06
5.029224709e-06
5.553053819e-06
5.716183711e-06
5.979114952e-06
6.39200414e-06
6.797199964e-06
6.799387974e-06
6.925604901e-06
7.396306657e-06
7.681303425e-06
7.757796937e-06
7.677501216e-06
8.242483158e-06
8.343457296e-06
8.149680043e-06
8.014502198e-06
8.457997876e-06
8.722043428e-06
8.389644795e-06
8.292004959e-06
8.685211566e-06
9.161424788e-06
9.118822072e-06
9.187841705e-06
9.465587175e-06
1.003286435e-05
1.035443346e-05
1.056320495e-05
1.08056617e-05
1.148781675e-05
1.19733752e-05
1.253653846e-05
1.290318643e-05
1.314686361e-05
1.350802844e-05
1.399842256e-05
1.451227022e-05
1.50685857e-05
1.53845802e-05
1.575234813e-05
1.617039027e-05
1.659622581e-05
1.716973962e-05
1.772796549e-05
1.841396334e-05
1.913818721e-05
1.996186761e-05
2.085154277e-05
2.153838756e-05
2.234750422e-05
2.345331054e-05
2.454899294e-05
2.574184218e-05
2.669807404e-05
2.755321585e-05
2.875701258e-05
3.014698579e-05
3.134798294e-05
3.287676288e-05
3.4511719e-05
3.615183024e-05
3.800160988e-05
3.991851759e-05
4.243410597e-05
4.511679685e-05
4.804422071e-05
5.112351482e-05
5.516054544e-05
5.824210164e-05
6.182103592e-05
6.712412196e-05
7.329438148e-05
8.095345046e-05
8.994697574e-05
9.903748035e-05
0.0001031068072
7.03442448e-05
5.251294161e-05
3.801370163e-05
6.834648524e-06
)


100
(
-1.930407421e-06
-1.49782497e-06
-9.417443498e-07
-3.983794111e-07
1.230487673e-07
5.55743375e-07
9.605673441e-07
1.261960375e-06
1.632264739e-06
1.891173793e-06
2.219839165e-06
2.662297274e-06
2.876957583e-06
3.231269796e-06
3.752788541e-06
4.005994281e-06
4.339836959e-06
4.831352192e-06
5.338511131e-06
5.579045804e-06
5.954466753e-06
6.509009342e-06
7.121808021e-06
7.189734512e-06
7.283711026e-06
7.675574952e-06
7.969701157e-06
7.991400503e-06
8.02247527e-06
8.459902279e-06
8.741878874e-06
8.498967505e-06
8.78473348e-06
9.382873925e-06
9.525985212e-06
9.114546913e-06
9.267529216e-06
9.81548092e-06
1.015481285e-05
9.931203846e-06
1.007157585e-05
1.068424334e-05
1.143558527e-05
1.177994359e-05
1.200355058e-05
1.246606553e-05
1.298653004e-05
1.347336019e-05
1.400535195e-05
1.424296152e-05
1.467550776e-05
1.52408454e-05
1.581468942e-05
1.641700906e-05
1.689561663e-05
1.708679383e-05
1.782403852e-05
1.86453689e-05
1.948136563e-05
2.039463308e-05
2.111437684e-05
2.173523336e-05
2.230950148e-05
2.311214971e-05
2.405660049e-05
2.483192828e-05
2.558764967e-05
2.681244888e-05
2.812674528e-05
2.940862761e-05
3.071122085e-05
3.200950182e-05
3.347741266e-05
3.522918926e-05
3.702807342e-05
3.866810227e-05
4.08710881e-05
4.302079593e-05
4.505530152e-05
4.730446931e-05
4.97684294e-05
5.276840149e-05
5.579510885e-05
5.897744059e-05
6.231839841e-05
6.608736752e-05
7.085198436e-05
7.579320963e-05
8.055674431e-05
8.635268014e-05
9.316072465e-05
0.0001021786129
0.0001113432383
0.0001240483022
0.0001355696854
0.0001315312885
9.096605426e-05
7.144167268e-05
5.367648368e-05
7.829649132e-06
)


100
(
-1.930508542e-06
-1.720619403e-06
-1.211514293e-06
-6.77858105e-07
-1.472694115e-07
3.353463974e-07
7.92873515e-07
1.177607713e-06
1.56858689e-06
2.004737015e-06
2.31318844e-06
2.835196948e-06
3.392889941e-06
3.691531118e-06
4.232395283e-06
4.980328965e-06
5.307117511e-06
5.759155311e-06
6.301780875e-06
6.886191344e-06
7.026461965e-06
7.256338357e-06
7.782162236e-06
8.307764446e-06
8.456681441e-06
8.453246497e-06
8.747012603e-06
8.991222753e-06
9.100921863e-06
9.15222752e-06
9.526934586e-06
9.66716464e-06
9.5159136e-06
1.00152276e-05
1.077332248e-05
1.083240726e-05
1.076782996e-05
1.10706152e-05
1.191884984e-05
1.233128942e-05
1.260096199e-05
1.287215263e-05
1.369076041e-05
1.43676004e-05
1.521818386e-05
1.56533648e-05
1.595894705e-05
1.640292012e-05
1.6935532e-05
1.750246885e-05
1.820561426e-05
1.843969769e-05
1.896261839e-05
1.977060957e-05
2.064327624e-05
2.14784541e-05
2.253750181e-05
2.315557217e-05
2.418944027e-05
2.52976539e-05
2.650674323e-05
2.77971659e-05
2.860873302e-05
2.930118996e-05
3.054272416e-05
3.197009809e-05
3.333614724e-05
3.478896737e-05
3.610748878e-05
3.76507835e-05
3.966638317e-05
4.194819672e-05
4.353946492e-05
4.602707079e-05
4.907894545e-05
5.19728171e-05
5.460523103e-05
5.74980475e-05
6.055102285e-05
6.39922026e-05
6.775280036e-05
7.182216333e-05
7.575475047e-05
7.928704567e-05
8.44712205e-05
8.960077435e-05
9.521905865e-05
0.0001005871834
0.0001079439561
0.0001161459436
0.0001261388274
0.0001372950493
0.0001506193931
0.000166818225
0.0001815655163
0.0001556757994
0.0001094676843
9.043783252e-05
7.033356682e-05
9.39589523e-06
)


100
(
-1.925395564e-06
-1.847824555e-06
-1.448649849e-06
-9.542140699e-07
-3.957587489e-07
1.217362105e-07
6.094576009e-07
1.111921302e-06
1.507038179e-06
2.053309782e-06
2.551361841e-06
2.974756597e-06
3.744003506e-06
4.419553759e-06
4.782276265e-06
5.496450007e-06
6.395431287e-06
6.6897799e-06
6.991519674e-06
7.535050393e-06
8.179730916e-06
8.235382058e-06
8.274669254e-06
8.789279974e-06
9.24932735e-06
9.584877029e-06
9.572300497e-06
9.719753258e-06
1.001173321e-05
1.010680028e-05
1.048249624e-05
1.100268084e-05
1.064962429e-05
1.09727403e-05
1.169561002e-05
1.277244701e-05
1.302106614e-05
1.336487093e-05
1.384625013e-05
1.468284681e-05
1.536336572e-05
1.586684456e-05
1.616457315e-05
1.681953774e-05
1.761926703e-05
1.848671985e-05
1.939492286e-05
1.978719549e-05
1.995655189e-05
2.071964052e-05
2.147730031e-05
2.236514983e-05
2.341967185e-05
2.420985544e-05
2.504737146e-05
2.629935852e-05
2.734317946e-05
2.877328877e-05
3.01918122e-05
3.090720458e-05
3.198780838e-05
3.369135667e-05
3.552504557e-05
3.727751784e-05
3.882883842e-05
4.034896877e-05
4.210767357e-05
4.414687658e-05
4.646601418e-05
4.768435176e-05
4.996145341e-05
5.306648583e-05
5.652142679e-05
5.984767059e-05
6.318212323e-05
6.708030105e-05
7.099361186e-05
7.486780752e-05
7.93826434e-05
8.415890003e-05
8.885073151e-05
9.346101428e-05
9.909188617e-05
0.0001050256265
0.0001111308729
0.0001171012802
0.0001244265503
0.0001322605785
0.0001411515479
0.0001529378289
0.0001656574071
0.0001796217844
0.000198208994
0.0002168298024
0.0002326249669
0.0001750519239
0.0001282566036
0.0001106217952
8.791293928e-05
1.202072824e-05
)


100
(
-1.914797657e-06
-1.976173525e-06
-1.681473559e-06
-1.186345146e-06
-6.402789229e-07
-9.080619067e-08
4.252061746e-07
9.826742471e-07
1.50857081e-06
2.015970913e-06
2.768755715e-06
3.299260503e-06
3.898450415e-06
4.881799419e-06
5.611034342e-06
5.92966587e-06
6.691695478e-06
7.6022728e-06
7.828101319e-06
7.950013628e-06
8.468203162e-06
9.029793739e-06
9.194916058e-06
9.203428289e-06
9.579958696e-06
1.004447372e-05
1.059760149e-05
1.06898422e-05
1.072214033e-05
1.108781614e-05
1.135649509e-05
1.213936048e-05
1.260064917e-05
1.267032921e-05
1.321003433e-05
1.425660768e-05
1.520770138e-05
1.611217738e-05
1.641292651e-05
1.690392846e-05
1.754373339e-05
1.831071405e-05
1.919390857e-05
1.966209979e-05
1.990899701e-05
2.06495704e-05
2.165313342e-05
2.270153189e-05
2.381122862e-05
2.455723418e-05
2.522366373e-05
2.638659609e-05
2.755436481e-05
2.88543889e-05
3.0683059e-05
3.156804536e-05
3.228113812e-05
3.373131053e-05
3.539990737e-05
3.729769692e-05
3.933591273e-05
4.076389594e-05
4.277578246e-05
4.509668501e-05
4.758312773e-05
5.033831443e-05
5.177218228e-05
5.372073222e-05
5.663685737e-05
5.994100632e-05
6.314312725e-05
6.624997304e-05
7.023161875e-05
7.416399263e-05
7.798430802e-05
8.196818912e-05
8.767704354e-05
9.412912004e-05
9.982767751e-05
0.000105093284
0.0001107824855
0.0001172896448
0.000124563722
0.0001319905904
0.0001386954547
0.0001480726031
0.0001566877455
0.000165649376
0.0001788305183
0.0001943034987
0.0002102880455
0.0002262732611
0.0002459864515
0.0002672124152
0.0002763388232
0.0001947793306
0.0001575147112
0.0001347286442
0.0001093785678
1.446306128e-05
)


100
(
-1.909284306e-06
-2.102201259e-06
-1.874971717e-06
-1.39975305e-06
-8.856384373e-07
-3.112650993e-07
2.451313178e-07
7.912159708e-07
1.491353095e-06
2.033657021e-06
2.731099077e-06
3.683244389e-06
4.185413673e-06
4.908262691e-06
5.996124859e-06
6.655798808e-06
6.84136736e-06
7.569954244e-06
8.433992682e-06
8.688257062e-06
8.614216226e-06
9.131730372e-06
9.656624326e-06
1.001348577e-05
1.003794138e-05
1.026005798e-05
1.081707686e-05
1.141921967e-05
1.194292098e-05
1.209347271e-05
1.239366434e-05
1.287531029e-05
1.412295067e-05
1.49278447e-05
1.532909095e-05
1.578075791e-05
1.673531737e-05
1.762882377e-05
1.882095032e-05
1.963159474e-05
1.983733938e-05
2.029128442e-05
2.110027288e-05
2.191100238e-05
2.293513344e-05
2.34357473e-05
2.399365038e-05
2.521549498e-05
2.676653293e-05
2.809251463e-05
2.978807565e-05
3.085641962e-05
3.161971204e-05
3.276200155e-05
3.441206949e-05
3.625184663e-05
3.847532796e-05
3.92321961e-05
4.08740216e-05
4.344766701e-05
4.581082072e-05
4.861772634e-05
5.123872175e-05
5.289678086e-05
5.503751282e-05
5.830628211e-05
6.193924623e-05
6.502485283e-05
6.811874758e-05
7.265450671e-05
7.664266659e-05
8.048526123e-05
8.398916252e-05
8.798736521e-05
9.293851071e-05
9.90562517e-05
0.0001055848192
0.0001121708573
0.0001184737601
0.0001245687065
0.0001326384132
0.0001411287417
0.0001488506253
0.0001573079145
0.0001671360643
0.0001773139218
0.000186130788
0.0001990232505
0.0002166794765
0.0002304587206
0.00024898704
0.0002671023052
0.0002919144412
0.0003138924301
0.0003068842734
0.0002232804694
0.0001963234819
0.0001677922963
0.0001389426682
2.152137591e-05
)


100
(
-1.90918336e-06
-2.214111325e-06
-2.028735469e-06
-1.626303965e-06
-1.111717963e-06
-5.490066937e-07
4.669708867e-08
6.177492664e-07
1.305023624e-06
2.113379479e-06
2.666527209e-06
3.587167468e-06
4.575667243e-06
5.026190297e-06
5.76517373e-06
6.863851893e-06
7.43491269e-06
7.497176896e-06
8.168530687e-06
8.989982599e-06
9.357678755e-06
9.27626414e-06
9.678570017e-06
1.02210048e-05
1.087398718e-05
1.093805413e-05
1.106224157e-05
1.172151316e-05
1.247605388e-05
1.340347303e-05
1.392891696e-05
1.426053651e-05
1.500642954e-05
1.609405436e-05
1.696392953e-05
1.796622469e-05
1.845585846e-05
1.895958966e-05
2.000631098e-05
2.113109736e-05
2.230249952e-05
2.284406786e-05
2.29339121e-05
2.388304619e-05
2.501846954e-05
2.627063268e-05
2.773162273e-05
2.888402037e-05
2.981268994e-05
3.129887047e-05
3.275973703e-05
3.46502125e-05
3.671501643e-05
3.743835794e-05
3.788205183e-05
4.018915289e-05
4.27752984e-05
4.552444019e-05
4.840707592e-05
5.008758176e-05
5.188013195e-05
5.434331745e-05
5.7951627e-05
6.181398763e-05
6.338461298e-05
6.608382634e-05
7.088278915e-05
7.585301824e-05
8.062591822e-05
8.476207373e-05
8.874774612e-05
9.337977712e-05
9.838931778e-05
0.0001036101179
0.0001096325094
0.0001161208025
0.0001217479559
0.0001275701042
0.0001353002125
0.000145043019
0.000154415999
0.0001622413341
0.0001704180991
0.0001814479618
0.0001933530648
0.0002032311048
0.000214742397
0.0002297657462
0.0002429023296
0.0002593701307
0.0002768308906
0.0003003816049
0.000328179216
0.0003533520796
0.0003351547696
0.0002626116022
0.0002365375941
0.0002073771898
0.0001761421357
2.822281255e-05
)


100
(
-1.908813932e-06
-2.287371952e-06
-2.17669631e-06
-1.839720047e-06
-1.318032273e-06
-7.91204389e-07
-1.953283505e-07
4.66592478e-07
1.066013376e-06
1.964731891e-06
2.794189567e-06
3.352848652e-06
4.427065169e-06
5.359580872e-06
5.702089853e-06
6.408064869e-06
7.47112275e-06
8.033179466e-06
8.027979388e-06
8.630414292e-06
9.447898333e-06
1.003120107e-05
9.990283935e-06
1.027216146e-05
1.091475802e-05
1.164011921e-05
1.212644385e-05
1.241286008e-05
1.296654696e-05
1.400057933e-05
1.508311762e-05
1.633753163e-05
1.676729029e-05
1.713720962e-05
1.80983828e-05
1.914407779e-05
2.043226239e-05
2.117064558e-05
2.13844786e-05
2.204442606e-05
2.334832161e-05
2.465912104e-05
2.604106278e-05
2.681417172e-05
2.765461883e-05
2.912270996e-05
3.068104732e-05
3.215151913e-05
3.445323496e-05
3.548550449e-05
3.622940488e-05
3.768251963e-05
3.984342667e-05
4.216741169e-05
4.444435757e-05
4.592245601e-05
4.783594482e-05
5.112994968e-05
5.361446167e-05
5.734872166e-05
5.98970007e-05
6.100628932e-05
6.362975356e-05
6.791354627e-05
7.264334645e-05
7.722046004e-05
8.137750141e-05
8.593487874e-05
9.0808061e-05
9.566754073e-05
9.997778713e-05
0.0001047225374
0.0001117947685
0.0001192456893
0.0001257865044
0.0001315109343
0.0001379482416
0.0001450728564
0.0001539407963
0.0001638761218
0.0001723129787
0.0001809604369
0.0001932143259
0.0002050270405
0.0002150413067
0.0002276008555
0.0002431435857
0.0002578370256
0.0002717842143
0.0002856029235
0.0003063559641
0.0003288622292
0.0003524009176
0.0003775058866
0.0003536635678
0.0003012917179
0.0002735698896
0.0002451638641
0.0002136015821
3.314934464e-05
)


100
(
-1.837309965e-06
-2.335159316e-06
-2.312126903e-06
-2.006651767e-06
-1.537287596e-06
-1.021771878e-06
-4.540739699e-07
2.380027291e-07
9.33428802e-07
1.642820933e-06
2.731918668e-06
3.473399778e-06
4.055181017e-06
5.146991806e-06
5.988355786e-06
6.2217069e-06
6.882517072e-06
7.923916919e-06
8.55583726e-06
8.566288037e-06
9.07877555e-06
9.932456644e-06
1.083166523e-05
1.08900697e-05
1.103448257e-05
1.187513062e-05
1.273891608e-05
1.384019827e-05
1.43115824e-05
1.482381073e-05
1.590351066e-05
1.709266567e-05
1.85172153e-05
1.93849748e-05
1.967147639e-05
2.00081337e-05
2.115368471e-05
2.234684384e-05
2.379064807e-05
2.428093391e-05
2.475883759e-05
2.611478932e-05
2.7962041e-05
2.962913407e-05
3.161243815e-05
3.296412347e-05
3.392435117e-05
3.537047112e-05
3.711714158e-05
3.924642806e-05
4.172024512e-05
4.234334837e-05
4.350820512e-05
4.661110476e-05
4.993979772e-05
5.24222463e-05
5.583775192e-05
5.761463617e-05
5.933696929e-05
6.268432553e-05
6.649013197e-05
7.075724749e-05
7.216489883e-05
7.537721374e-05
8.134727471e-05
8.6710218e-05
9.180717912e-05
9.608671106e-05
0.0001005230163
0.0001060142803
0.0001124628527
0.0001199677241
0.0001265219243
0.0001333662162
0.0001398953147
0.0001463482072
0.0001543713869
0.0001638423374
0.0001733821431
0.0001822701992
0.0001908204608
0.0002019076668
0.0002137273757
0.0002248573756
0.0002372800211
0.0002562989437
0.0002725619545
0.0002857502877
0.0003035445541
0.0003186096733
0.0003394694786
0.0003737967952
0.0003888835737
0.0004100417389
0.0003628033145
0.000327859749
0.0003049921485
0.0002774805448
0.0002459689947
4.406022777e-05
)


100
(
-1.717797344e-06
-2.358989074e-06
-2.418174125e-06
-2.140871681e-06
-1.762985785e-06
-1.246584175e-06
-6.936649164e-07
-6.893131108e-08
7.802994373e-07
1.461269747e-06
2.31408194e-06
3.497992335e-06
4.048752425e-06
4.609147801e-06
5.695765733e-06
6.481513203e-06
6.657043351e-06
7.284056575e-06
8.305921e-06
9.108625698e-06
9.183786886e-06
9.581135486e-06
1.054332346e-05
1.151687776e-05
1.209074027e-05
1.242522182e-05
1.320495894e-05
1.432121326e-05
1.550791975e-05
1.666849597e-05
1.72452137e-05
1.779949914e-05
1.903595293e-05
2.037157729e-05
2.185398297e-05
2.210052729e-05
2.211876236e-05
2.313190791e-05
2.459910461e-05
2.619807247e-05
2.80437499e-05
2.911668355e-05
3.01590027e-05
3.199873163e-05
3.373621353e-05
3.59740503e-05
3.884366329e-05
3.975265505e-05
3.999788201e-05
4.222422184e-05
4.482642207e-05
4.78124991e-05
5.081697619e-05
5.290840092e-05
5.508957324e-05
5.81974833e-05
6.143666701e-05
6.572632763e-05
6.800649778e-05
6.859842582e-05
7.252859703e-05
7.776621314e-05
8.273799125e-05
8.76291602e-05
9.233299274e-05
9.636374001e-05
0.0001012466277
0.0001066310025
0.0001114816187
0.0001174287097
0.0001259053821
0.0001345923722
0.0001410483059
0.0001472324274
0.0001548909349
0.0001647665533
0.0001732145658
0.0001818750082
0.000189843028
0.0001991799701
0.0002116802052
0.0002258851681
0.0002348048595
0.0002439640983
0.0002612648456
0.0002787609763
0.0002945451485
0.0003108815846
0.0003276436638
0.0003501896989
0.0003682366992
0.0003976115364
0.0004233488456
0.0004379969287
0.0003853589316
0.0003419939452
0.0003256285262
0.0003030643523
0.0002735241959
5.424078254e-05
)


100
(
-1.669335482e-06
-2.353514036e-06
-2.473339396e-06
-2.283542277e-06
-1.96355257e-06
-1.48793528e-06
-9.305889202e-07
-3.412098834e-07
4.244137836e-07
1.359475466e-06
1.961043355e-06
2.902759045e-06
4.063090729e-06
4.448312534e-06
4.98409606e-06
6.060190598e-06
6.878466304e-06
7.042179598e-06
7.606739421e-06
8.644646767e-06
9.721212332e-06
9.907819741e-06
1.017300313e-05
1.131704235e-05
1.244165047e-05
1.370032914e-05
1.424782036e-05
1.476774844e-05
1.605676193e-05
1.723914255e-05
1.897605875e-05
1.954782144e-05
1.984463795e-05
2.058958491e-05
2.203715186e-05
2.347222337e-05
2.47455949e-05
2.492699414e-05
2.566445318e-05
2.750170179e-05
2.964290315e-05
3.155840424e-05
3.419886387e-05
3.52348155e-05
3.62453387e-05
3.774852998e-05
4.03146928e-05
4.305891558e-05
4.578297678e-05
4.639217049e-05
4.832973842e-05
5.233592595e-05
5.546005146e-05
5.918094345e-05
6.277773211e-05
6.491421932e-05
6.60209548e-05
7.023748055e-05
7.456669662e-05
7.881638553e-05
8.147681139e-05
8.544311647e-05
9.205040712e-05
9.749728501e-05
0.000102482961
0.0001066775015
0.0001113242532
0.0001172949324
0.0001249309708
0.0001333752217
0.0001404606331
0.0001464750003
0.0001536939433
0.0001608232798
0.0001700491438
0.0001811933814
0.0001913169799
0.0001999404181
0.0002093125052
0.0002187739106
0.0002311889174
0.0002429544872
0.0002542806892
0.0002694352461
0.0002847972532
0.0002950622747
0.0003135117843
0.000336814927
0.0003594987814
0.0003733778278
0.0003988234796
0.0004090489702
0.0004360675858
0.0004543466597
0.0003984271043
0.0003501851163
0.0003372567558
0.0003208515906
0.0002950192983
6.393883802e-05
)


100
(
-1.668877071e-06
-2.33213759e-06
-2.510551102e-06
-2.415187449e-06
-2.116028976e-06
-1.73231394e-06
-1.203666547e-06
-5.726195583e-07
2.448963203e-08
9.45987322e-07
1.814067712e-06
2.289308941e-06
3.310284937e-06
4.388142298e-06
4.685272817e-06
5.202255468e-06
6.282768556e-06
7.189942194e-06
7.397930671e-06
7.888503059e-06
9.029040079e-06