/*--------------------------------*- C++ -*----------------------------------*\
| =========                 |                                                 |
| \\      /  F ield         | OpenFOAM: The Open Source CFD Toolbox           |
|  \\    /   O peration     | Version:  2.3.1                                 |
|   \\  /    A nd           | Web:      www.OpenFOAM.org                      |
|    \\/     M anipulation  |                                                 |
\*---------------------------------------------------------------------------*/
FoamFile
{
    version     2.0;
    format      ascii;
    class       dictionary;
    location    "constant";
    object      GRPSI39;
}
// * * * * * * * * * * * * * * * * * * * * * * * * * * * * * * * * * * * * * //

GRPSI39_table
100
(

100
(
0.0001090826655
0.0001046547541
9.411729997e-05
8.38628406e-05
7.584722144e-05
6.771833581e-05
6.011374817e-05
5.369833345e-05
4.754883371e-05
4.299702427e-05
3.694790536e-05
3.144829693e-05
2.884469623e-05
2.370910194e-05
1.972774379e-05
1.845043874e-05
1.425344384e-05
1.055892478e-05
1.015195591e-05
7.426401061e-06
3.984261279e-06
3.04738433e-06
2.13167277e-06
-9.30238415e-07
-3.135332149e-06
-3.095600422e-06
-4.142821688e-06
-6.689313583e-06
-8.075774769e-06
-7.923556818e-06
-9.243917755e-06
-1.141869071e-05
-1.208634566e-05
-1.184229158e-05
-1.226861936e-05
-1.412342371e-05
-1.52484985e-05
-1.492686696e-05
-1.51642528e-05
-1.653714576e-05
-1.735721917e-05
-1.701668854e-05
-1.715296842e-05
-1.825176739e-05
-1.885080057e-05
-1.847097377e-05
-1.814717523e-05
-1.902436055e-05
-1.98365034e-05
-1.947119358e-05
-1.930914977e-05
-1.988509726e-05
-2.02939869e-05
-1.996279116e-05
-1.993746998e-05
-2.035634796e-05
-2.041458521e-05
-1.993608882e-05
-1.972580148e-05
-2.010277451e-05
-2.01552748e-05
-1.959651845e-05
-1.941224749e-05
-1.964650255e-05
-1.94770654e-05
-1.887186049e-05
-1.87656803e-05
-1.879437403e-05
-1.829233147e-05
-1.781413084e-05
-1.767310107e-05
-1.733745282e-05
-1.671263856e-05
-1.64157478e-05
-1.605050672e-05
-1.539220487e-05
-1.497642549e-05
-1.448027381e-05
-1.38204222e-05
-1.326732598e-05
-1.257791236e-05
-1.191470517e-05
-1.122735856e-05
-1.046532894e-05
-9.714312304e-06
-8.924543564e-06
-8.140923656e-06
-7.357194258e-06
-6.632569643e-06
-5.919774225e-06
-5.184354552e-06
-4.405452209e-06
-3.69364766e-06
-3.020784367e-06
-2.36186177e-06
-1.695315465e-06
-1.163252411e-06
-9.172620448e-07
-6.116552222e-07
-3.890437758e-07
)


100
(
9.866609581e-05
9.479046707e-05
8.548638115e-05
7.799616915e-05
7.283177223e-05
6.34836697e-05
5.803558926e-05
5.328548613e-05
4.70908269e-05
4.400783158e-05
3.748637649e-05
3.249717291e-05
2.937059968e-05
2.48331848e-05
2.168439697e-05
1.962719633e-05
1.607689237e-05
1.348615592e-05
1.210261563e-05
9.522462987e-06
7.316055479e-06
5.75063992e-06
4.144065328e-06
2.203796639e-06
4.215937105e-07
-9.59996293e-07
-2.17270568e-06
-3.314452658e-06
-4.667350396e-06
-5.899042165e-06
-6.89375423e-06
-7.829516181e-06
-9.031132724e-06
-1.010590377e-05
-1.05976312e-05
-1.092701152e-05
-1.168344513e-05
-1.27880636e-05
-1.346592137e-05
-1.367549608e-05
-1.402788607e-05
-1.488535352e-05
-1.553893975e-05
-1.565392716e-05
-1.578795867e-05
-1.647741902e-05
-1.708437969e-05
-1.704261304e-05
-1.686881993e-05
-1.708604351e-05
-1.778895888e-05
-1.804535731e-05
-1.78641303e-05
-1.793739964e-05
-1.844512772e-05
-1.869529751e-05
-1.838409201e-05
-1.765614544e-05
-1.518967681e-05
-1.047046124e-05
-1.306256586e-05
-2.24229661e-05
-2.127866401e-05
-1.225983705e-05
-1.315107673e-05
-2.147731809e-05
-1.844655439e-05
-1.067144661e-05
-1.502270986e-05
-2.03784564e-05
-1.433246402e-05
-1.067290455e-05
-1.799327728e-05
-1.41225701e-05
-6.965739904e-06
-1.646617926e-05
-1.544093034e-05
-7.402411608e-06
-1.562148207e-05
-1.283157151e-05
-8.219312914e-06
-1.328864525e-05
-6.108146184e-06
-1.103586473e-05
-1.110026333e-05
-5.496544537e-06
-9.26230132e-06
-4.391076254e-06
-4.885909745e-06
-4.42201818e-06
-1.888121378e-06
-7.20641143e-07
-9.523507855e-08
7.561701973e-07
5.843008491e-07
-1.108109976e-06
-4.143695068e-06
-3.363443764e-05
-5.378993257e-05
-4.864736669e-05
)


100
(
8.846568856e-05
8.556337078e-05
7.819651964e-05
7.450231518e-05
7.036563661e-05
6.258072697e-05
5.703636944e-05
5.265559531e-05
4.767523933e-05
4.398065667e-05
3.986213643e-05
3.454579395e-05
3.127338378e-05
2.733116692e-05
2.384576952e-05
2.160127507e-05
1.898179742e-05
1.612337562e-05
1.410071291e-05
1.21367185e-05
9.927334924e-06
8.101198937e-06
6.363136392e-06
4.625644749e-06
3.032110853e-06
1.44638263e-06
-1.537988876e-07
-1.418646977e-06
-2.353352519e-06
-3.441389596e-06
-4.860282465e-06
-6.007058526e-06
-6.731890011e-06
-7.575354048e-06
-8.76303649e-06
-9.715706775e-06
-1.012363364e-05
-1.03211602e-05
-1.095104581e-05
-1.202982074e-05
-1.260213232e-05
-1.266770498e-05
-1.268516124e-05
-1.355867597e-05
-1.45523504e-05
-1.474201432e-05
-1.466489139e-05
-1.493981097e-05
-1.576515078e-05
-1.61072135e-05
-1.549471012e-05
-1.407674374e-05
-1.438227821e-05
-1.557634688e-05
-1.532724151e-05
-1.35065975e-05
-1.41361e-05
-1.599946574e-05
-1.457091479e-05
-8.838747569e-06
-3.867173096e-06
-7.237221459e-06
-1.511974772e-05
-1.912831771e-05
-1.477703991e-05
-1.123843325e-05
-1.356168581e-05
-1.590163461e-05
-1.446648954e-05
-1.314871742e-05
-1.462759454e-05
-1.440931119e-05
-1.318823045e-05
-1.179489735e-05
-7.786244222e-06
-3.521323122e-06
-7.882506843e-06
-1.366400634e-05
-8.660728117e-06
-7.501254705e-06
-9.603366967e-06
-5.430028993e-06
-3.496043192e-06
-4.357866957e-06
-3.203874075e-06
-1.555446866e-06
-1.266910184e-06
8.34046803e-08
1.492181511e-06
2.363136065e-06
3.187738835e-06
4.751331159e-06
6.062783477e-06
6.56105497e-06
7.115714786e-06
6.099672198e-06
-2.506536982e-05
-7.912873261e-05
-9.545287055e-05
-8.781121036e-05
)


100
(
7.955263525e-05
7.719818535e-05
7.359141138e-05
7.121059462e-05
6.648518192e-05
6.192660725e-05
5.696847016e-05
5.276465679e-05
4.943681833e-05
4.490462789e-05
4.142234843e-05
3.672263309e-05
3.290799859e-05
2.977978384e-05
2.607141515e-05
2.321627678e-05
2.087231446e-05
1.840237922e-05
1.59976985e-05
1.389905814e-05
1.193496429e-05
1.004205525e-05
8.329334715e-06
6.520313157e-06
4.811048691e-06
3.408827945e-06
2.083409251e-06
5.260812783e-07
-8.956993672e-07
-1.848263957e-06
-2.598842638e-06
-3.74924574e-06
-5.036768611e-06
-5.838584868e-06
-6.352167299e-06
-7.044318248e-06
-8.236743158e-06
-9.24562745e-06
-9.491276826e-06
-9.165852815e-06
-9.209533385e-06
-1.019730485e-05
-1.071662468e-05
-1.022532412e-05
-9.062299878e-06
-1.011364223e-05
-1.198949954e-05
-1.168880178e-05
-9.449843114e-06
-1.028271859e-05
-1.301684346e-05
-1.260876324e-05
-1.015092815e-05
-1.042057985e-05
-1.358949738e-05
-1.358208657e-05
-9.778148043e-06
-9.660914172e-06
-1.384527707e-05
-1.29328341e-05
-8.141722285e-06
-6.084080959e-06
-8.406816556e-06
-1.195907407e-05
-1.448723188e-05
-1.383753926e-05
-1.201623123e-05
-1.151714145e-05
-1.052940893e-05
-1.01892176e-05
-1.026686315e-05
-9.427475303e-06
-8.180088757e-06
-5.64473753e-06
-5.939374289e-06
-1.031974803e-05
-6.092097471e-06
9.220891452e-07
-4.991444636e-06
-6.911484107e-06
-6.60911817e-07
1.468724212e-07
-9.618863159e-07
6.968263603e-07
2.394256345e-06
2.133735927e-06
2.064444018e-06
3.115730263e-06
4.225748558e-06
5.885957762e-06
7.883548219e-06
7.89412849e-06
1.104324171e-05
1.428498572e-05
1.421861308e-05
1.332563333e-05
-4.577317954e-05
-0.0001125552123
-0.0001159350889
-0.0001103224436
)


100
(
7.375190302e-05
7.125412286e-05
6.796885408e-05
6.672435352e-05
6.482222325e-05
6.118488855e-05
5.686712097e-05
5.288444306e-05
4.976202133e-05
4.593852484e-05
4.231005391e-05
3.891238673e-05
3.447792374e-05
3.107448454e-05
2.807770596e-05
2.479233997e-05
2.213717691e-05
1.99300916e-05
1.77334593e-05
1.553325082e-05
1.354637706e-05
1.177239288e-05
1.006713604e-05
8.440950116e-06
6.702451335e-06
5.055706397e-06
3.813792863e-06
2.878523569e-06
1.658369153e-06
1.290472557e-07
-1.056573091e-06
-1.615297578e-06
-1.850807227e-06
-2.982339841e-06
-4.260259922e-06
-4.404581688e-06
-3.659992664e-06
-4.6686452e-06
-6.729697244e-06
-6.936064338e-06
-6.049372662e-06
-5.206637156e-06
-6.993723027e-06
-8.851694941e-06
-7.578691134e-06
-4.479291744e-06
-6.587329258e-06
-1.054495732e-05
-8.928106934e-06
-5.583761204e-06
-7.147171197e-06
-1.098772516e-05
-9.848220226e-06
-7.08581761e-06
-8.285029326e-06
-1.160834808e-05
-9.798390035e-06
-6.728091727e-06
-7.72516143e-06
-1.004291449e-05
-1.010155573e-05
-8.608612184e-06
-8.788663309e-06
-1.03060734e-05
-1.102862998e-05
-1.022132595e-05
-7.697630499e-06
-7.187736041e-06
-8.450211004e-06
-7.465273226e-06
-5.618842254e-06
-5.2121792e-06
-9.301485448e-06
-1.33216914e-05
-5.76676782e-06
2.913660674e-06
-1.811610475e-06
-5.118797244e-06
-3.123995392e-07
2.97639138e-06
2.258443751e-06
-2.134255782e-06
-3.356430565e-06
1.425741608e-06
3.602250979e-06
5.785942078e-06
7.293370845e-06
4.191779865e-06
-3.378484339e-07
5.089246616e-06
1.593692747e-05
1.204433839e-05
1.319163218e-05
1.985019671e-05
1.999099162e-05
1.563341774e-05
-5.895126225e-05
-0.0001256400541
-0.0001192672494
-0.000115337866
)


100
(
6.805568829e-05
6.569857445e-05
6.307213717e-05
6.294988155e-05
6.294754368e-05
6.012245409e-05
5.646267134e-05
5.303643388e-05
4.981348134e-05
4.703292042e-05
4.292301757e-05
3.959751439e-05
3.623327215e-05
3.225633841e-05
2.919785112e-05
2.646144745e-05
2.350273862e-05
2.110232511e-05
1.917597014e-05
1.723188323e-05
1.529058342e-05
1.356504879e-05
1.200874991e-05
1.043456244e-05
8.900023001e-06
7.294776199e-06
5.71576104e-06
4.716752971e-06
4.355061141e-06
3.884683201e-06
2.328013929e-06
7.28901263e-07
4.486176766e-07
1.120660925e-06
-3.351255007e-07
-2.61523714e-06
-2.579048653e-06
-1.541146488e-07
-1.244846166e-06
-4.912279187e-06
-5.040397173e-06
-2.732636794e-06
-2.012333378e-06
-5.398231101e-06
-7.282468547e-06
-3.843120632e-06
-4.568499937e-07
-4.783860105e-06
-8.585158682e-06
-5.53903319e-06
-3.02159973e-06
-5.411162176e-06
-8.088119823e-06
-7.035170693e-06
-5.62291971e-06
-6.539934246e-06
-7.730083147e-06
-8.77272114e-06
-9.67668975e-06
-8.621174311e-06
-7.673100085e-06
-8.816175786e-06
-9.658762548e-06
-7.840973508e-06
-5.363506581e-06
-5.565285719e-06
-7.19769977e-06
-6.055277786e-06
-3.973929436e-06
-3.577678872e-06
-5.974565505e-06
-8.77392184e-06
-8.809662306e-06
-5.708378701e-06
-6.528440316e-06
-4.615503574e-06
1.678405169e-06
2.222997117e-06
-2.073047235e-06
-7.414832481e-06
-5.48139455e-06
3.315212532e-06
5.048334653e-06
1.800682468e-06
6.796855285e-07
2.705974956e-06
5.254797499e-06
-1.030883376e-06
1.222264118e-06
1.15034555e-05
9.990009744e-06
1.032667883e-05
1.647832388e-05
1.933465758e-05
2.379839053e-05
7.025455181e-06
-6.027553856e-05
-0.0001080936345
-0.0001075252119
-0.0001065520039
)


100
(
6.142691423e-05
5.988270387e-05
5.856985105e-05
6.020879089e-05
6.081254129e-05
5.854742158e-05
5.566535703e-05
5.275405668e-05
4.944626663e-05
4.689456099e-05
4.389254101e-05
4.002839559e-05
3.706393537e-05
3.372640407e-05
3.021655876e-05
2.758038503e-05
2.515814974e-05
2.259985352e-05
2.056117948e-05
1.895029982e-05
1.728243247e-05
1.570226025e-05
1.440320548e-05
1.304917002e-05
1.150519821e-05
1.000009167e-05
8.289687978e-06
6.566005527e-06
5.838173445e-06
6.208043613e-06
6.308282309e-06
4.282240036e-06
2.239267411e-06
2.729868703e-06
3.857214954e-06
1.625316061e-06
-1.182821437e-06
1.942548377e-07
2.95822178e-06
7.251206478e-07
-3.232460811e-06
-2.455903191e-06
2.098748346e-07
-1.522851701e-07
-4.040714926e-06
-3.765417819e-06
-4.60418941e-07
3.447201035e-07
-3.301622101e-06
-5.098490861e-06
-3.105749105e-06
-3.144487465e-06
-4.931902889e-06
-7.779565607e-06
-9.128831735e-06
-8.89497747e-06
-7.637403024e-06
-6.748982425e-06
-7.848900162e-06
-8.72728427e-06
-7.180017045e-06
-4.698593706e-06
-3.621382268e-06
-5.412445852e-06
-6.171296068e-06
-4.967766874e-06
-6.322001514e-06
-7.74626786e-06
-8.421434874e-06
-9.27274236e-06
-7.719211089e-06
-3.861572329e-06
-2.886267397e-06
-3.866004053e-06
-2.706014907e-06
-5.410680526e-06
-8.073323747e-06
-8.546474301e-06
-6.600027603e-06
4.520909271e-07
2.176815979e-06
-1.717435804e-06
-4.761248445e-06
-3.044571496e-06
1.168521536e-06
1.084350293e-06
-1.494348057e-06
-5.84380381e-06
-2.995597443e-06
8.513659172e-06
1.087563055e-05
9.40248982e-06
1.243868779e-05
1.665175385e-05
2.562114224e-05
4.091510049e-06
-5.036122233e-05
-7.843001664e-05
-8.356679852e-05
-8.737773946e-05
)


100
(
5.430794964e-05
5.403355907e-05
5.480949888e-05
5.733141221e-05
5.804836777e-05
5.68583287e-05
5.441000326e-05
5.189843463e-05
4.949492343e-05
4.643631172e-05
4.404255259e-05
4.065868449e-05
3.740218296e-05
3.484102675e-05
3.165371535e-05
2.864814506e-05
2.646572709e-05
2.443871892e-05
2.240774469e-05
2.082974391e-05
1.948066133e-05
1.803794698e-05
1.682182763e-05
1.597459481e-05
1.458111516e-05
1.265557244e-05
1.080899209e-05
8.7047515e-06
7.032513935e-06
6.921646652e-06
8.497856755e-06
8.484136525e-06
5.470509263e-06
3.608084761e-06
5.242491632e-06
6.214613042e-06
2.90566332e-06
5.83750686e-07
3.124073583e-06
5.406028263e-06
2.323739448e-06
-1.056796865e-06
3.719366431e-07
2.301014361e-06
7.954147378e-07
-1.576787035e-06
-1.3138597e-06
-5.702080977e-07
-1.750829604e-06
-4.246076498e-06
-6.514902812e-06
-7.398505902e-06
-7.217589659e-06
-5.966903639e-06
-4.765448057e-06
-6.159038324e-06
-7.682895375e-06
-6.408026658e-06
-4.490809656e-06
-4.048222001e-06
-5.643383816e-06
-6.050812191e-06
-5.472525619e-06
-7.90532859e-06
-1.02064246e-05
-9.682017507e-06
-9.985939261e-06
-1.046957934e-05
-6.766377926e-06
-2.996632149e-06
-3.934576482e-06
-4.784510958e-06
-6.561307292e-06
-1.052427516e-05
-1.05742359e-05
-1.038416409e-05
-7.861116036e-06
-2.079566366e-06
-1.361794203e-06
-6.008164435e-06
-9.728510155e-06
-8.384636109e-06
-5.221514756e-06
-4.360569057e-06
-5.004220458e-06
-5.903265304e-06
-5.303098007e-06
-4.931879955e-06
-2.782798417e-06
2.07252453e-06
3.188170537e-06
3.33961776e-06
7.401285902e-06
1.472477878e-05
2.447472943e-05
4.643736138e-06
-3.317200023e-05
-4.892178266e-05
-5.531101653e-05
-5.809383219e-05
)


100
(
4.835967236e-05
4.90065712e-05
5.117054649e-05
5.405335141e-05
5.536371131e-05
5.480322201e-05
5.30247072e-05
5.068748131e-05
4.87551535e-05
4.597541381e-05
4.356048972e-05
4.144097818e-05
3.788807707e-05
3.522921714e-05
3.308830392e-05
3.023899788e-05
2.772687326e-05
2.599537243e-05
2.447591449e-05
2.296164835e-05
2.175958504e-05
2.042078218e-05
1.889604356e-05
1.780427965e-05
1.720590234e-05
1.596275124e-05
1.375517535e-05
1.135272911e-05
8.89334531e-06
7.492443149e-06
8.411307833e-06
1.077796296e-05
1.018938075e-05
6.619375179e-06
5.729599821e-06
7.703910391e-06
7.741510108e-06
4.118614199e-06
3.261516149e-06
5.670345269e-06
6.223400498e-06
3.331778806e-06
1.14208916e-06
1.776435498e-06
1.489098701e-06
-4.765362542e-07
-3.308094148e-06
-5.08227987e-06
-5.652065435e-06
-5.476160788e-06
-4.552488109e-06
-4.407498186e-06
-5.807151386e-06
-6.563348485e-06
-5.051004166e-06
-3.208983437e-06
-3.106733945e-06
-4.641746176e-06
-5.518944351e-06
-5.718011147e-06
-8.281512409e-06
-1.088811404e-05
-1.125131719e-05
-1.188896278e-05
-1.238505461e-05
-9.773825192e-06
-6.246845113e-06
-5.923371469e-06
-6.82212748e-06
-7.173190313e-06
-1.078715473e-05
-1.348898905e-05
-1.31080391e-05
-1.348175078e-05
-9.737337489e-06
-5.162422115e-06
-5.805974109e-06
-9.662765131e-06
-1.264046529e-05
-1.2261308e-05
-1.005204647e-05
-8.577871383e-06
-9.739841511e-06
-1.101322662e-05
-1.121878857e-05
-8.614309857e-06
-7.51491399e-06
-6.870837606e-06
-3.875882721e-06
-2.467564366e-06
-1.621637511e-06
1.607714974e-06
6.617360318e-06
1.290075579e-05
2.166675217e-05
4.45797385e-06
-2.056256234e-05
-2.654126671e-05
-3.148588304e-05
-3.38879024e-05
)


100
(
4.390646377e-05
4.470903903e-05
4.719952239e-05
5.04536367e-05
5.270066402e-05
5.242340311e-05
5.118414815e-05
4.935401155e-05
4.762353176e-05
4.599039802e-05
4.286027276e-05
4.099715817e-05
3.912176958e-05
3.577663007e-05
3.365722924e-05
3.192911183e-05
2.954732809e-05
2.76599458e-05
2.620992427e-05
2.475282175e-05
2.353672464e-05
2.260603706e-05
2.125352107e-05
1.958445873e-05
1.846073918e-05
1.804431898e-05
1.719295963e-05
1.491156999e-05
1.199182109e-05
9.347833252e-06
8.300510472e-06
1.045216446e-05
1.289324766e-05
1.132481499e-05
7.922123393e-06
8.053691778e-06
9.696440053e-06
8.554832307e-06
5.705381473e-06
4.930462497e-06
5.562210463e-06
4.551902313e-06
1.744855252e-06
-1.18110623e-06
-2.548975462e-06
-3.037717743e-06
-3.074993168e-06
-3.21111879e-06
-4.283374519e-06
-5.456896709e-06
-5.21171461e-06
-3.699839153e-06
-2.63035958e-06
-3.277093045e-06
-4.806175204e-06
-5.217833351e-06
-5.513124946e-06
-8.0508843e-06
-1.091283583e-05
-1.185499481e-05
-1.236724549e-05
-1.283176462e-05
-1.11822505e-05
-8.853240722e-06
-8.895593777e-06
-9.7396057e-06
-9.011187097e-06
-1.017804332e-05
-1.386622872e-05
-1.562861561e-05
-1.624520505e-05
-1.558764846e-05
-1.208917663e-05
-9.90201046e-06
-1.035790971e-05
-1.261719551e-05
-1.498517818e-05
-1.492534787e-05
-1.361396249e-05
-1.281482141e-05
-1.312147705e-05
-1.355179924e-05
-1.374621863e-05
-1.254746835e-05
-1.095241583e-05
-1.029499088e-05
-9.812291451e-06
-8.269356986e-06
-6.145542143e-06
-4.993587756e-06
-2.271521848e-06
8.169855012e-07
5.941307385e-06
1.381365922e-05
1.771810541e-05
3.568147517e-06
-1.186766495e-05
-1.368847786e-05
-1.479704009e-05
-1.505533877e-05
)


100
(
3.989295443e-05
4.0802089e-05
4.347116817e-05
4.723245396e-05
4.982658661e-05
4.988147183e-05
4.906049894e-05
4.800216402e-05
4.622063835e-05
4.495311051e-05
4.312205029e-05
4.040175044e-05
3.890499355e-05
3.716243298e-05
3.440717354e-05
3.271340866e-05
3.129015009e-05
2.941083651e-05
2.785313626e-05
2.642008245e-05
2.499965797e-05
2.392211418e-05
2.319433595e-05
2.195239583e-05
2.022559026e-05
1.901087505e-05
1.872423336e-05
1.825941118e-05
1.620994223e-05
1.301871783e-05
1.007170537e-05
9.963399201e-06
1.26799626e-05
1.415446641e-05
1.207451846e-05
9.535825223e-06
9.296897246e-06
9.128007831e-06
7.329934973e-06
4.428132107e-06
1.95917998e-06
5.450454468e-07
-2.527122467e-07
-9.31593475e-07
-1.842901483e-06
-2.950422827e-06
-3.514087501e-06
-2.897191261e-06
-1.986089726e-06
-2.193668917e-06
-3.554967381e-06
-4.488249372e-06
-4.405060672e-06
-4.72177333e-06
-6.708866278e-06
-1.000348761e-05
-1.236466176e-05
-1.373286301e-05
-1.437588519e-05
-1.301331269e-05
-1.120271916e-05
-1.096841704e-05
-1.116646256e-05
-1.025070795e-05
-1.020008848e-05
-1.353205288e-05
-1.697105663e-05
-1.803640038e-05
-1.80943651e-05
-1.649604491e-05
-1.498769288e-05
-1.480064763e-05
-1.425169075e-05
-1.512873831e-05
-1.698097391e-05
-1.696315675e-05
-1.625146017e-05
-1.596191374e-05
-1.568555656e-05
-1.525608469e-05
-1.498907316e-05
-1.452327409e-05
-1.362318521e-05
-1.227631019e-05
-1.171340368e-05
-1.110211485e-05
-9.336038929e-06
-7.781380471e-06
-6.575381558e-06
-4.812824134e-06
-2.485988336e-06
8.07679844e-07
6.617057561e-06
1.158173674e-05
1.317802798e-05
3.791258348e-06
-5.802051742e-06
-6.59279082e-06
-5.452116906e-06
-3.548130501e-06
)


100
(
3.565170238e-05
3.688092992e-05
3.994057745e-05
4.408264565e-05
4.675038886e-05
4.731551474e-05
4.666617656e-05
4.608205816e-05
4.527832874e-05
4.369284217e-05
4.254149099e-05
4.050128398e-05
3.843449565e-05
3.736608611e-05
3.584752708e-05
3.350730234e-05
3.205058657e-05
3.090326551e-05
2.938721614e-05
2.799277811e-05
2.657550947e-05
2.519797815e-05
2.418555969e-05
2.363847326e-05
2.259027926e-05
2.089822531e-05
1.958298934e-05
1.923724049e-05
1.887178727e-05
1.718103433e-05
1.43320572e-05
1.157123908e-05
1.175789283e-05
1.380568876e-05
1.375571772e-05
1.136055828e-05
8.598731132e-06
6.554262536e-06
4.824119341e-06
3.183002108e-06
1.468953665e-06
-9.573374759e-08
-1.244569276e-06
-1.480492951e-06
-1.021040705e-06
-9.904576283e-07
-1.796468552e-06
-2.618081448e-06
-2.68593207e-06
-2.537243902e-06
-3.328326886e-06
-5.560830747e-06
-8.767160017e-06
-1.16334425e-05
-1.348480904e-05
-1.400977167e-05
-1.369475746e-05
-1.367218884e-05
-1.369530631e-05
-1.339584232e-05
-1.236018414e-05
-1.167201845e-05
-1.318869038e-05
-1.605971172e-05
-1.794522053e-05
-1.86942681e-05
-1.899384597e-05
-1.913045187e-05
-1.841017681e-05
-1.698330712e-05
-1.636383425e-05
-1.738501042e-05
-1.847114533e-05
-1.847407158e-05
-1.871444717e-05
-1.861263214e-05
-1.738494484e-05
-1.604789035e-05
-1.551803944e-05
-1.542142181e-05
-1.518113753e-05
-1.418549161e-05
-1.280985524e-05
-1.138400817e-05
-1.082492866e-05
-9.907588724e-06
-8.821386783e-06
-7.624433157e-06
-5.791726425e-06
-4.644908727e-06
-2.250384516e-06
1.367167563e-06
5.791255528e-06
1.011853424e-05
1.047247659e-05
3.645145994e-06
-1.956650255e-06
-1.987552054e-06
1.309262554e-06
4.519714431e-06
)


100
(
3.106209987e-05
3.289668885e-05
3.685833152e-05
4.091501149e-05
4.348713617e-05
4.45718718e-05
4.452215445e-05
4.390976724e-05
4.36923152e-05
4.25164037e-05
4.14025337e-05
4.049365902e-05
3.845383236e-05
3.692589569e-05
3.614993369e-05
3.482836513e-05
3.280748506e-05
3.150645342e-05
3.058391144e-05
2.933888684e-05
2.810050268e-05
2.671114017e-05
2.537240255e-05
2.443330633e-05
2.398214505e-05
2.311174163e-05
2.15628393e-05
2.018206939e-05
1.955056871e-05
1.904650029e-05
1.763251188e-05
1.508326662e-05
1.28632636e-05
1.205606099e-05
1.136487605e-05
9.766569833e-06
7.431850522e-06
5.374540134e-06
3.762624104e-06
2.470972103e-06
1.752138084e-06
9.670907173e-07
8.459779458e-08
-7.554485386e-07
-1.188110951e-06
-9.840153365e-07
-1.053665075e-06
-2.28536847e-06
-4.14109755e-06
-6.145260641e-06
-8.807655514e-06
-1.136632278e-05
-1.301763961e-05
-1.476913535e-05
-1.515029614e-05
-1.466789069e-05
-1.452519937e-05
-1.360602001e-05
-1.334906598e-05
-1.452822177e-05
-1.556585614e-05
-1.680657753e-05
-1.847354654e-05
-1.996793162e-05
-2.165093133e-05
-2.078985719e-05
-1.920374295e-05
-1.890581051e-05
-1.874723266e-05
-1.908187616e-05
-1.909370346e-05
-1.911389371e-05
-1.94365553e-05
-1.925142931e-05
-1.833480406e-05
-1.748081471e-05
-1.679144039e-05
-1.624473341e-05
-1.610456422e-05
-1.547835994e-05
-1.345036833e-05
-1.155330015e-05
-1.122689029e-05
-1.12219316e-05
-1.018562354e-05
-8.467488629e-06
-7.57019228e-06
-6.599352885e-06
-5.078010031e-06
-3.768180699e-06
-2.071737144e-06
8.454693646e-07
5.079261017e-06
9.667300242e-06
8.772308536e-06
3.158936547e-06
3.232835536e-07
5.103890402e-07
5.454805228e-06
9.823196691e-06
)


100
(
2.737622803e-05
2.953484824e-05
3.371378349e-05
3.755465599e-05
4.047493226e-05
4.166792626e-05
4.205120961e-05
4.172417941e-05
4.169555353e-05
4.165892698e-05
4.007893977e-05
3.944504273e-05
3.877441263e-05
3.679380721e-05
3.564989014e-05
3.509623406e-05
3.395151269e-05
3.220387477e-05
3.102649626e-05
3.031135477e-05
2.92753923e-05
2.816188399e-05
2.685442127e-05
2.557027034e-05
2.464356198e-05
2.412470508e-05
2.335866777e-05
2.192393742e-05
2.040547341e-05
1.923669687e-05
1.808254864e-05
1.630117972e-05
1.368466517e-05
1.132217661e-05
9.636359179e-06
8.049088561e-06
6.635731978e-06
5.121773388e-06
3.760195766e-06
2.960269588e-06
2.263530265e-06
1.693445465e-06
1.294275792e-06
3.987470675e-07
-7.456825355e-07
-1.847680907e-06
-3.320504111e-06
-5.389529848e-06
-8.208374381e-06
-1.159568681e-05
-1.357021436e-05
-1.414538836e-05
-1.473801889e-05
-1.506070146e-05
-1.521595213e-05
-1.587238356e-05
-1.531106465e-05
-1.486487253e-05
-1.603404613e-05
-1.719580548e-05
-1.965107504e-05
-2.178864234e-05
-2.127404609e-05
-2.057483928e-05
-2.140121052e-05
-2.194578881e-05
-2.103007365e-05
-1.964342326e-05
-1.91299082e-05
-1.931978381e-05
-1.96361762e-05
-1.955222035e-05
-1.910559787e-05
-1.837622922e-05
-1.745080896e-05
-1.685660853e-05
-1.603080909e-05
-1.516861037e-05
-1.450679532e-05
-1.299956994e-05
-1.158033327e-05
-1.152332905e-05
-1.137874435e-05
-9.382240853e-06
-7.582776657e-06
-7.898127805e-06
-7.492056412e-06
-5.431332854e-06
-3.995783984e-06
-3.011222352e-06
-1.46529108e-06
1.379410903e-06
5.172580942e-06
7.907060518e-06
6.50310018e-06
3.41398393e-06
1.630357116e-06
1.387422536e-06
9.718650793e-06
1.734025686e-05
)


100
(
2.446278738e-05
2.656555576e-05
3.062043586e-05
3.440367549e-05
3.742081959e-05
3.87850778e-05
3.942639296e-05
3.978254615e-05
3.946010291e-05
3.977583502e-05
3.958379657e-05
3.818575783e-05
3.770579966e-05
3.709085109e-05
3.541232299e-05
3.45030867e-05
3.412848874e-05
3.316095833e-05
3.171986211e-05
3.065820142e-05
3.00503112e-05
2.918914511e-05
2.818673029e-05
2.692679527e-05
2.569489241e-05
2.472520235e-05
2.387927741e-05
2.292892223e-05
2.128248565e-05
1.935124292e-05
1.752927989e-05
1.561184837e-05
1.352185537e-05
1.117680223e-05
8.853713705e-06
7.531632933e-06
6.561471515e-06
5.475062123e-06
4.610193397e-06
3.534200604e-06
2.727050914e-06
2.237258776e-06
1.327312592e-06
1.309677332e-07
-1.492757106e-06
-4.328531251e-06
-7.434363582e-06
-9.899405473e-06
-1.220240295e-05
-1.384439123e-05
-1.522705262e-05
-1.679416451e-05
-1.595007685e-05
-1.469424434e-05
-1.554130836e-05
-1.622303284e-05
-1.714898494e-05
-1.922439158e-05
-1.950887452e-05
-1.933326826e-05
-2.042030638e-05
-2.262980459e-05
-2.47843809e-05
-2.240377555e-05
-2.045912934e-05
-2.083904923e-05
-2.035120334e-05
-2.01258333e-05
-1.991488991e-05
-1.994252713e-05
-2.001713963e-05
-1.915184391e-05
-1.73294284e-05
-1.580469736e-05
-1.504315333e-05
-1.496215172e-05
-1.509750576e-05
-1.446157762e-05
-1.323092455e-05
-1.21248972e-05
-1.078444054e-05
-9.958823676e-06
-9.125483717e-06
-8.133092196e-06
-8.1784433e-06
-7.347180673e-06
-5.628952596e-06
-4.333662056e-06
-3.646423463e-06
-2.798781918e-06
-9.657346553e-07
1.536552264e-06
4.119111259e-06
6.120596753e-06
5.935573026e-06
4.456203759e-06
2.567319704e-06
1.946127198e-06
1.095884896e-05
1.920100607e-05
)


100
(
2.200301688e-05
2.395507866e-05
2.773325987e-05
3.151263398e-05
3.43714354e-05
3.596112146e-05
3.666083632e-05
3.736141436e-05
3.777323538e-05
3.767669584e-05
3.803397986e-05
3.755108167e-05
3.643300486e-05
3.613878958e-05
3.564772666e-05
3.42357098e-05
3.345058271e-05
3.323948732e-05
3.251423831e-05
3.137377997e-05
3.03267359e-05
2.973949395e-05
2.904468757e-05
2.804410168e-05
2.686193476e-05
2.544534192e-05
2.414826921e-05
2.280953206e-05
2.121464088e-05
1.921197718e-05
1.666794153e-05
1.475425436e-05
1.314190621e-05
1.121553238e-05
9.549576669e-06
7.675389287e-06
6.541545365e-06
6.112855265e-06
5.292350681e-06
4.287362423e-06
3.238854249e-06
1.608848192e-06
-3.767265188e-09
-1.868723361e-06
-4.61010291e-06
-7.474110212e-06
-1.029374482e-05
-1.414851758e-05
-1.539230226e-05
-1.465728389e-05
-1.535543011e-05
-1.611248957e-05
-1.686718147e-05
-1.752036996e-05
-1.714865114e-05
-1.722822039e-05
-1.863807569e-05
-1.961913148e-05
-2.26490392e-05
-2.375552218e-05
-2.130146907e-05
-2.158957586e-05
-2.317509737e-05
-2.314354817e-05
-2.210102222e-05
-2.049230168e-05
-1.936330405e-05
-1.917956388e-05
-1.9298628e-05
-1.894181886e-05
-1.803560601e-05
-1.701329424e-05
-1.580850855e-05
-1.499181319e-05
-1.482647931e-05
-1.453775804e-05
-1.33326216e-05
-1.189231471e-05
-1.093691989e-05
-1.058603829e-05
-1.030624309e-05
-9.31235358e-06
-8.210195136e-06
-7.23263744e-06
-6.779510425e-06
-6.163200189e-06
-5.023146434e-06
-4.079049039e-06
-3.309951879e-06
-2.581674965e-06
-1.224225483e-06
8.266875468e-07
3.322145813e-06
5.755968128e-06
5.863182298e-06
5.092750074e-06
3.580025801e-06
2.495300968e-06
1.17733484e-05
2.047170489e-05
)


100
(
1.933307313e-05
2.134797426e-05
2.514545234e-05
2.872616741e-05
3.135200881e-05
3.311878345e-05
3.419321318e-05
3.477775281e-05
3.564884148e-05
3.580729632e-05
3.598283909e-05
3.635687566e-05
3.569370074e-05
3.48360953e-05
3.473169835e-05
3.438464473e-05
3.323755845e-05
3.249441777e-05
3.243354907e-05
3.200821595e-05
3.108789524e-05
2.991470707e-05
2.930422217e-05
2.873100055e-05
2.750719673e-05
2.615444197e-05
2.415680864e-05
2.235231775e-05
2.072998542e-05
1.86868988e-05
1.660016742e-05
1.414845551e-05
1.225172288e-05
1.137973329e-05
1.03130216e-05
8.880752766e-06
7.457406288e-06
5.963757664e-06
5.198778684e-06
4.531997335e-06
2.749493662e-06
5.416343915e-07
-2.178770553e-06
-5.918476838e-06
-8.886133294e-06
-1.047809255e-05
-1.218717768e-05
-1.400133586e-05
-1.614869384e-05
-1.806354906e-05
-1.671267802e-05
-1.557895968e-05
-1.702822527e-05
-1.802566629e-05
-1.870360666e-05
-2.071762018e-05
-2.107808373e-05
-2.018171939e-05
-2.175577713e-05
-2.388274372e-05
-2.490288153e-05
-2.22107596e-05
-2.049745762e-05
-2.087388294e-05
-1.99578242e-05
-1.954647292e-05
-1.934234567e-05
-1.921302002e-05
-1.887090627e-05
-1.798626674e-05
-1.692494955e-05
-1.514506571e-05
-1.364972094e-05
-1.337538032e-05
-1.317011244e-05
-1.254317133e-05
-1.147198046e-05
-1.093437065e-05
-1.088591166e-05
-9.937095315e-06
-8.461329061e-06
-7.222472336e-06
-7.144401904e-06
-7.32821226e-06
-6.390138726e-06
-5.122905032e-06
-4.153943495e-06
-3.605320396e-06
-3.132468438e-06
-2.291645736e-06
-7.897848034e-07
8.15978147e-07
2.684190465e-06
4.906562122e-06
5.506455802e-06
5.26233468e-06
4.369300881e-06
3.530308971e-06
1.368963641e-05
2.35829553e-05
)


100
(
1.668753137e-05
1.886380799e-05
2.275487182e-05
2.604574159e-05
2.863699854e-05
3.027196795e-05
3.154096807e-05
3.224361289e-05
3.321495824e-05
3.417441895e-05
3.385644317e-05
3.43074168e-05
3.485554727e-05
3.403017854e-05
3.33574719e-05
3.344999344e-05
3.326190081e-05
3.23971563e-05
3.16394168e-05
3.168481227e-05
3.15439935e-05
3.066912728e-05
2.955260134e-05
2.84900834e-05
2.757850368e-05
2.616794497e-05
2.427770014e-05
2.209146087e-05
1.968472952e-05
1.792943991e-05
1.644836936e-05
1.469902635e-05
1.286130725e-05
1.077356608e-05
1.020967919e-05
9.990675802e-06
8.382279344e-06
6.737094981e-06
5.072373982e-06
2.551763064e-06
4.346495294e-07
-1.649945992e-06
-4.704687429e-06
-7.626386342e-06
-1.113150492e-05
-1.529691542e-05
-1.508825769e-05
-1.351555834e-05
-1.534485608e-05
-1.712266358e-05
-1.827465058e-05
-1.91386239e-05
-1.840994213e-05
-1.777483358e-05
-1.870491254e-05
-2.067355762e-05
-2.406556392e-05
-2.355761363e-05
-2.068502648e-05
-2.191537957e-05
-2.307503515e-05
-2.20764744e-05
-2.088631522e-05
-1.98026254e-05
-1.882063159e-05
-1.821409164e-05