/*--------------------------------*- C++ -*----------------------------------*\
| =========                 |                                                 |
| \\      /  F ield         | OpenFOAM: The Open Source CFD Toolbox           |
|  \\    /   O peration     | Version:  2.3.1                                 |
|   \\  /    A nd           | Web:      www.OpenFOAM.org                      |
|    \\/     M anipulation  |                                                 |
\*---------------------------------------------------------------------------*/
FoamFile
{
    version     2.0;
    format      ascii;
    class       dictionary;
    location    "constant";
    object      GRPSI14;
}
// * * * * * * * * * * * * * * * * * * * * * * * * * * * * * * * * * * * * * //

GRPSI14_table
100
(

100
(
-0.001044827825
-0.001153934054
-0.001133544259
-0.001114190467
-0.001081682956
-0.001000870939
-0.001001901354
-0.0009190410676
-0.0008932672329
-0.0008093508579
-0.0007815746541
-0.0006697551185
-0.0006309203176
-0.000599757136
-0.0005020278231
-0.0004611273224
-0.0004357961995
-0.0003221499344
-0.0002681278818
-0.0002464125967
-0.0001413933262
-5.863431965e-05
-1.942199421e-05
3.715383231e-05
0.0001679522543
0.0002291096419
0.00025849802
0.0003382055537
0.0004747445953
0.0005363469197
0.0005697336894
0.0006812241388
0.0008076635389
0.0008660853067
0.0008961181127
0.0009707001389
0.001144713964
0.001248174285
0.001293520545
0.001375052268
0.001548227353
0.001669517336
0.0017207768
0.001802546976
0.001962104138
0.002083941698
0.002133993881
0.002174429476
0.002384228237
0.002564563242
0.002674759157
0.002749522989
0.002937689221
0.003102538574
0.003212953162
0.003311162557
0.003461797779
0.003590614956
0.003675769972
0.003776886521
0.003937252099
0.004168689567
0.004313385651
0.004377719992
0.00453763726
0.004818186215
0.004973811562
0.005021620775
0.005297807294
0.005556859845
0.005692139491
0.005837827864
0.006202207687
0.006402643232
0.006471664777
0.006762511723
0.007152574583
0.007245258383
0.007523423884
0.007990517528
0.008079501064
0.008500429285
0.008871057315
0.008983307231
0.009674580785
0.009811942713
0.01025379327
0.01074306163
0.01097622068
0.01156116092
0.01184029725
0.01231898919
0.01257046862
0.0129788218
0.01316266533
0.01348782377
0.01353911996
0.01300197547
0.010280764
0.008614999199
)


100
(
-0.001044834559
-0.001163696639
-0.00114936786
-0.001132449748
-0.001083300559
-0.001028651231
-0.0009912984584
-0.0009471910704
-0.0008982327708
-0.0008434124889
-0.0008029503342
-0.0007085140728
-0.0006605067674
-0.0006197019699
-0.0005402955733
-0.0004943892839
-0.000461103209
-0.0003659548842
-0.0003103284098
-0.0002751645833
-0.000188957965
-0.0001100688649
-5.906572031e-05
-3.700403987e-06
0.000100538208
0.000174841268
0.0002208154667
0.0002871212161
0.00039104257
0.000471713438
0.000526275868
0.0006138242028
0.0007159425935
0.0007964876231
0.0008525980198
0.0009161892676
0.001033650942
0.001134536607
0.001220560239
0.001307232178
0.001428781989
0.001534198271
0.00162504025
0.001727422851
0.001843794547
0.001942801066
0.002027132215
0.002104575018
0.002252620123
0.002374348974
0.002483242784
0.002601930959
0.002780382853
0.002901041198
0.003000586231
0.003122103926
0.003302595017
0.003401123243
0.003481694834
0.003590882619
0.003779201446
0.003888426132
0.004044212773
0.004214414599
0.004352226622
0.004466821249
0.004651447381
0.004877733547
0.004989986509
0.005171293731
0.005394656162
0.005638013007
0.005786050187
0.005993109198
0.006265579166
0.006446828871
0.006558724384
0.006855725342
0.007148067748
0.00733988033
0.007620450681
0.007821399163
0.008182772406
0.008318253512
0.008628078443
0.008951715702
0.009178262423
0.009488060229
0.009802757231
0.01006272477
0.01033025068
0.01059357802
0.01085456442
0.01105122262
0.01129546147
0.01145625013
0.0114895575
0.01049388787
0.009075570197
0.008116938929
)


100
(
-0.001044837301
-0.001175256682
-0.001178538991
-0.001137569631
-0.001103559795
-0.001081142146
-0.001005292102
-0.0009994104372
-0.0009310904502
-0.0008901540612
-0.0008512642069
-0.0007712528907
-0.0007225746109
-0.0006684214592
-0.0006033340573
-0.00055655033
-0.0005152066547
-0.0004472510366
-0.0003843791482
-0.0003397383184
-0.0002755345398
-0.0002048100601
-0.0001410280384
-8.433842315e-05
-1.399128274e-05
6.414138332e-05
0.0001322213005
0.0001939489984
0.000259580677
0.0003401912843
0.000415436645
0.000492621304
0.0005674441789
0.0006519958825
0.0007306653313
0.0008032444899
0.0008728081094
0.0009498775716
0.001038926169
0.001129456761
0.001227051019
0.001320437866
0.00141301488
0.001503467523
0.001600471169
0.001710235008
0.001800101333
0.001882239297
0.001972031329
0.002093718197
0.00217909337
0.002279888971
0.002392910513
0.002542004827
0.002646829385
0.002745833308
0.002870974704
0.003061206677
0.003183147195
0.003272495445
0.003425446192
0.00355865827
0.003650311564
0.003836741339
0.004009289514
0.004086217657
0.004183344874
0.00442835206
0.004570785824
0.004694643793
0.004849138421
0.005041923527
0.005119694443
0.005298966325
0.005588334696
0.005702129763
0.005722531021
0.006061616896
0.00627922136
0.006245061322
0.006555305561
0.006703386134
0.006825173606
0.00710923549
0.007143276842
0.007424760609
0.007548310857
0.007639542909
0.007866919665
0.007919455291
0.008123810221
0.008213356287
0.008391840285
0.008526184295
0.008707278524
0.008777818891
0.008815830121
0.007355741344
0.007432354522
0.007231680716
)


100
(
-0.00104481901
-0.001160655404
-0.001178747672
-0.001140782719
-0.001142643184
-0.0010986687
-0.001055139473
-0.001015131977
-0.0009860838158
-0.0009206796591
-0.0009033762485
-0.0008289097338
-0.0007691781618
-0.0007275854775
-0.0006612620149
-0.0006064435481
-0.0005695223305
-0.0005171281206
-0.0004537241181
-0.0004015119914
-0.0003509145212
-0.0002878458018
-0.0002247033249
-0.0001639378378
-0.0001034108235
-3.84878821e-05
2.81975963e-05
9.60048571e-05
0.0001625427652
0.0002258051189
0.0002907012245
0.0003647534146
0.0004427558964
0.0005204849421
0.0005883876104
0.0006627572067
0.0007397369927
0.0008210801691
0.0008765954021
0.0009401582557
0.001024408349
0.001121043033
0.001211933513
0.001270593072
0.001356745952
0.001469245394
0.001607321156
0.001668970522
0.001739111912
0.001854414103
0.001999840208
0.002071275984
0.00212419728
0.002258474651
0.002422965659
0.002524033605
0.002568386405
0.002751598295
0.002950043424
0.003098129457
0.003174371146
0.003341003927
0.003453792879
0.003554164644
0.003689622356
0.003835973923
0.003903082478
0.004005095316
0.004187911359
0.004283549017
0.004359884438
0.004463373047
0.004642667804
0.004710388092
0.004760791042
0.004971597638
0.005254825236
0.005294746108
0.005354518152
0.005571673353
0.005723564991
0.005899175006
0.005909796729
0.006153714838
0.00627339895
0.006324478898
0.006555945508
0.006655871182
0.006747995172
0.006859311722
0.007003246075
0.007176143879
0.007264858382
0.007487230928
0.007601982707
0.007745291176
0.007603381082
0.00655008111
0.006647093952
0.006530172483
)


100
(
-0.001044785977
-0.001149561423
-0.001176908653
-0.001174580969
-0.001178222527
-0.001111219099
-0.00110443557
-0.0010327803
-0.001027930935
-0.0009682852725
-0.0009277271915
-0.0008928576765
-0.0008177949131
-0.0007725296976
-0.0007258682723
-0.0006615097984
-0.000614021929
-0.0005753793616
-0.0005238250942
-0.0004642864445
-0.0004137219001
-0.0003621049438
-0.0003037961495
-0.0002432397434
-0.0001837083797
-0.0001255105612
-6.903765449e-05
-1.123980467e-05
5.382828417e-05
0.0001215526353
0.000184505115
0.0002393070972
0.0003054448844
0.0003822736259
0.0004623941094
0.0005215858802
0.0005846181452
0.0006651652671
0.000767523788
0.0008250137321
0.000868599003
0.0009365119024
0.001052455854
0.001148006096
0.001202673508
0.001255995465
0.001406557734
0.001560766019
0.001623635174
0.001662003426
0.00180628756
0.001962108747
0.002054120818
0.002102729366
0.002234800096
0.002400627319
0.002512838313
0.002563486611
0.002679151792
0.002844429691
0.002967195832
0.003044570055
0.003156150521
0.003242990541
0.003346403188
0.003482191322
0.003612543353
0.003682759166
0.003760565956
0.0038564667
0.004003912976
0.004105514315
0.004191638851
0.004262727178
0.004381469211
0.004478706478
0.004671619403
0.004745421739
0.004841629046
0.005072762262
0.005120472718
0.005187918702
0.005423535027
0.005501809255
0.005608473586
0.005717751352
0.005838301363
0.005953784912
0.006101552691
0.006230357628
0.006327863031
0.006481785675
0.006628602775
0.006772330436
0.006947408713
0.007045749342
0.006362241084
0.006111565982
0.006072923505
0.00602250485
)


100
(
-0.001041056603
-0.001159407621
-0.001199003192
-0.00120834419
-0.001180520456
-0.00115274601
-0.001125488524
-0.001084328156
-0.00104248489
-0.001025588645
-0.0009568809764
-0.0009308497626
-0.0008841498639
-0.000817464721
-0.0007753208676
-0.0007275456991
-0.0006668737008
-0.0006210033538
-0.0005814946813
-0.0005329685523
-0.0004751061471
-0.0004240223575
-0.0003723627941
-0.0003173788903
-0.0002566879579
-0.0001992413334
-0.000146029129
-9.800471843e-05
-4.901023179e-05
1.117387388e-05
8.142873806e-05
0.0001466233548
0.0001982585419
0.000253572912
0.000335027673
0.0004201570403
0.0004771332162
0.0005269034856
0.0006233103518
0.0007380892654
0.0008034973556
0.0008466860037
0.000916009808
0.001039877871
0.001136311831
0.001174573471
0.001228727614
0.001379364277
0.001532588991
0.001587335121
0.001640090028
0.001772260536
0.001924736985
0.002017571777
0.002062949836
0.002165811451
0.002295936023
0.002365363478
0.002415262793
0.002484923258
0.002589139646
0.002685218856
0.002786986044
0.002915786886
0.003022355752
0.00313347678
0.003246869464
0.003334795627
0.003473378515
0.003571989698
0.00365077137
0.003739229993
0.003860262008
0.003995640083
0.00411938779
0.004180030418
0.004216914366
0.004374490754
0.004463537596
0.004543333941
0.004648199141
0.004744308375
0.004906078377
0.005038400343
0.005140786791
0.005278567231
0.005372782395
0.005458656599
0.005562816236
0.005736904687
0.005868442636
0.005938633152
0.00612788385
0.006244884761
0.006406209561
0.006534417463
0.005542431235
0.005719266691
0.005765410041
0.005766571496
)


100
(
-0.001034920961
-0.001168203555
-0.001219399281
-0.001222979766
-0.001184949004
-0.001195307202
-0.001137812584
-0.001134064369
-0.001068785446
-0.001052497841
-0.001015559827
-0.0009585565928
-0.0009341193942
-0.000880539342
-0.0008202836734
-0.0007791999911
-0.0007324250768
-0.0006741210929
-0.0006281197612
-0.000587900424
-0.0005416254597
-0.0004847891838
-0.0004327164591
-0.0003803734796
-0.0003258811924
-0.000263252868
-0.0002054042204
-0.0001574444715
-0.0001179420526
-7.706686998e-05
-1.966185341e-05
5.56661703e-05
0.0001244181755
0.0001749720067
0.0002266953851
0.0003166545149
0.0004033408017
0.0004562524534
0.0004929371074
0.0005999415807
0.0007181883619
0.0007873254265
0.0008228515645
0.0009050184594
0.001031229057
0.0011253184
0.001154073238
0.001203003692
0.001344341819
0.001472492881
0.001530443091
0.001566976335
0.001656671496
0.001757496574
0.00184874478
0.001934200984
0.002004454184
0.002066290599
0.002151632669
0.002239260664
0.002315909789
0.002378800197
0.002489097418
0.002605351534
0.002698582849
0.002789295734
0.002900351011
0.002996082231
0.003077278132
0.00320105948
0.003325251123
0.003441556681
0.003561922475
0.003662584156
0.003726852201
0.003871095183
0.003914791663
0.004003872009
0.00410802299
0.004212681162
0.004349451416
0.004450855873
0.004480053523
0.004611468695
0.004715798707
0.004840153923
0.004961411061
0.005067259181
0.005127333188
0.005269884447
0.005443890404
0.00552938946
0.00566794491
0.005769776475
0.005900581866
0.006007554788
0.005171738491
0.005455768018
0.005569079813
0.005637072539
)


100
(
-0.001032487963
-0.001170396488
-0.001226176721
-0.001220883988
-0.001219839317
-0.001211560459
-0.00117579533
-0.001150943568
-0.001120449014
-0.001067701371
-0.001062608098
-0.001008931697
-0.0009630530485
-0.0009381055281
-0.0008804687137
-0.0008244324162
-0.0007841064268
-0.0007384042302
-0.0006820672237
-0.0006354922807
-0.0005942758413
-0.0005504340396
-0.0004953807069
-0.0004431304661
-0.0003911041069
-0.0003342614266
-0.0002686829651
-0.0002082035994
-0.0001632487712
-0.0001308340529
-9.667316662e-05
-3.93837369e-05
4.057217636e-05
0.0001099071402
0.0001564177507
0.0002114874587
0.0003059904271
0.0003909845157
0.0004290713557
0.0004742571668
0.0005790430194
0.0006940319983
0.000755653148
0.0008021988951
0.0008847574921
0.001005260579
0.001073171512
0.001103082201
0.001133902339
0.001232401345
0.001307990272
0.00137963112
0.001432558781
0.001487597482
0.001568147293
0.001668806433
0.001772727226
0.001865808241
0.00193661359
0.002023946616
0.002114673495
0.002182883083
0.002249150806
0.002310671401
0.002401859754
0.002489292165
0.002591976347
0.002709544361
0.002785067592
0.002886261407
0.003015588662
0.003113689644
0.003210418332
0.003295708477
0.003370597957
0.003490179074
0.003640365127
0.003726980823
0.003837802679
0.003923100457
0.00397659026
0.004076717192
0.004164197043
0.004253608033
0.004339958522
0.004416147532
0.004496473944
0.004613436965
0.004754066548
0.004840839607
0.004920060327
0.005046129637
0.005155353007
0.005271798152
0.005340327462
0.005312753898
0.00475044622
0.005115753803
0.005269150411
0.005391598285
)


100
(
-0.0010324558
-0.001158577932
-0.001216920303
-0.001232375951
-0.001253426457
-0.001214564654
-0.001219850296
-0.001163867454
-0.001162997826
-0.001110402002
-0.001078417811
-0.001067867262
-0.001005756271
-0.0009680702121
-0.0009424832769
-0.0008835520732
-0.0008298799096
-0.0007888810186
-0.0007464360425
-0.000692326198
-0.0006443948945
-0.0006029496753
-0.0005632616353
-0.0005112779188
-0.0004603979338
-0.0004104670798
-0.0003504791193
-0.0002807093905
-0.0002142283946
-0.0001694436986
-0.0001426526695
-0.0001128136857
-5.391175629e-05
2.829438887e-05
9.533650796e-05
0.0001366445403
0.0001989802205
0.0002947359358
0.0003736036769
0.0004079983311
0.0004549415218
0.000549879507
0.0006509274532
0.0007085997243
0.0007479181432
0.0008120151469
0.0008876107665
0.0009491572214
0.0009998595678
0.001035550792
0.001090635749
0.001168060452
0.001255890422
0.001341942144
0.001401566534
0.001439654686
0.001531721092
0.001630771958
0.001717714616
0.001802384163
0.001876521752
0.001953405941
0.002019896784
0.002107523375
0.002209190249
0.002278970985
0.002342477147
0.002457266976
0.002562486643
0.002626766981
0.002687601906
0.002760363034
0.002854142895
0.002997473697
0.003129324327
0.003209229301
0.003336129191
0.003411635281
0.00345679033
0.003540295391
0.003639237462
0.00373480192
0.003803255002
0.003863820401
0.00392862811
0.003982122174
0.004076280846
0.004214397728
0.004328622942
0.004389890674
0.004442745865
0.00455357015
0.004636598259
0.004727695016
0.004739703718
0.004592207416
0.004216248654
0.004635886517
0.00482865117
0.004968882838
)


100
(
-0.001032394215
-0.00115133491
-0.001216707309
-0.00125623021
-0.001261173371
-0.001240244835
-0.001239239708
-0.001207559924
-0.001176959172
-0.001162492971
-0.001103890985
-0.001088629887
-0.001066957738
-0.001006345956
-0.0009737327187
-0.000947688031
-0.0008894741865
-0.0008369897988
-0.0007958083691
-0.000757316126
-0.0007060325617
-0.0006575875552
-0.0006173303745
-0.0005783031597
-0.0005331513143
-0.0004852451651
-0.000436505313
-0.0003745419348
-0.0003006431738
-0.0002277787862
-0.0001798579562
-0.0001565791142
-0.0001281997423
-6.657183928e-05
1.419677109e-05
7.451139735e-05
0.0001179661755
0.0001807076623
0.0002714029798
0.0003351098799
0.0003722306289
0.0004075991273
0.0004780852872
0.0005466812674
0.000609566431
0.0006548044474
0.0007000197196
0.0007611671202
0.0008351510778
0.0009113645703
0.0009783645535
0.001015631589
0.001068805993
0.001150328778
0.00123709023
0.001305067571
0.00136932634
0.001411720365
0.001480914356
0.001560497399
0.001656392778
0.001765461876
0.001834199583
0.001891007133
0.001988427588
0.002086179634
0.002145423082
0.002196914979
0.002244501771
0.00231575168
0.002431216204
0.002563819675
0.002613876445
0.002723091753
0.00285428452
0.002917122537
0.00295778189
0.00304137445
0.003136770607
0.003219741453
0.003279791026
0.003343308286
0.003405898564
0.003468639159
0.003542118773
0.003645719849
0.003691031672
0.003785635132
0.003851554953
0.003935909995
0.004030786023
0.004113379296
0.004179640342
0.004199402545
0.004300916901
0.003767252511
0.003557055427
0.004075000332
0.004268087356
0.004448799956
)


100
(
-0.001025443031
-0.001155945118
-0.001228938755
-0.001274826114
-0.001259005352
-0.001275782043
-0.00124343556
-0.001252860055
-0.001198524403
-0.001188969766
-0.001158137737
-0.001105324916
-0.001098814226
-0.001069449898
-0.001009815294
-0.0009792767466
-0.0009553012457
-0.0009003551552
-0.0008470423341
-0.0008061562339
-0.0007732173903
-0.0007248545183
-0.0006753592958
-0.0006373363531
-0.0005985568437
-0.0005596640877
-0.0005146409433
-0.0004666146497
-0.0004055471606
-0.0003279633865
-0.0002544478991
-0.000206572224
-0.0001814301721
-0.0001480747452
-8.674664208e-05
-1.222829042e-05
4.084005618e-05
8.267764064e-05
0.0001366315289
0.0002063400635
0.0002618584594
0.0003010783012
0.0003316748946
0.0003786521905
0.000442097989
0.0005137141927
0.000581996151
0.0006278321057
0.0006668222034
0.000735191146
0.0008118420662
0.0008842623141
0.0009449105359
0.0009882904974
0.001035691908
0.001105688382
0.001173748855
0.001260031176
0.001341445402
0.001383996403
0.001440969748
0.001540746146
0.001644325451
0.001713720426
0.001754427548
0.001798566434
0.001864037816
0.001955777121
0.002064690755
0.002104973014
0.002181480483
0.002302805645
0.002390211708
0.002436152386
0.002488396899
0.002582030473
0.002662851942
0.002720518386
0.002775397224
0.002835159951
0.002898384559
0.002961891711
0.003049770814
0.003141686374
0.003189225752
0.003258263608
0.003287405817
0.003352777538
0.003419972343
0.003500082953
0.003591010446
0.003652699728
0.003720649183
0.003754192225
0.003866208068
0.002926243447
0.002962282236
0.003570046911
0.003750032772
0.003919970318
)


100
(
-0.001010625432
-0.001159326148
-0.001239767152
-0.001266660378
-0.001277791475
-0.001294957
-0.001268827251
-0.001265623202
-0.001247151219
-0.0012046235
-0.001200832802
-0.001157456327
-0.001115989173
-0.001107778769
-0.001074404087
-0.00101670215
-0.0009878526637
-0.0009667076927
-0.0009169594641
-0.0008622040444
-0.0008229098424
-0.0007900531865
-0.0007481360802
-0.0007010992725
-0.0006612621035
-0.0006230795219
-0.0005888689183
-0.0005469450714
-0.0004996202182
-0.0004423027265
-0.000367469118
-0.0002942339482
-0.0002425517817
-0.0002124043407
-0.0001817595359
-0.0001293345227
-6.974013143e-05
-2.107800569e-05
1.821253148e-05
6.201716267e-05
0.0001168479281
0.0001772924768
0.0002338856116
0.0002762484224
0.0003087172621
0.0003582654554
0.0004264266775
0.0004972724365
0.0005547951609
0.0005960624173
0.0006367129696
0.0006971131586
0.0007610114928
0.0008287783515
0.0009027629657
0.0009485858661
0.0009843747761
0.001056296616
0.001148882721
0.001237783618
0.001298168864
0.001323014834
0.001368167588
0.001434477006
0.001509970241
0.001595628879
0.00164506624
0.001708904222
0.001829854361
0.001942151123
0.001979648137
0.00199907109
0.002063070425
0.002112411144
0.002164171086
0.002216072406
0.002280914676
0.002343980186
0.002405059836
0.002478106565
0.002564763128
0.00262045393
0.00267439418
0.002738831039
0.002808756709
0.002855451204
0.002914659528
0.002967137358
0.003031136795
0.003098234119
0.003162577729
0.003211431164
0.003258225337
0.003318683645
0.003169885868
0.002338252338
0.002686139615
0.003177153033
0.003394865346
0.003607676565
)


100
(
-0.001002696154
-0.001156629966
-0.001234383163
-0.001259211816
-0.001302625892
-0.001294377373
-0.001305794742
-0.001270748364
-0.001285462954
-0.001244661554
-0.001217657855
-0.001211429642
-0.001159009682
-0.001125840178
-0.001118689817
-0.001084909968
-0.001027942655
-0.001000296641
-0.0009817577566
-0.0009387562774
-0.000881548045
-0.0008441364385
-0.0008110919014
-0.0007751482127
-0.0007302456142
-0.0006881583546
-0.0006519366748
-0.0006172076133
-0.0005825444436
-0.0005378099338
-0.0004829466792
-0.0004136572614
-0.0003462249847
-0.000300880464
-0.0002674317386
-0.0002362792591
-0.0001946167638
-0.000145230166
-9.528014218e-05
-5.002752071e-05
-9.531566083e-06
3.772003993e-05
9.750779427e-05
0.000160494554
0.0002143967899
0.0002501654814
0.0002835846414
0.000335146513
0.0003978577239
0.00045337263
0.0005076661059
0.0005499993818
0.0005844766796
0.0006362862012
0.0007140874398
0.0008012686468
0.0008749237004
0.0008967848951
0.0009302118988
0.0009954030055
0.001054117577
0.001110484617
0.00115692946
0.001183747113
0.001240875034
0.001355334706
0.001469814373
0.001522521723
0.00154949835
0.001634889446
0.001680151837
0.001713403305
0.001752866101
0.001793096537
0.001834361622
0.001881128183
0.001944310615
0.002005089157
0.002070120567
0.002130603966
0.002178391559
0.00222239068
0.002290769419
0.002352980309
0.002398429645
0.002432682519
0.002533437946
0.002563475626
0.002623357832
0.002640504597
0.002662507859
0.002693929768
0.002712977973
0.002709247683
0.002471274781
0.002059133255
0.002607400596
0.002907075953
0.003161917881
0.00332387341
)


100
(
-0.00100263641
-0.001147583072
-0.001223822993
-0.001273950802
-0.001311910032
-0.001305762788
-0.001324778372
-0.001304750171
-0.001292309514
-0.001293860141
-0.001245024784
-0.001228636621
-0.001214907155
-0.001165528456
-0.00113813368
-0.001132354366
-0.001099892277
-0.001044087132
-0.001016862933
-0.0009991759615
-0.0009630690405
-0.0009083880606
-0.0008684409325
-0.0008352880753
-0.000806090193
-0.000762116808
-0.0007184458578
-0.0006841577022
-0.0006498558413
-0.0006184751322
-0.0005785493367
-0.0005291210718
-0.0004718363206
-0.0004150572656
-0.000366677756
-0.0003302332732
-0.0002962235051
-0.000260587706
-0.0002158416646
-0.000164073721
-0.0001139980503
-7.214378843e-05
-3.364135087e-05
1.635182185e-05
7.503134743e-05
0.0001304413986
0.000175222576
0.0002108967009
0.0002432656605
0.0002860085944
0.0003395828196
0.0004087948372
0.0004752509267
0.0005110066738
0.0005333621166
0.0005965285825
0.000671975436
0.0007314652882
0.0007647520392
0.0007758451397
0.0007903795865
0.0008447667926
0.0009432844845
0.001039715094
0.001069101831
0.001102919411
0.00119131442
0.001254639429
0.001285731086
0.001315226783
0.001359624803
0.001414150827
0.001467586383
0.001506152499
0.001544499745
0.001585889106
0.001630363897
0.001672758486
0.001710986765
0.001749439915
0.001804774132
0.0018517397
0.00191008749
0.001936841737
0.001976549482
0.002049951232
0.002123042225
0.002151103348
0.002161388796
0.002167708036
0.002169986744
0.002171893317
0.002157464968
0.002161438472
0.001992393269
0.001902140479
0.002411685187
0.002662006029
0.002946616938
0.003136126771
)


100
(
-0.001002559493
-0.001142692674
-0.001225959677
-0.001287247305
-0.001303534198
-0.001332356005
-0.001325285459
-0.001342550855
-0.001305955898
-0.001312020272
-0.001295850559
-0.001247334019
-0.001240697916
-0.001224239504
-0.001176475507
-0.001152322152
-0.00114744598
-0.001118765443
-0.001064245672
-0.001035595309
-0.001018158237
-0.0009902132064
-0.000938238391
-0.0008952813444
-0.0008628465839
-0.0008326340716
-0.000796585578
-0.000755584098
-0.0007176902931
-0.0006852022658
-0.0006507060587
-0.000616056278
-0.0005691915822
-0.0005202896954
-0.0004741929266
-0.0004289078464
-0.0003889931996
-0.0003520477986
-0.0003172598709
-0.0002785415111
-0.0002307937502
-0.0001803149443
-0.0001373233769
-0.0001008362966
-6.478068362e-05
-1.984398888e-05
2.958643807e-05
7.981125837e-05
0.0001303302285
0.0001690436036
0.0001989005618
0.0002448015101
0.0003133049776
0.0003815131272
0.0004222726562
0.000437569168
0.0004539595613
0.0004967645782
0.000538559265
0.0005981450315
0.0006481751314
0.0006717208934
0.0007218604426
0.0008159909631
0.000894410171
0.0009228575469
0.0009360633944
0.0009618965125
0.000999337542
0.001038595446
0.001076339858
0.001114927834
0.001155916047
0.001195703065
0.001239201671
0.001279268083
0.001308492574
0.001337852666
0.001368239812
0.001401409554
0.001452654486
0.001494710546
0.001502767578
0.001528880405
0.001591544506
0.001671174584
0.001687355964
0.001694987404
0.00170344026
0.001715232752
0.001726828752
0.001748119524
0.00170226407
0.00173553579
0.001480978967
0.001644627235
0.00205632185
0.002315699703
0.002624404755
0.002981522657
)


100
(
-0.0009899633989
-0.001142339658
-0.001230672604
-0.001285108594
-0.00130566128
-0.001348587671
-0.00133914882
-0.001352918604
-0.00134724077
-0.001319148547
-0.001327895761
-0.001301455241
-0.001261586315
-0.001255986275
-0.001238161342
-0.00119134734
-0.001168245234
-0.00116381577
-0.001139947583
-0.001088033191
-0.001056011617
-0.001038695345
-0.001020254755
-0.0009709231623
-0.0009238723908
-0.0008938098375
-0.0008626214514
-0.0008346422994
-0.0007943062352
-0.0007526709617
-0.0007177687372
-0.0006815874981
-0.0006484317093
-0.0006107419337
-0.0005693531045
-0.0005271295108
-0.0004859092985
-0.0004430143472
-0.0004058217427
-0.0003714481042
-0.0003382657266
-0.0003005490867
-0.0002576156113
-0.0002156069765
-0.0001768893041
-0.0001415518307
-0.0001079218697
-6.786834347e-05
-1.463101791e-05
4.611728994e-05
9.724649619e-05
0.0001235278519
0.0001484811915
0.0001974266031
0.0002472313294
0.0002782855301
0.0003020025101
0.0003160280241
0.0003388317276
0.0004007966735
0.0004863196758
0.0005564327377
0.0005703237243
0.0005890918569
0.0006420603945
0.0006708615469
0.0006920157599
0.0007178135916
0.0007478036044
0.0007786535883
0.0008061205773
0.0008345204472
0.0008610939754
0.0008997537901
0.000940872816
0.0009788868846
0.0009989803055
0.001011497671
0.001051060672
0.001088973081
0.001090803892
0.00111748931
0.001119193236
0.001184195055
0.00123352592
0.0012420567
0.001253594514
0.001262932731
0.001273001593
0.001269719338
0.001259373897
0.001237145864
0.00121202293
0.001149795121
0.0009286131542
0.001243528001
0.001635844397
0.001888733878
0.002185296611
0.002493955471
)


100
(
-0.0009688934712
-0.00113995918
-0.001231522087
-0.001274410403
-0.001320577462
-0.001341236958
-0.001366686168
-0.001354075686
-0.001378082087
-0.001352610046
-0.001337122444
-0.001347859135
-0.001311806754
-0.001276676116
-0.001273326279
-0.001255986375
-0.001210375301
-0.001186661238
-0.001181434818
-0.001164494702
-0.001115453439
-0.001078359597
-0.001061544938
-0.001042177267
-0.001006524161
-0.0009629340424
-0.0009278380169
-0.0008966999435
-0.0008624455326
-0.0008291060313
-0.0007902749946
-0.0007526236745
-0.0007208507816
-0.0006867413744
-0.0006553240199
-0.0006160428274
-0.000576819438
-0.0005409725486
-0.000502103604
-0.0004643565423
-0.0004347393601
-0.0004057454107
-0.0003752822447
-0.0003407765762
-0.000300123815
-0.0002568600056
-0.0002170274472
-0.0001824139243
-0.0001531964221
-0.0001085507001
-5.308030579e-05
-6.048249821e-06
1.811284894e-05
3.1328101e-05
4.804881771e-05
8.005127194e-05
0.000125253893
0.0001808202588
0.0002187687105
0.0002380270795
0.0002881687169
0.0003567013995
0.0003966808475
0.0004098618534
0.0004195227184
0.0004315705183
0.000450821644
0.000476711901
0.0005034118442
0.0005283209265
0.0005503333979
0.0005723623611
0.0006023713447
0.0006366153629
0.0006607477851
0.0006748658862
0.0006777537091
0.0006978974012
0.0007299864578
0.0007618948867
0.0007571431613
0.0007742672441
0.0007993610508
0.000822875117
0.0008552378822
0.0008412421351
0.0008395129699
0.0008410168594
0.0008363809027
0.0008294204796
0.0007883959041
0.0007136312672
0.0006918518954
0.0006273576447
0.0004728359419
0.0007568465739
0.001179644569
0.001438044125
0.00170907949
0.002001664405
)


100
(
-0.0009603424542
-0.001130403237
-0.00122303834
-0.001274584154
-0.001330472649
-0.0013389076
-0.001379593061
-0.001377739785
-0.001381087514
-0.001393021665
-0.001361431583
-0.001356191868
-0.00136485576
-0.001324545877
-0.001292861271
-0.001291346959
-0.001277311506
-0.001233081049
-0.001206308748
-0.001200572069
-0.001192492311
-0.001146250619
-0.001102639993
-0.001087338624
-0.00106748714
-0.001046055362
-0.001004308277
-0.0009584381035
-0.0009256094143
-0.00089214061
-0.0008690121376
-0.0008333245117
-0.0007963778102
-0.0007625285141
-0.0007304463468
-0.0006974906939
-0.0006668241031
-0.0006306232318
-0.0005996919207
-0.0005706448525
-0.0005395568477
-0.0005060360453
-0.000478463502
-0.0004474864496
-0.0004192012895
-0.0003842976889
-0.000340853459
-0.0002956733825
-0.0002630070799
-0.0002400362626
-0.0002177695233
-0.0001855063803
-0.0001530746397
-0.0001278237786
-0.0001060668803
-8.374508945e-05
-5.522781575e-05
2.363571846e-06
6.803279956e-05
0.0001075943714
0.000118700197
0.0001327102514
0.0001628803133
0.0001798284405
0.0001963102323
0.0002160854812
0.0002364171992
0.0002550754244
0.0002714192379
0.0002892458086
0.0003019109498
0.0003097871795
0.0003300544965
0.0003545364368
0.0003690046524
0.0003719676863
0.0003891009301
0.0004251186256
0.0004270327938
0.0004078741216
0.0004105598835
0.0004344236874
0.0004887013986
0.0004813209176
0.0004548978874
0.0004217846855
0.0004129246716
0.0004040184183
0.0003834360106
0.000366893175
0.0003136162869
0.0002636650222
0.0002046857982
9.428542173e-05
-3.604183178e-06
0.0002729658876
0.0007059031654
0.0009877115349
0.001247000065
0.001573135989
)


100
(
-0.0009602768144
-0.001119287119
-0.001215324067
-0.001279931163
-0.001320707848
-0.001354714505
-0.001372553287
-0.001405348828
-0.001388637845
-0.0014030369
-0.001405387509
-0.001371619657
-0.001375469705
-0.001381161091
-0.001340377228
-0.001310606894
-0.001310413708
-0.001301075404
-0.001259326069
-0.001228075522
-0.001222579774
-0.001212799177
-0.001180579717
-0.001140932673
-0.001116235869
-0.001095814985
-0.00107025433
-0.001038667274
-0.001000071643
-0.0009623094503
-0.0009308052229
-0.0009050150087
-0.0008798719212
-0.0008438477294
-0.0008069109835
-0.0007800485918
-0.000749973144
-0.0007210411216
-0.000694537934
-0.0006699952638
-0.0006410162901
-0.0006135077354
-0.0005812941978
-0.0005509805055
-0.0005214526613
-0.0004922580422
-0.0004621421456
-0.0004298359137
-0.0003938840903
-0.0003699540074
-0.0003596063697