/*--------------------------------*- C++ -*----------------------------------*\
| =========                 |                                                 |
| \\      /  F ield         | OpenFOAM: The Open Source CFD Toolbox           |
|  \\    /   O peration     | Version:  2.3.1                                 |
|   \\  /    A nd           | Web:      www.OpenFOAM.org                      |
|    \\/     M anipulation  |                                                 |
\*---------------------------------------------------------------------------*/
FoamFile
{
    version     2.0;
    format      ascii;
    class       dictionary;
    location    "constant";
    object      GRPSI42;
}
// * * * * * * * * * * * * * * * * * * * * * * * * * * * * * * * * * * * * * //

GRPSI42_table
100
(

100
(
0.005034377489
0.003934910135
0.00228901466
0.001478108601
0.0009571566684
0.0005598979602
0.0002731862331
3.08953877e-05
-0.0002027669034
-0.0003480164203
-0.0005659458636
-0.0007602209945
-0.0007813134237
-0.0009699899893
-0.001098925105
-0.001072114004
-0.001233631259
-0.001376079389
-0.001330587299
-0.001436531369
-0.001593598713
-0.001602245581
-0.001612716877
-0.001758336764
-0.001852530489
-0.001809109578
-0.001837245205
-0.00196325528
-0.002016716126
-0.001973392104
-0.002037142823
-0.002163278003
-0.002182321121
-0.002136573693
-0.002135260784
-0.002228651954
-0.00227424619
-0.002224633638
-0.002217557645
-0.002296687993
-0.002334731049
-0.002286054456
-0.002278223662
-0.002351556043
-0.002383858423
-0.002335184215
-0.002291411146
-0.002340386211
-0.002385334695
-0.002341019025
-0.002317291665
-0.002367242567
-0.002400469653
-0.002360534738
-0.002356843386
-0.002403516647
-0.00241092007
-0.002364838407
-0.002341842065
-0.002359830939
-0.002353058416
-0.00230372349
-0.002279927075
-0.002283961701
-0.002260992846
-0.002209084886
-0.002193245988
-0.002186162266
-0.002141970563
-0.002101689258
-0.002084498961
-0.002054017377
-0.002004182881
-0.001977991407
-0.001947217381
-0.001896373483
-0.001862244485
-0.001822969968
-0.001773323512
-0.001730381493
-0.001678941558
-0.001628857735
-0.001577043794
-0.001519988538
-0.001462895989
-0.001402435494
-0.001340865419
-0.001276362728
-0.001210670817
-0.00114269862
-0.001072977099
-0.001000717535
-0.0009263006714
-0.0008499114755
-0.0007721503683
-0.000691426164
-0.0006078607427
-0.0005229943682
-0.0004262711367
-0.0003726182697
)


100
(
0.005105860215
0.003998710567
0.002359552379
0.001563096662
0.001062935048
0.0006658246155
0.0003763718841
0.0001446322705
-7.845932658e-05
-0.000245883475
-0.0004196541338
-0.0006113244983
-0.0006988845139
-0.0008076408488
-0.0009514184713
-0.001005493764
-0.001054353842
-0.001190854441
-0.001271558531
-0.001289105701
-0.001383121068
-0.00149004138
-0.001524716826
-0.001546659726
-0.001657333471
-0.001744241754
-0.001737792339
-0.001732048128
-0.001830801336
-0.001918661512
-0.001905706725
-0.001913822101
-0.002000736732
-0.002075232659
-0.002059440031
-0.00202644799
-0.00204854847
-0.002133208121
-0.002150221869
-0.002105490523
-0.002095632174
-0.002164297899
-0.002201468841
-0.002166182702
-0.00214459416
-0.002199899704
-0.002247973621
-0.002213378961
-0.002165016294
-0.0021706399
-0.002238617105
-0.002244053196
-0.002193522361
-0.002188124661
-0.002240561874
-0.002254261102
-0.002214565977
-0.002208629865
-0.002234556205
-0.002250380912
-0.002147895083
-0.00210439027
-0.002239407433
-0.002234244905
-0.002049554702
-0.002013907263
-0.002195106007
-0.002098016574
-0.001911671709
-0.002002074564
-0.002060381125
-0.001889624895
-0.001816405865
-0.001947852864
-0.001842973411
-0.001706354082
-0.001806309666
-0.001759592361
-0.001622411873
-0.001669571118
-0.001608847788
-0.001518369933
-0.001516394473
-0.001438024225
-0.001395201083
-0.001353346716
-0.001278484766
-0.001224020881
-0.001165270295
-0.001102264382
-0.001027409942
-0.0009433581938
-0.000876616325
-0.0008015129873
-0.0007405780895
-0.0006904165305
-0.0006923942632
-0.001796809443
-0.002979498978
-0.00310557232
)


100
(
0.005159228986
0.004048483038
0.002420455911
0.001649938567
0.001159477719
0.0007664916044
0.0004772325916
0.0002449931019
4.010922858e-05
-0.0001397822737
-0.0002982766335
-0.0004670093865
-0.0005969677699
-0.0006861130874
-0.0007958522684
-0.0009021377242
-0.0009609105015
-0.001010560932
-0.001120848554
-0.001214739814
-0.001242555357
-0.001302413706
-0.001402770865
-0.001463281585
-0.001479916939
-0.00154763503
-0.001638339625
-0.001669303883
-0.001661530695
-0.001696032701
-0.001788646853
-0.001834101268
-0.001824979921
-0.001848322628
-0.00192658404
-0.001974962103
-0.001955210298
-0.001917994903
-0.001941299727
-0.002020773406
-0.002031832836
-0.00198990742
-0.001958457118
-0.002025356136
-0.002085395323
-0.002051536812
-0.002022774098
-0.002046190305
-0.002103855837
-0.002107710134
-0.002068651825
-0.002011206371
-0.00206740983
-0.002141137024
-0.002112221357
-0.001997287215
-0.002044323719
-0.002159240797
-0.002110323984
-0.001992969623
-0.002034248009
-0.002028557173
-0.001909551449
-0.002033033749
-0.002116376561
-0.001964273386
-0.001824184751
-0.001991588402
-0.001996399675
-0.001815955703
-0.001786421741
-0.001863696993
-0.001844461277
-0.001695190016
-0.0016543058
-0.001693647357
-0.001647587884
-0.001548223981
-0.00158305805
-0.001554264579
-0.00148766507
-0.001407204036
-0.001368637329
-0.001366546348
-0.001265299341
-0.001233399105
-0.001190288862
-0.00110030582
-0.001033290068
-0.0009668498853
-0.0009068360967
-0.0008250892188
-0.0007192373464
-0.0006778497409
-0.0006406295203
-0.0005791898096
-0.001168137646
-0.003069950713
-0.004325376252
-0.004284845579
)


100
(
0.005195718809
0.004084678604
0.002488028712
0.001729698293
0.001232081207
0.0008601577345
0.0005745991463
0.0003413259519
0.0001487046997
-3.125839751e-05
-0.0001893494503
-0.0003333586351
-0.0004749156451
-0.0005897023715
-0.0006658723681
-0.0007620596746
-0.0008625845937
-0.0009174734701
-0.0009530327268
-0.001060572197
-0.001163350909
-0.001187040008
-0.001220116748
-0.001318937749
-0.001399988077
-0.001411648511
-0.001440833399
-0.001529285365
-0.00159635785
-0.001594124635
-0.001582739769
-0.001652847185
-0.001741208277
-0.00174695367
-0.001737689191
-0.001768912644
-0.001843504603
-0.00187735097
-0.001850289139
-0.001804488896
-0.001815261036
-0.001902581641
-0.001933085578
-0.00189560766
-0.001820571643
-0.001886750914
-0.001989749849
-0.001955788798
-0.001823576387
-0.001882112982
-0.00204280928
-0.002003554553
-0.001850041257
-0.001856047513
-0.002034115055
-0.002030349197
-0.00181193992
-0.001803232607
-0.002032014165
-0.001969645829
-0.001773383566
-0.001845465386
-0.001901120426
-0.001805911066
-0.001823237907
-0.001895932153
-0.001865640506
-0.001764202349
-0.00171906996
-0.001745519114
-0.001754633704
-0.001686160116
-0.00160756551
-0.001568566704
-0.001588538988
-0.001589006374
-0.001495781468
-0.001401384687
-0.001462185277
-0.001440242126
-0.001314030179
-0.001291191885
-0.001279514761
-0.001215649413
-0.001124344503
-0.001063207785
-0.001016291197
-0.0009701007738
-0.0008913457111
-0.0007849034872
-0.0007339525092
-0.000681424137
-0.0006037926979
-0.0005147456658
-0.0004343830363
-0.000460142089
-0.002004307205
-0.00424909889
-0.005066254602
-0.005128835549
)


100
(
0.005225564439
0.004125306957
0.002540522175
0.00178600122
0.001311900226
0.0009462249769
0.0006616828781
0.000433867308
0.0002433465605
7.560195798e-05
-8.447155305e-05
-0.0002253237794
-0.0003477871163
-0.0004736570872
-0.000573227784
-0.0006357511175
-0.0007252105217
-0.0008223658912
-0.0008726985532
-0.0009055281543
-0.00100081919
-0.001100204046
-0.001130320519
-0.00114725303
-0.001233048168
-0.001326685606
-0.001346828796
-0.001353905348
-0.00141587452
-0.001500707351
-0.001526235427
-0.001514722601
-0.001509601663
-0.001601792478
-0.001683984097
-0.001670157986
-0.001614719773
-0.001682427411
-0.001800862141
-0.001781332281
-0.001712573978
-0.001652743463
-0.001753656697
-0.001854416096
-0.001775863392
-0.001585509207
-0.001705749564
-0.001927900759
-0.001815735689
-0.001622702744
-0.001717346245
-0.001933332176
-0.001848617606
-0.001672052233
-0.001731893054
-0.001924755153
-0.001816656131
-0.001638682276
-0.001692025668
-0.001809435862
-0.001784697472
-0.001673945171
-0.001666294129
-0.001725613821
-0.001732499868
-0.001688274419
-0.001615186631
-0.001627957051
-0.001678496514
-0.001626941713
-0.001555647223
-0.001490245387
-0.001495985446
-0.001522672397
-0.001450922486
-0.001352239002
-0.001370703048
-0.001398142343
-0.001314325145
-0.001215201477
-0.001185241209
-0.001184831455
-0.00110615232
-0.001002593466
-0.0009882727282
-0.0009247751187
-0.000811369664
-0.0007617121046
-0.0006644806329
-0.0006509909803
-0.0006160204286
-0.000497414166
-0.0004161275828
-0.0003014811532
-0.0002258306456
-0.0004934570269
-0.002891893364
-0.005273552288
-0.005678378995
-0.005811434117
)


100
(
0.005238862115
0.004151972329
0.002585757558
0.001838691306
0.001384051267
0.001024591498
0.0007425190992
0.0005237250448
0.0003329672741
0.0001732894146
2.032030452e-05
-0.0001219547436
-0.0002427923427
-0.0003517251749
-0.0004639065521
-0.0005484126465
-0.0006027211701
-0.0006846411272
-0.0007778695394
-0.0008299598955
-0.0008609654965
-0.0009343922057
-0.001028393091
-0.001073190767
-0.001090628999
-0.001146523267
-0.001239063409
-0.001290652226
-0.001296106264
-0.001307626032
-0.00139288017
-0.001467398912
-0.001451379394
-0.001387285882
-0.00147522151
-0.00160756521
-0.001592207754
-0.001433163731
-0.00149616585
-0.001711004448
-0.001689142087
-0.001538685389
-0.001481797292
-0.0016699912
-0.001777096055
-0.001573927015
-0.001366806164
-0.001616182914
-0.001822800984
-0.001625423132
-0.001475007559
-0.001603369145
-0.001738018425
-0.001655908981
-0.001559166661
-0.001608987432
-0.00164585338
-0.001638579635
-0.001639056772
-0.001567581704
-0.001537335475
-0.001615837541
-0.001652829155
-0.001573229651
-0.001483649052
-0.001495797181
-0.001571010229
-0.001544215565
-0.001475049021
-0.001416903096
-0.00141843162
-0.001436811233
-0.001386079347
-0.001252882795
-0.00125951907
-0.001328403414
-0.001250990403
-0.001160100927
-0.001099981019
-0.001127886398
-0.001091836836
-0.0009090122178
-0.0009028914265
-0.0009079753455
-0.0007633605533
-0.0007233347153
-0.0006874768356
-0.0005527672889
-0.0005227339192
-0.0005342503459
-0.0003684327295
-0.0002841321383
-0.0001969308966
-7.509580898e-05
-4.66874103e-05
-0.0009147701095
-0.003747820193
-0.005866633507
-0.006166201627
-0.006294689358
)


100
(
0.005263401924
0.00418065131
0.002623766734
0.001901805291
0.001450002274
0.001091749674
0.0008180632343
0.0006035867851
0.0004184756822
0.0002590312186
0.0001179230558
-2.001580641e-05
-0.0001436965857
-0.0002480552362
-0.0003456830892
-0.0004456195668
-0.000519439598
-0.0005672040949
-0.0006380819987
-0.0007283806723
-0.0007854306342
-0.0008114665777
-0.0008571987588
-0.000947032635
-0.001013982491
-0.001035943608
-0.001098271272
-0.001196230501
-0.001236833395
-0.001205455432
-0.001177478146
-0.001287471492
-0.001395558874
-0.001337775363
-0.001247424784
-0.001373066224
-0.001534691086
-0.001436217965
-0.001260314118
-0.001390539766
-0.001611241572
-0.00153758315
-0.001365913414
-0.001371688217
-0.001598096705
-0.001573780293
-0.001374681892
-0.001309654466
-0.001503422247
-0.001588288317
-0.001439977226
-0.001400213151
-0.001420849866
-0.001520538788
-0.001552282652
-0.001514059638
-0.001461303803
-0.001440725567
-0.001509144642
-0.001551762639
-0.001497146117
-0.001417371179
-0.00135021882
-0.001426455771
-0.001489247759
-0.001407714497
-0.001361628755
-0.001276847053
-0.001281533915
-0.001358769142
-0.001304988662
-0.001178743077
-0.001157686706
-0.001222785168
-0.001160883294
-0.001097033992
-0.001046991084
-0.001045440873
-0.00102493107
-0.0008636165656
-0.0008519055675
-0.0008492211607
-0.0007334817774
-0.0006842409254
-0.0006494966766
-0.0005537404318
-0.0004763568016
-0.0004196783009
-0.0003491019158
-0.0002869778698
-0.000223591593
-9.484288213e-05
4.795641469e-05
0.0001251800474
0.0001723143053
-0.001377178953
-0.004529580775
-0.006074846769
-0.006409530924
-0.0067936579
)


100
(
0.005286456621
0.004206097871
0.002665533413
0.001957910749
0.001501146262
0.001157129711
0.0008888047416
0.0006746546821
0.0005048940599
0.0003421856652
0.0002042758536
7.668611074e-05
-4.540470573e-05
-0.0001536098523
-0.0002435254992
-0.000329341395
-0.0004195119125
-0.000486254146
-0.0005272498721
-0.0005838285339
-0.000671017493
-0.0007343853099
-0.0007539917322
-0.0007715486225
-0.0008589322041
-0.0009512961616
-0.000984608803
-0.001064850897
-0.001159541414
-0.001176627983
-0.00106908071
-0.001050127118
-0.001226959037
-0.00131831259
-0.001191657285
-0.001110682641
-0.001304502249
-0.001436822131
-0.001265725573
-0.001117188203
-0.001293580062
-0.001474136454
-0.00136143619
-0.001223073882
-0.001289323289
-0.001408334894
-0.001364755576
-0.001274317834
-0.001251128909
-0.001300382329
-0.001390736598
-0.001415602857
-0.001389408497
-0.001318996231
-0.001240623477
-0.001347036207
-0.001452676349
-0.001386247004
-0.001316284202
-0.001278163648
-0.001352851556
-0.001395394138
-0.001323391994
-0.001282255453
-0.001216501587
-0.001166327214
-0.001237936755
-0.001290899793
-0.001156090161
-0.001013800136
-0.00107593509
-0.001126685817
-0.001075261119
-0.001016210603
-0.0009294835982
-0.0009760637336
-0.0009516358602
-0.0007776206724
-0.0007721542765
-0.0007835063074
-0.0007032233026
-0.00065360447
-0.0006210746446
-0.0005522375837
-0.0004295966111
-0.0003720051002
-0.0003667645043
-0.0003001850626
-0.0001673236756
-4.838480674e-05
1.056863031e-05
8.715694686e-05
0.00018705701
0.0002849051556
0.0002925731698
-0.001867441939
-0.005044214945
-0.00609642264
-0.006434805492
-0.006776679721
)


100
(
0.005294486751
0.00422624271
0.002707083195
0.002001754414
0.001552633202
0.00121604869
0.0009554524213
0.0007421855495
0.0005748074464
0.000422703109
0.0002835971702
0.0001650136786
5.134732334e-05
-5.736411079e-05
-0.0001531042385
-0.000229171143
-0.0003018911997
-0.0003841986567
-0.0004480343373
-0.0004825089857
-0.0005218784891
-0.0006078198298
-0.0006828915389
-0.000699780988
-0.0007043771206
-0.00077039721
-0.0008732333109
-0.0009363577319
-0.001032758476
-0.001120459528
-0.001083235399
-0.0009303677943
-0.0009506493489
-0.00116211975
-0.001189363848
-0.001044060863
-0.001021084394
-0.001236414973
-0.001268610204
-0.001098243913
-0.001042652869
-0.001182361494
-0.001274964608
-0.001184630882
-0.001131797629
-0.001141360455
-0.001224431505
-0.001276069469
-0.001260478965
-0.001222458722
-0.001155520727
-0.001155201912
-0.001263418531
-0.001324509104
-0.001251219254
-0.001166731284
-0.001130783311
-0.001195641222
-0.001269662361
-0.00122483773
-0.001191692347
-0.001144988173
-0.001104934978
-0.001161837073
-0.001189632447
-0.00109534214
-0.0009771168534
-0.0009809344748
-0.001063535729
-0.001028779755
-0.0009646639672
-0.0008594005705
-0.0008337694386
-0.0009563305337
-0.0008378068066
-0.0006478978968
-0.0006846681204
-0.0007204276099
-0.0006510564109
-0.0005959707026
-0.0005640203852
-0.0005208961823
-0.0004170732749
-0.0003484580351
-0.0003488715408
-0.0003056304553
-0.0002157596384
-6.55789959e-05
2.276758735e-05
5.257476844e-05
0.0001297789111
0.0002576183957
0.0003892556302
0.0004148134232
0.0002762878678
-0.002294654398
-0.00531999928
-0.00598199355
-0.006429060883
-0.006792432147
)


100
(
0.00529924178
0.004243495055
0.002735253883
0.002031099797
0.001604463144
0.001269628248
0.001012336374
0.0008092006824
0.000638826816
0.0005020004225
0.0003607943612
0.000241124352
0.0001392524444
4.066927989e-05
-5.681216231e-05
-0.0001423031489
-0.0002046360694
-0.0002636978311
-0.0003427079234
-0.000409073421
-0.0004392091916
-0.0004617353163
-0.0005440266943
-0.0006314644265
-0.0006509364437
-0.0006503786981
-0.0006818698549
-0.0007852456176
-0.0008848010262
-0.0009939036869
-0.001071195438
-0.000949114285
-0.0007953675157
-0.0008853010313
-0.001081755589
-0.001039938842
-0.0009052361134
-0.0009479735928
-0.001094129851
-0.001092876349
-0.0009911721036
-0.0009565780639
-0.001011350276
-0.001115804634
-0.00113251312
-0.001104199969
-0.001055070689
-0.001015379772
-0.00109727413
-0.001178919418
-0.001151742596
-0.001089737622
-0.001034218922
-0.001042175327
-0.001145335615
-0.001167896371
-0.001092341113
-0.001059863908
-0.00100431705
-0.0009784941461
-0.001061297708
-0.001111351534
-0.001009259568
-0.000890338193
-0.0009109009325
-0.001000357431
-0.0009668193685
-0.0008951497713
-0.0008464735605
-0.0007773984859
-0.0008376868542
-0.0008505288927
-0.00067352323
-0.0005610547095
-0.0006278248832
-0.0006488917898
-0.0005669469763
-0.0005249808295
-0.0004997648831
-0.0004563325155
-0.000373083221
-0.0003381254411
-0.0003419470456
-0.0002835580067
-0.000202432998
-0.0001073161125
2.034982931e-05
5.69363796e-05
0.0001031272896
0.0001939390993
0.0002864365788
0.0003547110366
0.0004398791336
0.0005314778405
0.0002186469433
-0.002784082939
-0.005498639537
-0.005726455882
-0.006389728226
-0.006843329947
)


100
(
0.005288051789
0.004248494784
0.002757555315
0.002070273497
0.001650141528
0.001316664266
0.001064247493
0.0008718807535
0.0007005754563
0.0005625010265
0.000440511032
0.000316895635
0.0002141799128
0.0001263845233
4.334167388e-05
-4.499929399e-05
-0.0001228771232
-0.0001746130876
-0.0002220858696
-0.0003007030653
-0.0003733173788
-0.0004005136245
-0.000416877664
-0.0004793214124
-0.0005667056845
-0.0006039112819
-0.0005999635176
-0.0006019307665
-0.0006933239654
-0.0008133530631
-0.000939610507
-0.0009700298561
-0.0008103982948
-0.0007025356816
-0.0008146163653
-0.0009365629627
-0.0008895745745
-0.0008256153988
-0.0008451671736
-0.0009224126405
-0.0009759646988
-0.0009713212651
-0.0009397921306
-0.0008803305934
-0.0009065012332
-0.001010234267
-0.001039118233
-0.0009820965339
-0.0009144687412
-0.0008960644763
-0.0009910375621
-0.001065140623
-0.001015272274
-0.0009634291493
-0.0009291900045
-0.0008846640359
-0.0009364537731
-0.001011056742
-0.0009786902081
-0.0008869477025
-0.0007764672426
-0.0008167270549
-0.0009360990416
-0.0008933669542
-0.0007853826589
-0.0007775538664
-0.0007506363252
-0.0007841849036
-0.0008412388639
-0.0006554330975
-0.0004663343921
-0.0005758693213
-0.0006289738414
-0.0005242801151
-0.0004692326182
-0.0004415995641
-0.0004249113787
-0.0003781525373
-0.0003339349792
-0.0003274012051
-0.0003081992899
-0.0002463662324
-0.0001825971562
-0.0001076614816
3.122910558e-06
-6.631845382e-06
2.584538204e-05
0.0001886170355
0.0002530001124
0.0003310936486
0.0003987842067
0.0004527005564
0.0005370332435
0.0006136165043
-0.0001816599293
-0.003456579836
-0.005441047683
-0.00541857026
-0.006220703962
-0.00659403722
)


100
(
0.005283018736
0.00425261071
0.002774920913
0.002107841305
0.001689122403
0.001362358328
0.001111326986
0.0009211607012
0.0007699609424
0.0006223755759
0.0005047803098
0.000393037318
0.0002882610759
0.0002010098778
0.0001255205876
5.474761496e-05
-2.686844073e-05
-9.983365215e-05
-0.0001446147408
-0.0001825956618
-0.0002594129458
-0.0003368474554
-0.0003636047345
-0.000375488904
-0.0004138929588
-0.000498448676
-0.0005557578504
-0.0005532263063
-0.0005508585891
-0.0005989682448
-0.0007164112403
-0.0008741919339
-0.0008247326603
-0.0006651173972
-0.0006311575281
-0.000699598849
-0.0007817830053
-0.0007977335283
-0.0007949774257
-0.0007644737713
-0.00078347854
-0.0008600666846
-0.0008958461309
-0.0008716801398
-0.0008079399602
-0.000754826141
-0.0008209082743
-0.0009326572686
-0.0009131189787
-0.0008434104028
-0.0008161913655
-0.0007888584831
-0.0008298103074
-0.0008964029598
-0.0008930709555
-0.000856850672
-0.0007421217397
-0.000659627452
-0.0007904239362
-0.0008798108645
-0.0007834960434
-0.0006901479239
-0.0006526246429
-0.0006742224823
-0.0007472360642
-0.0007663737519
-0.0006114462563
-0.0004283612696
-0.0005780723613
-0.0006334422459
-0.0004542553107
-0.0004158801984
-0.0003948793311
-0.0003650720379
-0.0003275046569
-0.0003094952139
-0.0003387094364
-0.0003279931563
-0.0002611452101
-0.0001896666756
-0.000121966941
-6.864493135e-05
-5.449700852e-06
-1.859436246e-05
4.821269849e-06
6.710492615e-05
0.00021020425
0.0002903532621
0.0003204948318
0.0004494183255
0.0004865409949
0.0005318482767
0.0005822263708
0.0006661681514
-0.0007487926434
-0.004136083226
-0.005149865585
-0.004973896682
-0.006094973972
-0.006498309856
)


100
(
0.005284146606
0.004257502077
0.002803759694
0.002140441358
0.00171636471
0.00140243129
0.001162348791
0.0009666268036
0.0008219194258
0.0006846630349
0.0005621211083
0.0004625558289
0.0003620850391
0.0002725290482
0.000196311719
0.0001301411859
6.853765434e-05
-6.037093094e-06
-7.515741855e-05
-0.0001164210712
-0.0001510610483
-0.0002169869045
-0.0002921392825
-0.0003269079991
-0.0003360168724
-0.0003541553051
-0.0004265746399
-0.0004978975297
-0.0005076805716
-0.0005032058409
-0.0005169671077
-0.0005970806802
-0.0006988758647
-0.000673411663
-0.0006029334578
-0.0005983824381
-0.0006002049207
-0.0006670448623
-0.0007363597908
-0.0007276730078
-0.0006880180619
-0.000642593981
-0.0006975602593
-0.0007923312245
-0.0007999264561
-0.0007456121476
-0.0006951401022
-0.0006717674505
-0.0007149610186
-0.0007676899333
-0.0007782096132
-0.0007678818783
-0.0007063227498
-0.0005887389766
-0.0006467103343
-0.0007930366768
-0.0007536806193
-0.0006423947445
-0.0005686229644
-0.0005480581149
-0.0006320445044
-0.0007196295633
-0.0006911769148
-0.0005547627042
-0.0003767781409
-0.0005027437661
-0.0006090755537
-0.0004302743495
-0.0003220664462
-0.0003195657712
-0.0003469498446
-0.0003639904346
-0.0003486832647
-0.0003198448524
-0.0002998208212
-0.0002441401205
-0.0001674857072
-0.0001136681398
-5.833510636e-05
-2.100205527e-05
-5.100049284e-05
-5.924081567e-05
2.690047983e-05
0.0001309149506
0.000202577861
0.0001705723729
0.0002004027258
0.0003555090215
0.0004566528524
0.0005202386205
0.0005348283294
0.0005568824265
0.0006273852336
0.0005783384861
-0.001376288073
-0.004429898836
-0.004698422147
-0.004574685179
-0.00574869507
-0.006132533415
)


100
(
0.005274265915
0.004263413438
0.002823795734
0.00215702662
0.001751300674
0.001437621681
0.001200656577
0.001012542135
0.0008653038009
0.0007496446396
0.0006197874257
0.0005176463665
0.0004326285462
0.0003428800765
0.0002644637575
0.0001959229483
0.000136752987
8.301625222e-05
1.689514066e-05
-4.897264272e-05
-9.02200936e-05
-0.0001207652303
-0.000171741693
-0.0002441504054
-0.0002899382555
-0.0002994857556
-0.0003115172974
-0.0003517901676
-0.0004193686684
-0.0004568317713
-0.0004540614028
-0.0004555652878
-0.000465932921
-0.0005250882391
-0.0005773493583
-0.0005706445454
-0.00055144604
-0.0005107348932
-0.0005196525589
-0.000611195285
-0.0006639379991
-0.0006234860912
-0.0005703050969
-0.0005571407659
-0.0006222762499
-0.0006879470419
-0.0006675473889
-0.000627313867
-0.0006050274614
-0.0005551962494
-0.0005669765307
-0.0006578469165
-0.0006858606365
-0.0005994658259
-0.0004817458707
-0.0004382970188
-0.0005721516258
-0.0006360607984
-0.000552816709
-0.0005618280589
-0.000488114751
-0.0004040412639
-0.0005154860383
-0.0005677993606
-0.0003792743416
-0.0002240139135
-0.0002532730956
-0.0003264979045
-0.0003294540233
-0.0002874988457
-0.0002533750553
-0.0002459619082
-0.0002328885545
-0.0001910858834
-0.0001252739111
-5.135619059e-05
-7.277824932e-05
-0.000101031952
-5.931752657e-05
-1.607415295e-05
4.786190377e-05
0.0001580235194
0.0002374399285
0.0001508764642
9.509445188e-05
0.0002758342283
0.0004365133963
0.000457865269
0.0004187572901
0.0004410248464
0.0005130302277
0.0005741172352
0.0006060704687
0.0004356766044
-0.001669544681
-0.004341166468
-0.004245291893
-0.004155817345
-0.005506673699
-0.006136229373
)


100
(
0.005256832709
0.004260740204
0.002835750352
0.002176575014
0.001780323843
0.00147007493
0.001234666921
0.00106093926
0.000905537137
0.0007905746282
0.0006879998169
0.0005734314978
0.0004843226673
0.000409133024
0.0003313724867
0.0002612401642
0.0001984892994
0.0001452020438
9.871486052e-05
4.178802134e-05
-2.152208196e-05
-6.459934553e-05
-9.073503886e-05
-0.0001253240362
-0.000192891549
-0.0002494955708
-0.0002633009158
-0.0002706967203
-0.0002839975895
-0.0003300786515
-0.0003818714296
-0.0004002822061
-0.0003996032076
-0.0003863972273
-0.0003850061931
-0.0004478722181
-0.0005059069575
-0.000496249726
-0.0004505935265
-0.0004131988258
-0.0004656237664
-0.0005580946121
-0.0005584227208
-0.0005080001906
-0.0004844010476
-0.0004670977881
-0.0005001647223
-0.0005589344612
-0.0005678720403
-0.0005364012528
-0.0004467473562
-0.0003606997019
-0.0004692686113
-0.0005936721791
-0.0005081937605
-0.0004074165477
-0.0003737408199
-0.0003672078839
-0.0004665495647
-0.0005487657111
-0.0005054236495
-0.0003150474522
-0.0001395056366
-0.000303998333
-0.0003711926386
-0.00023175216
-0.0002047006652
-0.0001841315327
-0.0001711897263
-0.0001535081416
-0.0001165890368
-0.0001095207226
-0.0001483152935
-0.0001513145912
-0.0001020259313
-4.844396135e-05
-1.300358097e-06
2.689829955e-05
8.410052618e-05
0.0001793679377
0.000137919455
0.0001090226913
0.0001547770166
0.0002246584594
0.0003948510376
0.0004121877461
0.0003668267312
0.0003825307759
0.0004353259357
0.0004768797654
0.0005107082702
0.0005245516905
0.0006204671862
0.000379858495
-0.001897404404
-0.004159391333
-0.003772815262
-0.003705810141
-0.004965421667
-0.005547957387
)


100
(
0.005226600186
0.004248533469
0.00284228322
0.002201346842
0.001804806797
0.001499161738
0.001264669083
0.001092614293
0.000958377885
0.0008301035836
0.0007329896412
0.0006356088829
0.0005363820103
0.0004592663616
0.0003929194243
0.0003251035937
0.0002621347181
0.0002042248049
0.0001557742623
0.000115881166
6.831880591e-05
7.23286237e-06
-3.905695357e-05
-6.224201427e-05
-8.891876218e-05
-0.0001373395117
-0.0001925591821
-0.0002208721328
-0.0002256009758
-0.0002276967061
-0.0002346081958
-0.0002853725148
-0.0003375878379
-0.0003417403105
-0.0003211175075
-0.0002875253744
-0.0003236834694
-0.0004103591351
-0.0004368035681
-0.0003971256636
-0.0003568890978
-0.0003465210234
-0.0003989256179
-0.0004467602045
-0.0004421473657
-0.0004329627728
-0.0004024936017
-0.0003198526787
-0.0003559449502
-0.0004678877297
-0.0004577001931
-0.0003655371606
-0.0002848360959
-0.0002885855316
-0.0003757996698
-0.0004284405955
-0.0004149506369
-0.0003908501663
-0.0002456863027
-0.0002174640927
-0.0003767829523
-0.0003386339829
-0.0001571416694
-7.129341698e-05
-8.123751671e-05
-0.0001337749853
-0.0001688246788
-0.0001617038416
-0.0001320502646
-0.0001208540094
-0.0001088705462
-6.078104102e-05
-1.08068909e-05
2.981261879e-05
7.519134891e-05
0.0001065545725
5.302125254e-05
1.288361909e-05
5.553495607e-05
0.0001491399049
0.000236030811
0.0002473593216
0.0002739027871
0.000267384944
0.0003377511318
0.0004385147
0.0004392271761
0.0004460496134
0.00041410893
0.000459648866
0.0005252769983
0.0004728063734
0.0005069384845
0.0001265132803
-0.001909925598
-0.00381149703
-0.003327094797
-0.00320469335
-0.00442918059
-0.004971328212
)


100
(
0.005208692592
0.004239937483
0.002853865666
0.002220864177
0.001820537556
0.001523542807
0.001302290166
0.001121087911
0.0009946244457
0.0008755003885
0.0007696185896
0.0006848102344
0.0005933733053
0.0005075403728
0.0004405727748
0.0003818524329
0.000323187835
0.0002669043627
0.0002129521094
0.0001681628424
0.0001337874634
9.546455723e-05
3.850835144e-05
-1.036202613e-05
-3.358032056e-05
-5.289578608e-05
-7.65508566e-05
-0.0001235855258
-0.0001672326475
-0.0001788115934
-0.0001758069052
-0.0001612541985
-0.0001829935365
-0.0002501906364
-0.0002888034262
-0.0002685312049
-0.0002292792298
-0.000218000254
-0.0002830931975
-0.0003519721952
-0.0003394219627
-0.0003043138469
-0.0002821125205
-0.0002651334884
-0.0002903413353
-0.0003481788239
-0.0003648142541
-0.0003160632765
-0.000224622368
-0.000177994911
-0.0002892380009
-0.0003646925427
-0.0002943358447
-0.0002433392732
-0.0002535171915
-0.0002321382376
-0.0002740829435
-0.0003534118899
-0.0002652568521
-0.0001031425959
-2.248800397e-05
-0.000148490824
-0.0001831380885
-9.567189903e-05
-8.700664975e-05
-6.44073243e-05
-5.762529125e-05
-4.517753858e-05
-1.917945168e-05
7.693991066e-06
5.172535658e-05
3.584654752e-05
5.730440384e-06
3.880049854e-05
7.257889829e-05
8.716486564e-05
8.562376926e-05
0.0001746075167
0.000289568508
0.0002378643818
0.0001487365772
0.0001248716555
0.0002844672011
0.0004698791585
0.0004854031628
0.0004210491541
0.0003620467522
0.0003906401315
0.0004157349809
0.000413518728
0.0003860840048
0.0004032435234
0.0004961964329
-0.0001028105111
-0.001916302976
-0.003340101057
-0.002898315027
-0.002813450074
-0.003991934627
-0.004552478103
)


100
(
0.005192704409
0.004233355639
0.002866281508
0.002234147875
0.001842917699
0.001543294506
0.001325142609
0.001151375309
0.001021714201
0.0009236174288
0.0008067172795
0.0007179512622
0.0006459076724
0.0005602827652
0.0004853452952
0.0004269180768
0.0003749947649
0.0003248706694
0.0002747576751
0.000224109462
0.0001818497441
0.0001509854569
0.0001190363175
7.393631278e-05
2.779047759e-05
-6.785285749e-07
-1.39840603e-05
-2.62321388e-05
-4.764108806e-05
-9.10333275e-05
-0.0001270224111
-0.0001284527348
-0.0001063979148
-9.098172576e-05
-0.0001537394525
-0.0002277542398
-0.0002197197288
-0.0001820791671
-0.0001624377091
-0.0001616031623
-0.0002106767518
-0.0002619849
-0.000263486486
-0.0002440004492
-0.0001821598192
-0.0001055957768
-0.0001826359716
-0.0002907549262
-0.0002413275572
-0.0001540996497
-0.0001116786183
-0.0001206870999
-0.0001982667283
-0.0002668427066
-0.0002596098998
-0.000180698714
-4.288461578e-05
-8.787982549e-05
-0.000221428072
-0.0001286928922
9.298440719e-06
3.38812017e-05
1.802860281e-05
3.960624836e-06
-2.345661662e-05
-4.294101304e-05
-2.01011378e-05
-1.411470579e-05
-4.885954534e-06
3.38426082e-05
7.24329798e-05
0.0001136996272
0.0001555645294
0.0001791832111
0.0001984970188
0.0001469264356
8.280413938e-05
0.0001355582132
0.0002319170837
0.0002446663157
0.0002797930689
0.0003190946971
0.0003090262736
0.0003765174844
0.0004091087524
0.0003953353412
0.0004047865434
0.0003933011113
0.0003874884404