/*--------------------------------*- C++ -*----------------------------------*\
| =========                 |                                                 |
| \\      /  F ield         | OpenFOAM: The Open Source CFD Toolbox           |
|  \\    /   O peration     | Version:  2.3.1                                 |
|   \\  /    A nd           | Web:      www.OpenFOAM.org                      |
|    \\/     M anipulation  |                                                 |
\*---------------------------------------------------------------------------*/
FoamFile
{
    version     2.0;
    format      ascii;
    class       dictionary;
    location    "constant";
    object      GRPSI4;
}
// * * * * * * * * * * * * * * * * * * * * * * * * * * * * * * * * * * * * * //

GRPSI4_table
100
(

100
(
-0.002918518957
-0.003781450605
-0.003642516769
-0.003836696224
-0.003998428705
-0.003988651093
-0.004183488352
-0.004201005165
-0.004302779483
-0.004303124561
-0.004303278385
-0.004155424677
-0.004122435953
-0.004139829019
-0.004148122498
-0.004164799783
-0.004186543686
-0.004238857555
-0.004253235188
-0.004264396814
-0.00425827911
-0.004247490223
-0.004238538661
-0.004188088256
-0.004039288391
-0.003951364629
-0.003913795265
-0.003900347358
-0.003904102823
-0.003880320839
-0.003860364149
-0.003670813441
-0.003468736839
-0.003345406614
-0.003284132163
-0.003260420387
-0.003256839431
-0.003262089921
-0.003246467387
-0.00318262987
-0.003046946954
-0.002959550477
-0.002883912883
-0.002737228211
-0.002470192595
-0.002298391768
-0.002184073084
-0.002104353098
-0.001938858177
-0.001841666014
-0.001767375882
-0.001651373213
-0.001368655909
-0.00116281598
-0.00100633822
-0.0007539709641
-0.0003863636828
-0.0001133533018
9.032595153e-05
0.0003523812014
0.0007380819976
0.00105536869
0.001259477025
0.001535041407
0.001937120541
0.002305661866
0.0025602764
0.002997438029
0.003510535959
0.003943073114
0.004392932582
0.005018848834
0.005662737961
0.006200000109
0.006940902376
0.007701398914
0.008562768085
0.009503362953
0.01044429759
0.0117734565
0.01293619951
0.01431494812
0.01611577828
0.0174457786
0.02019175479
0.02195039254
0.02482919023
0.02789016038
0.03083570887
0.03515977278
0.03888563872
0.04388144944
0.04844796174
0.05452547163
0.05999838896
0.06685762541
0.06977445677
0.04009449462
-0.05201183382
0.1595963293
)


100
(
-0.002918380372
-0.003779052617
-0.003683896961
-0.00385593925
-0.003969830388
-0.00403214056
-0.004137263332
-0.004229522312
-0.004292185988
-0.004344931402
-0.00435038529
-0.004235289922
-0.00418424979
-0.004177472321
-0.004181711752
-0.004202125336
-0.004225248785
-0.004250466543
-0.004291643653
-0.004310180548
-0.004297114038
-0.004293772717
-0.004299177758
-0.004260779038
-0.004131891833
-0.004053267664
-0.004008353158
-0.003974391559
-0.00394416078
-0.003938856704
-0.003939298735
-0.003806630649
-0.003629490498
-0.003501887164
-0.00342221629
-0.003365385423
-0.003324157142
-0.00331160827
-0.003317482811
-0.003283967536
-0.003177769809
-0.003089673397
-0.003026057476
-0.002919239778
-0.002707907577
-0.002530888898
-0.002397546548
-0.002296281468
-0.002142014446
-0.002021490227
-0.001929783435
-0.001831400625
-0.001627268715
-0.001438553366
-0.001270607236
-0.001056078668
-0.0007594609861
-0.0005052237774
-0.0002829020787
-3.22618597e-05
0.0003066574746
0.0006061441185
0.0008805524231
0.001184982462
0.001517271849
0.001813086157
0.00210199283
0.002521997964
0.00290298408
0.003284055322
0.003733842599
0.004291140617
0.004773157164
0.005288468064
0.006009135422
0.006641415986
0.007241960588
0.008125040283
0.008989257287
0.009883599143
0.01091818218
0.01191124232
0.01327830009
0.014351968
0.01590009248
0.01746217777
0.01920430034
0.02110317309
0.02334386758
0.02566427272
0.02817829691
0.03094604742
0.03399645815
0.03719287032
0.04089098752
0.04401930719
0.04344633596
0.006126256249
-0.008841725497
0.1027538277
)


100
(
-0.002918128891
-0.003728790524
-0.003749717002
-0.003832717805
-0.00394467542
-0.004100783494
-0.004099044367
-0.004274928759
-0.004296605987
-0.004384836043
-0.004433128753
-0.004351532779
-0.004307643272
-0.004260119543
-0.004235457055
-0.004260069354
-0.004285041093
-0.004285090189
-0.004323177637
-0.004377330059
-0.004367992352
-0.004362584769
-0.004377391444
-0.004380198458
-0.004302636446
-0.004228100692
-0.004171197428
-0.004122721584
-0.004057689142
-0.004037648111
-0.004041436147
-0.004013659392
-0.003906929561
-0.003785711036
-0.003675146297
-0.003580841312
-0.003492904014
-0.003434499272
-0.003414166946
-0.003400643498
-0.003365134217
-0.003303199907
-0.003234189636
-0.003150952491
-0.003035888944
-0.002900636168
-0.002755278776
-0.002611705085
-0.002466231104
-0.002324911538
-0.002197280201
-0.002079330088
-0.001949441782
-0.001794911379
-0.001633274076
-0.001459893921
-0.001268901099
-0.001054269888
-0.0008395159566
-0.0006201825273
-0.0003753456842
-0.0001090241219
0.0001784125849
0.0004945052987
0.0007934170783
0.001055241439
0.001326884225
0.001661046364
0.001972986988
0.002296134716
0.002653104739
0.003048863202
0.0034105633
0.0038454036
0.004364954341
0.004808209382
0.005208684972
0.005843316346
0.006421220544
0.006830731087
0.007519771151
0.008099940406
0.008720174603
0.009519267064
0.009979659668
0.01089213706
0.01156107382
0.01215716438
0.01311742966
0.01360661843
0.01457204084
0.01515114384
0.01623985442
0.0169740408
0.01779368652
0.01752565791
0.01345939824
-0.01822574242
0.02953202373
0.03771900291
)


100
(
-0.002917927929
-0.00359657169
-0.003755177037
-0.003794401895
-0.003985828283
-0.00408810393
-0.004138272409
-0.004245244563
-0.00433348026
-0.004380395383
-0.004484847443
-0.004432454078
-0.004388556948
-0.004356587874
-0.004301400488
-0.004291427363
-0.00432171781
-0.004331257543
-0.004335777718
-0.004376880043
-0.004415871139
-0.004413262871
-0.004412986088
-0.004427278101
-0.00442608548
-0.004369389133
-0.004305966044
-0.004250456646
-0.004201665496
-0.004145359343
-0.004109497487
-0.0040938603
-0.00406423059
-0.004000826195
-0.003890861196
-0.003775884142
-0.003669185977
-0.00358281543
-0.003501137876
-0.003447107225
-0.003407355983
-0.003361773399
-0.003296851167
-0.00320766053
-0.003118920068
-0.003034147576
-0.002937653254
-0.002806178833
-0.00265872473
-0.002517509695
-0.002376828992
-0.00222782233
-0.002081050909
-0.001940948898
-0.001794484347
-0.001633261968
-0.001476982668
-0.001304986936
-0.001124881514
-0.000931795638
-0.0007456169668
-0.0005314057355
-0.0003074944293
-4.688037478e-05
0.000246954233
0.0005430642403
0.0008091434068
0.001088737359
0.001401117092
0.00167998145
0.001953749392
0.002255088912
0.002606472674
0.002918286566
0.003211632462
0.003583732174
0.004022455529
0.004346969575
0.004654730526
0.005101883943
0.005553096867
0.005988675785
0.006344993448
0.006948440207
0.007425429972
0.007821333934
0.008471137286
0.008946747996
0.009379928941
0.009902636968
0.01046802336
0.01107814823
0.01160529679
0.01245224567
0.01259816344
0.01212028574
0.003040387507
0.001385489076
0.02168538395
0.02563193846
)


100
(
-0.002917802027
-0.003486413991
-0.003740976063
-0.003840163965
-0.004032693713
-0.004051033375
-0.00419461378
-0.004209069927
-0.004357412956
-0.004398728766
-0.004472046074
-0.004510181084
-0.004455492254
-0.004432404881
-0.004396926824
-0.004346948172
-0.004343943196
-0.004368382815
-0.004376516222
-0.004376607759
-0.004414148437
-0.004448490539
-0.00445352973
-0.004447169835
-0.004460461475
-0.004461222657
-0.004431747968
-0.004367539403
-0.004304225283
-0.004242384091
-0.00419244264
-0.004133911397
-0.004100539247
-0.004061479148
-0.004008939054
-0.003903650431
-0.003782686543
-0.003673807645
-0.003606324718
-0.003520711034
-0.0034250507
-0.003350988727
-0.003301656952
-0.003237096544
-0.003139958984
-0.003044389286
-0.002985645258
-0.002917913139
-0.002798254581
-0.002658687505
-0.002528390196
-0.002394159931
-0.002243237001
-0.002091413111
-0.001938241508
-0.00178008957
-0.00161638509
-0.001454087896
-0.001282374516
-0.001103138727
-0.0009260720327
-0.0007526605284
-0.0005649021407
-0.0003691986492
-0.0001452459626
0.0001108890092
0.0003787208612
0.0006313741247
0.0008844447079
0.001140297858
0.001419414594
0.00169001265
0.001960012769
0.00223162365
0.00253684494
0.002836858047
0.003160816649
0.00343588079
0.003747303103
0.004164842483
0.004496363886
0.004832339004
0.005294596212
0.005682337298
0.006062821437
0.006455143987
0.006877027905
0.00729115834
0.007794916362
0.008253888325
0.008644327014
0.009147776739
0.009623093939
0.00999409053
0.01058948527
0.008417501144
-0.006365894712
0.01191464843
0.01723924716
0.01980920078
)


100
(
-0.002901896095
-0.003452166625
-0.003756682998
-0.003912202727
-0.004001946507
-0.004080037701
-0.004194974663
-0.004247156365
-0.004330977761
-0.004436565465
-0.004459349159
-0.004538688233
-0.004543855725
-0.004500067375
-0.004477722186
-0.004441435522
-0.004395201059
-0.00439052548
-0.004410051272
-0.004421656848
-0.004419621534
-0.004446616715
-0.004475530773
-0.004487592403
-0.004471506862
-0.004479413925
-0.004476545794
-0.004435573931
-0.004355179146
-0.004282268354
-0.004225657222
-0.004187683757
-0.004122072217
-0.004054446
-0.004017510123
-0.003978710389
-0.00388028873
-0.00375911201
-0.003678303953
-0.003617839066
-0.003528643255
-0.003428498226
-0.0033491037
-0.003293777657
-0.003218431341
-0.003114989611
-0.003028644902
-0.002974060211
-0.002905601167
-0.002795463844
-0.002671260229
-0.002547861595
-0.002413619693
-0.002259283245
-0.002098014913
-0.001933577401
-0.001758812579
-0.001578636192
-0.001402102479
-0.001236082448
-0.001075006554
-0.0009234973647
-0.0007757933042
-0.0006165093548
-0.0004458693984
-0.0002543659646
-4.2189275e-05
0.0001829772198
0.0004450376003
0.0007063674737
0.00096305039
0.001219368718
0.001486183336
0.001761044261
0.002044230588
0.002316674214
0.0025852313
0.002908197216
0.003213987684
0.003515117361
0.003830384562
0.004158704853
0.004543626118
0.004913500206
0.005266011034
0.005656403491
0.006008847318
0.006356213732
0.006771933593
0.007259903306
0.007665213041
0.007997947819
0.008491834737
0.008738826993
0.008925059995
0.007061085127
-0.006232225176
0.01246235067
0.01535335439
0.01726368936
)


100
(
-0.002875587701
-0.003426357378
-0.003769685728
-0.00392493941
-0.003967322343
-0.004136564835
-0.004169111294
-0.004296929442
-0.004315577604
-0.004427291222
-0.004494872566
-0.004539002964
-0.004600419648
-0.004586699352
-0.00454825178
-0.00452476282
-0.004489261463
-0.004445885136
-0.004433886746
-0.004454023267
-0.004469722753
-0.004463783382
-0.004474820902
-0.004492357686
-0.004502456214
-0.004473101224
-0.004450511177
-0.004438859593
-0.004399898415
-0.004328301186
-0.00425230086
-0.004231275642
-0.004194653508
-0.004124427946
-0.004045409935
-0.004025964556
-0.003990956052
-0.003893277874
-0.003762944044
-0.003703485317
-0.003659514566
-0.003569608372
-0.003459132928
-0.003378766748
-0.003315483584
-0.003229579918
-0.003117052087
-0.003023677502
-0.002958720438
-0.002879270827
-0.002762254506
-0.002631564114
-0.002502450219
-0.002371947532
-0.00224239367
-0.002108045066
-0.001954407273
-0.001789374563
-0.001620407619
-0.001453038626
-0.001289990119
-0.001141186385
-0.0009943515617
-0.0008439900871
-0.0006815500572
-0.0005026557595
-0.0002995380777
-8.463528503e-05
0.0001346216208
0.000370365953
0.0006107519154
0.0008534763703
0.001104567898
0.001359872577
0.00161015967
0.001907885305
0.002188665091
0.00248130456
0.002774671189
0.003069396498
0.003396617106
0.003702565529
0.003962343747
0.004292094046
0.004614893093
0.00496340932
0.005336374942
0.005697957103
0.00600833387
0.006423408353
0.006909130925
0.007237699802
0.007695445278
0.007974947089
0.007523256414
0.006121076455
-0.0005548687833
0.01250660604
0.0145123917
0.01611759367
)


100
(
-0.002865103844
-0.003379197633
-0.003744114147
-0.003883631624
-0.004003752536
-0.004142022104
-0.004192273109
-0.004288822545
-0.004349001652
-0.004399390669
-0.004518792601
-0.004561477921
-0.004610751783
-0.004656478876
-0.004631901305
-0.004595670289
-0.004575302208
-0.004530481079
-0.004482509098
-0.00447522346
-0.004492268844
-0.004507586204
-0.004491821024
-0.004481540304
-0.004484573555
-0.004483930744
-0.004457776198
-0.004441898299
-0.004442296171
-0.004402595817
-0.004330682165
-0.004260412306
-0.004260388243
-0.004227820607
-0.004147713067
-0.004075386443
-0.004056831846
-0.004009701775
-0.003892950855
-0.003792389249
-0.003746091816
-0.003700443041
-0.003609158203
-0.003507418408
-0.003421945773
-0.003337399535
-0.003219035035
-0.003086740404
-0.002975836976
-0.00288294998
-0.00278395261
-0.002676720436
-0.002566977754
-0.002459372356
-0.002360423399
-0.002263020982
-0.002158699946
-0.002040352819
-0.001900771333
-0.001738611176
-0.001559811631
-0.001370721629
-0.001180585351
-0.001001632113
-0.0008243094164
-0.0006483614491
-0.0004625456061
-0.0002691018578
-8.745501043e-05
0.0001035652949
0.0003134918524
0.0005321805031
0.000766935581
0.001015947051
0.00127182007
0.001546870847
0.001836790866
0.002111022976
0.002411790991
0.002698275602
0.00296005289
0.003242023032
0.00351197266
0.003807094282
0.004104077856
0.00439769834
0.004698928331
0.005077494266
0.00542140396
0.005743861478
0.00611183275
0.006534823355
0.006923583724
0.007004703359
0.006025418929
0.003297711012
0.003302574341
0.0119455569
0.01346349897
0.01475375316
)


100
(
-0.002864993076
-0.003311831237
-0.003682145393
-0.00386406893
-0.004053292834
-0.00410817461
-0.004240018821
-0.004266922873
-0.004382562398
-0.004414798457
-0.004493621127
-0.004593423055
-0.004620803518
-0.004670074339
-0.004707902054
-0.004677446447
-0.004639857506
-0.004602545059
-0.004576296915
-0.004527578431
-0.004502847501
-0.004510768445
-0.004529353216
-0.004507293391
-0.00448163104
-0.004484136595
-0.004484173981
-0.004474496884
-0.004467636487
-0.00446767856
-0.004419523857
-0.004317628018
-0.004290880847
-0.004303707096
-0.004266741171
-0.004166193019
-0.004108037811
-0.00408487713
-0.004026164969
-0.003911674196
-0.003821344092
-0.003777020559
-0.003730344678
-0.003637371372
-0.003525194226
-0.003414427547
-0.00328979022
-0.003159385398
-0.003038773855
-0.002928432724
-0.002836042533
-0.002753996015
-0.002667953841
-0.002577066148
-0.002475645555
-0.002374550116
-0.002280893052
-0.002181512891
-0.002061257626
-0.001918238261
-0.001750271298
-0.001559192166
-0.001362559101
-0.001167205194
-0.000979729875
-0.0008088499228
-0.0006469513098
-0.0004667469999
-0.000273964502
-7.994571176e-05
0.0001171039405
0.0003225714319
0.0005402329892
0.0007798860292
0.001023806424
0.001264812522
0.001543984807
0.001810721656
0.002061167265
0.002322367844
0.002581893164
0.002859770808
0.003137005089
0.003407016291
0.003665026393
0.003916348987
0.004217114713
0.004569178432
0.004889512613
0.005181566538
0.005500920236
0.005885416608
0.006191449005
0.005726949333
0.00452187151
0.0005415763886
0.003389869287
0.01037433929
0.0117363584
0.01289737259
)


100
(
-0.002864844161
-0.00326021604
-0.003635407658
-0.003882589304
-0.004040528845
-0.00411368481
-0.004247671442
-0.004300244877
-0.004373458327
-0.004449765021
-0.004477345474
-0.004570904218
-0.004648034448
-0.004675774343
-0.00472482087
-0.004755716791
-0.004715938926
-0.004680834613
-0.00465055283
-0.004614233806
-0.004560453405
-0.004525887862
-0.004528434884
-0.004542916592
-0.004535678294
-0.004508466617
-0.004501267182
-0.004500696991
-0.004506122766
-0.00451388413
-0.00447500188
-0.004398252108
-0.004328685662
-0.004319982405
-0.004339761963
-0.004290583135
-0.004208511953
-0.004149554818
-0.004110937228
-0.00402286071
-0.003909202972
-0.003806291172
-0.003733881344
-0.003665175246
-0.00359562387
-0.00350315114
-0.003394680903
-0.003283949282
-0.003173945126
-0.003071601683
-0.002975321441
-0.002876781487
-0.002783513086
-0.002691932394
-0.002586604056
-0.002470476524
-0.002345293956
-0.002221285615
-0.002100507874
-0.001977387388
-0.001841753651
-0.001693399096
-0.001535683932
-0.001368854807
-0.00118898189
-0.001001351775
-0.0008114247505
-0.0006195302778
-0.0004281870125
-0.0002298765216
-2.258305797e-05
0.0001878205968
0.0003712617933
0.0005876235048
0.0008338581787
0.00106672991
0.001293306333
0.00153317907
0.001772582763
0.002023300546
0.002284267702
0.002552871974
0.0028141493
0.003051682157
0.003327907681
0.003617796209
0.003881255072
0.004155072936
0.004443547482
0.00475333454
0.005076434746
0.005369364397
0.005493659718
0.004630544211
0.004210654382
-0.002700748144
0.001111183344
0.008313285797
0.009665724392
0.01063509929
)


100
(
-0.002849374117
-0.003242468578
-0.003616198945
-0.003888179135
-0.003991297681
-0.004149769072
-0.004221393088
-0.004345523864
-0.004367109902
-0.004456086519
-0.00450740913
-0.004542964078
-0.004641893877
-0.004705415955
-0.004724385284
-0.0047651127
-0.004792136407
-0.004761441072
-0.004709484632
-0.004675001188
-0.004652698654
-0.004599268277
-0.00455206428
-0.004557227132
-0.004574601371
-0.004580898607
-0.004552598636
-0.004527762836
-0.004518364093
-0.004518376469
-0.004525781708
-0.004521536453
-0.004393149918
-0.004332172123
-0.004355785225
-0.004379869383
-0.00432600498
-0.004245525415
-0.004158892605
-0.004068020151
-0.003957897177
-0.003842500008
-0.003740122132
-0.003675748671
-0.003631676164
-0.003590230246
-0.003538019046
-0.003448095398
-0.003337933247
-0.003236030082
-0.003131519545
-0.003025563864
-0.00291961676
-0.002799632876
-0.002676588866
-0.002550258908
-0.002416716818
-0.00228617359
-0.002163275332
-0.002048974973
-0.001940618628
-0.001821716683
-0.001683534045
-0.001526527637
-0.001351985183
-0.001163939949
-0.0009659926662
-0.0007629841675
-0.0005571725384
-0.0003813514288
-0.0001968565905
1.449704803e-05
0.0002334271474
0.0004385278774
0.0006405991804
0.000851165622
0.001050752916
0.001257505077
0.001498670699
0.001757116728
0.0020113404
0.002246225156
0.002501646971
0.002784436929
0.003054651918
0.003316322444
0.003559259478
0.003815438241
0.00408695161
0.004383661751
0.004659209883
0.004886207155
0.004793768023
0.004366124428
0.00343281028
-0.005337766855
-0.001017967221
0.006602604662
0.007964533595
0.008674489359
)


100
(
-0.002816370814
-0.003230626826
-0.003599498254
-0.00383050074
-0.003977749722
-0.004155465501
-0.004224052544
-0.004338662891
-0.004404535222
-0.004449652363
-0.004535101375
-0.004571247895
-0.00461925304
-0.004701333889
-0.004748344215
-0.00475903414
-0.004795162124
-0.004825361662
-0.004793832573
-0.004741175867
-0.004710930386
-0.004688130153
-0.004649435795
-0.004605965176
-0.004599636375
-0.004615362187
-0.004631613866
-0.004604049738
-0.004559563174
-0.004539780251
-0.004561760381
-0.004586530843
-0.004525127209
-0.004452072417
-0.004407543137
-0.004397928326
-0.004370978017
-0.004314487489
-0.00421957254
-0.004121163802
-0.004023879384
-0.003937343099
-0.003863907884
-0.003785228453
-0.003708809525
-0.003660018624
-0.003619805303
-0.003567220793
-0.003495003347
-0.003393179017
-0.003274356872
-0.003147309727
-0.003015858604
-0.002892181583
-0.002778379137
-0.002659311181
-0.002542564214
-0.00242773727
-0.0023091052
-0.002189383804
-0.002070485894
-0.001946500108
-0.001805421147
-0.001648807273
-0.001479813283
-0.001301429683
-0.001138584545
-0.0009729101395
-0.0007827664546
-0.0005779417407
-0.0003725779038
-0.0001722917298
3.565855636e-05
0.000220591545
0.0003881817937
0.0005578118197
0.0007594448112
0.000982075909
0.0012160506
0.001444057627
0.001672276347
0.001917367126
0.002178970325
0.002442912082
0.002679595609
0.00294202061
0.003203832297
0.003439668119
0.003709031399
0.003977649704
0.004217290166
0.004364257109
0.004239290361
0.004172246236
0.0007509686388
-0.005417209748
-0.0005646878828
0.005911932687
0.007096248004
0.00785199264
)


100
(
-0.002798695555
-0.003206772513
-0.003556631527
-0.003763045056
-0.003990246552
-0.004113609385
-0.004248927988
-0.004312191302
-0.00443632679
-0.004474328742
-0.004534099495
-0.00460869926
-0.004625986217
-0.004672322823
-0.004748712876
-0.004789747674
-0.004794992826
-0.004829980274
-0.004861318606
-0.004838314305
-0.00477998017
-0.004756517473
-0.004739699788
-0.004712544754
-0.00466961891
-0.004649295305
-0.004659199591
-0.004671724538
-0.004669091413
-0.004631177202
-0.004608233416
-0.004588724616
-0.004625484892
-0.004587631851
-0.004486401285
-0.004405687679
-0.004364051881
-0.004330062318
-0.00430736812
-0.004262230631
-0.00417884885
-0.004093257382
-0.004015358226
-0.003939378897
-0.003867712354
-0.00378707006
-0.003712058355
-0.003656610461
-0.003591796565
-0.003495463241
-0.003381910934
-0.003251869552
-0.003120883012
-0.003009393068
-0.002908952508
-0.002812894502
-0.002711625024
-0.002601480919
-0.002488158504
-0.002360798321
-0.00221693995
-0.002071010555
-0.001927527499
-0.001792344655
-0.001660445104
-0.001514678583
-0.00135915912
-0.001206457127
-0.001037421923
-0.0008302274689
-0.0006275453242
-0.0004422604679
-0.0002781742499
-0.0001187174806
5.469501297e-05
0.000258902884
0.00047501031
0.0006749283438
0.0008510075267
0.001042100189
0.001279524254
0.001525059931
0.001757239041
0.00197335539
0.002229387418
0.002483585846
0.002732599119
0.002981416759
0.003257239162
0.003452319159
0.003656251687
0.003736382003
0.003528473218
0.002961092103
-0.0007890986915
-0.00290394925
0.002145966037
0.006171003381
0.007005868827
0.007630988572
)


100
(
-0.002798568247
-0.00317382123
-0.003501120898
-0.003744724446
-0.003971851459
-0.004083332948
-0.00424618676
-0.004325313619
-0.004420589561
-0.004510944638
-0.004538588893
-0.004598278174
-0.004651897628
-0.004672446248
-0.004722197789
-0.004796541866
-0.00483481255
-0.004837828204
-0.004870839847
-0.004901817617
-0.004890570241
-0.004840061323
-0.004811864688
-0.004797096601
-0.00478396652
-0.004737312669
-0.004699710042
-0.004706146115
-0.004718014179
-0.004723509675
-0.004700268258
-0.004661701947
-0.004637917863
-0.004589707898
-0.004523815019
-0.0044741707
-0.004424924494
-0.004388944186
-0.004380048777
-0.004369372019
-0.004344629812
-0.004278859221
-0.004185811689
-0.004108692442
-0.004032708314
-0.003951504368
-0.003869733451
-0.003771896793
-0.003669205025
-0.003574635438
-0.00347953976
-0.003388440018
-0.003292754472
-0.003180920664
-0.003070594952
-0.002978026555
-0.002882764476
-0.00277498236
-0.002644587985
-0.002501802182
-0.002359479942
-0.002228764854
-0.002104179065
-0.001976058036
-0.001860249471
-0.001741644719
-0.001591299229
-0.001423937763
-0.001258852143
-0.001099751022
-0.000950171554
-0.0008004631016
-0.0006438740953
-0.0004638333941
-0.0002613327168
-5.605520825e-05
0.0001196456856
0.0002763140681
0.0004403357038
0.000652449669
0.0008813614299
0.001072316248
0.001263656542
0.001496119475
0.001741306887
0.001962621102
0.002213082515
0.002469299958
0.002666904403
0.002863670656
0.003022651019
0.003049599584
0.002832013575
0.002229656428
-0.000221927198
0.0002181878083
0.004420298156
0.006507508997
0.007197705702
0.007741109332
)


100
(
-0.002798427995
-0.003149658594
-0.003468366143
-0.003738501082
-0.003910292096
-0.004084690353
-0.004207531012
-0.004344637641
-0.004401995821
-0.004508092806
-0.004567729596
-0.004586451074
-0.004652142727
-0.004702498576
-0.004721594639
-0.004771351114
-0.004843924394
-0.004884723392
-0.004885708206
-0.004913787237
-0.004947474366
-0.004950914566
-0.004905629751
-0.004871571828
-0.004853186093
-0.004835850453
-0.004807942249
-0.004771603487
-0.004754165387
-0.004756187577
-0.004751452851
-0.004736618003
-0.004680986918
-0.00461461392
-0.004573203282
-0.004545225422
-0.004530974355
-0.004504867737
-0.004462778346
-0.004437588917
-0.004427439048
-0.004404584805
-0.004360286466
-0.004283214396
-0.004193807054
-0.004101892405
-0.003996824353
-0.003892218887
-0.003803388755
-0.003714789557
-0.003628867436
-0.003551343369
-0.003466527649
-0.003370004748
-0.003263879788
-0.003152153674
-0.003037407737
-0.002915044452
-0.002786460931
-0.002649857199
-0.002523908956
-0.002410472658
-0.002299512163
-0.002179719854
-0.002051761245
-0.001910238208
-0.001764468296
-0.001619590065
-0.001490975143
-0.001368918835
-0.001247547058
-0.001113611321
-0.0009379331554
-0.0007485571724
-0.000565983396
-0.0004106337845
-0.0002629897579
-9.444988934e-05
0.0001104854215
0.0003106407799
0.0004731457564
0.0006337232065
0.0008419700951
0.001068824742
0.001255529425
0.001488145438
0.001730705436
0.00193450495
0.002126565754
0.002304298287
0.00247000538
0.002615824049
0.002409566955
0.002368339313
1.23015574e-05
0.002032407737
0.00514548031
0.006272412488
0.007006226711
0.007667028405
)


100
(
-0.002776534024
-0.00313930594
-0.003450897384
-0.003701168202
-0.003862943695
-0.004073496361
-0.004179951127
-0.004322536068
-0.004417829937
-0.004486305939
-0.004578516905
-0.004622009901
-0.004651120092
-0.004710842406
-0.004755941191
-0.004772392024
-0.004820044853
-0.004891523837
-0.004935897178
-0.004937028994
-0.004958006524
-0.004993267237
-0.005014252495
-0.004969585622
-0.004920717511
-0.004908430855
-0.004895350967
-0.004883280561
-0.00484006933
-0.004792089609
-0.004772076358
-0.004758633752
-0.004753700949
-0.004729364664
-0.004673807057
-0.004617444226
-0.004592736691
-0.004582304992
-0.004575182217
-0.004538380522
-0.004495570774
-0.004474374229
-0.004449578865
-0.004396407985
-0.004320370721
-0.004221748392
-0.004117469276
-0.004033030106
-0.003955938581
-0.00388413938
-0.003810930682
-0.003724547725
-0.003638747783
-0.003554420882
-0.003449458805
-0.003317882656
-0.003182455901
-0.003054967791
-0.002948201293
-0.002841584938
-0.002722300926
-0.002593657461
-0.002481166548
-0.002364466939
-0.002217649062
-0.002071706034
-0.00194283652
-0.001831614731
-0.001724183693
-0.001612305315
-0.001486261607
-0.001323581376
-0.001154468766
-0.001002476324
-0.0008683825791
-0.0007338060435
-0.0005708562963
-0.0003732813073
-0.0001720081724
-1.847542458e-05
0.0001066786946
0.0003035351693
0.0005076285765
0.0006806463457
0.000866344074
0.001120992878
0.001314752514
0.001464217746
0.001660593907
0.001838486367
0.0019729692
0.002117629727
0.001833612889
0.001421138987
-0.0005846910096
0.00200967174
0.004759276025
0.005609440834
0.006285709111
0.006769128402
)


100
(
-0.002739868394
-0.003130069871
-0.003431332084
-0.003643289198
-0.003847957509
-0.004019493534
-0.004174400057
-0.00428161006
-0.004423524264
-0.004490506915
-0.004563340646
-0.004652084943
-0.004682010334
-0.004710957627
-0.00476925003
-0.004812068948
-0.004826384166
-0.004869966033
-0.004938521613
-0.004989893699
-0.004992003139
-0.005002415811
-0.005033565005
-0.005050477198
-0.005033729062
-0.004993820861
-0.004969271428
-0.004946118037
-0.004912406587
-0.00488122662
-0.004838149241
-0.004804716541
-0.004801126018
-0.004803067272
-0.004797707306
-0.004743121237
-0.004674709866
-0.004643864063
-0.00463135708
-0.004619572131
-0.004606036323
-0.004561788101
-0.004498098655
-0.004434996478
-0.004364514788
-0.004310488006
-0.004267723095
-0.004191653738
-0.004107109291
-0.004040878839
-0.003973027601
-0.003899952457
-0.003819709189
-0.00371631025
-0.003598378668
-0.003476537155
-0.003357509163
-0.003240822658
-0.003130255213
-0.003035694589
-0.002929164086
-0.002804313055
-0.002665903826
-0.00252111598
-0.002379978102
-0.002267080921
-0.002163710998
-0.002061095577
-0.001954564807
-0.001828000735
-0.001671809181
-0.001513285933
-0.001382413602
-0.00126097831
-0.001139623579
-0.0009859360307
-0.0008083329524
-0.0006287357927
-0.0004781503526
-0.0003401918674
-0.0001793899785
3.554802794e-05
0.0002021564463
0.0003421997783
0.000561720762
0.000719984674
0.0008636170345
0.001029161483
0.001183189732
0.001381292793
0.001458527323
0.001447789034
0.001181980976
0.0006440727103
-0.001311558596
0.0009869116533
0.00373451573
0.004734035663
0.005351598818
0.005671140731
)


100
(
-0.002724969263
-0.003110092139
-0.003399082897
-0.003605149295
-0.003830790578
-0.003965669757
-0.004152716022
-0.004267060748
-0.004389763621
-0.00449957552
-0.004556006107
-0.004634271895
-0.004714987605
-0.004738890832
-0.004768163296
-0.00482688745
-0.00487178079
-0.004882843868
-0.004918630067
-0.004982946701
-0.005049623943
-0.005044973714
-0.005036524466
-0.005072573943
-0.00509624221
-0.005104175048
-0.0050597679
-0.004995855128
-0.004964798251
-0.004946988883
-0.004947898872
-0.004918433934
-0.00487816362
-0.004858541415
-0.004855156724
-0.004846988556
-0.004819338034
-0.004752580263
-0.004700313511
-0.004683934032
-0.00466352682
-0.004619239139
-0.0045709305
-0.004499764362
-0.004435431309
-0.004389466027
-0.004355929842
-0.00432038155
-0.004271686371
-0.004195238853
-0.004125543722
-0.00405515814
-0.003954417154
-0.00384858742
-0.003748796427
-0.003652351784
-0.003557286379
-0.003453258956
-0.003340764574
-0.003231464124
-0.00312862115
-0.00300717585
-0.002866799894
-0.002736067086
-0.002626826367
-0.002523817371
-0.002420340018
-0.002312041828
-0.002179861326
-0.002021749841
-0.001874929107
-0.001763064271
-0.00165510914
-0.001538533276
-0.001395163121
-0.00123335033
-0.001071687593
-0.0009224443109
-0.0007863394477
-0.00064313178
-0.0004613828923
-0.0003131514797
-0.0001449114975
4.370237407e-05
0.0001995759377
0.0002513931645
0.0004069467291
0.0006014206697
0.0007821772616
0.0008695761294
0.0009574904088
0.00088633135
0.0006524001153
-4.578093763e-05
-0.001938342485
8.604420818e-05
0.002626960613
0.003754064396
0.004409116716
0.004730125146
)


100
(
-0.00272492516
-0.00308598725
-0.00336753235
-0.00358952658
-0.003780226988
-0.003944321023
-0.0041007272
-0.004258131516
-0.004351179077
-0.004470944687
-0.00456423806
-0.004616016103
-0.004699782476
-0.004774393713
-0.00479659809
-0.004826187399
-0.004886112645
-0.004933604863
-0.004938583279
-0.004980330996
-0.005049645047
-0.005091285087
-0.005104064131
-0.00510066872
-0.005118548113
-0.005131685038
-0.005120290589
-0.005094796591
-0.005056087065
-0.005023399952
-0.005008985654
-0.005011194972
-0.005009147317
-0.004967102382
-0.004922173449
-0.004918180206
-0.004909032084
-0.004880077135
-0.004836992816
-0.004779102893
-0.004707256712
-0.004659140537
-0.004625830372
-0.004605708086
-0.004573580967
-0.004507785813
-0.00444208075
-0.004416518209
-0.004386867549
-0.004342428116
-0.004277216295
-0.004173553395