/*--------------------------------*- C++ -*----------------------------------*\
| =========                 |                                                 |
| \\      /  F ield         | OpenFOAM: The Open Source CFD Toolbox           |
|  \\    /   O peration     | Version:  2.3.1                                 |
|   \\  /    A nd           | Web:      www.OpenFOAM.org                      |
|    \\/     M anipulation  |                                                 |
\*---------------------------------------------------------------------------*/
FoamFile
{
    version     2.0;
    format      ascii;
    class       dictionary;
    location    "constant";
    object      GRPSI17;
}
// * * * * * * * * * * * * * * * * * * * * * * * * * * * * * * * * * * * * * //

GRPSI17_table
100
(

100
(
-7.746132002e-06
-1.816270168e-05
-2.74747061e-05
-3.542453932e-05
-3.9208049e-05
-4.145543775e-05
-4.767738122e-05
-4.561175555e-05
-4.850307585e-05
-4.652776917e-05
-4.648146123e-05
-4.54508269e-05
-4.438370929e-05
-4.439902e-05
-4.213554357e-05
-4.048571364e-05
-3.978202839e-05
-3.683881658e-05
-3.392756613e-05
-3.293749714e-05
-2.973544228e-05
-2.627390874e-05
-2.43289311e-05
-2.224912362e-05
-1.806086099e-05
-1.513527191e-05
-1.378965273e-05
-1.119503989e-05
-7.039930882e-06
-4.378191143e-06
-2.990901577e-06
3.22135907e-07
4.187447476e-06
6.432561777e-06
7.660223105e-06
9.774538108e-06
1.405304748e-05
1.690464484e-05
1.833065421e-05
2.030130771e-05
2.405395357e-05
2.695997391e-05
2.831662361e-05
3.018803124e-05
3.351230406e-05
3.631371505e-05
3.749941355e-05
3.843930613e-05
4.146290856e-05
4.437467307e-05
4.623320871e-05
4.741505485e-05
4.991268863e-05
5.227476805e-05
5.396347167e-05
5.525945259e-05
5.728557257e-05
5.932043899e-05
6.184545933e-05
6.839268833e-05
8.111008586e-05
8.257810621e-05
7.545719058e-05
7.884527316e-05
9.023052158e-05
9.149725051e-05
8.501960637e-05
9.213550233e-05
0.0001012654612
9.867474555e-05
9.613681011e-05
0.0001053560197
0.0001094659067
0.0001027947422
0.0001140522621
0.0001209642758
0.0001119043133
0.0001200352661
0.0001260600377
0.0001164331464
0.0001269315466
0.0001251503453
0.0001241836665
0.00013538877
0.0001230425949
0.000132616868
0.0001298985929
0.0001303741127
0.000135830829
0.0001338674325
0.000138826341
0.0001404598988
0.0001461959632
0.000147656724
0.0001537498723
0.0001535490492
0.0001549242833
0.0001475881639
8.94899321e-05
4.123160919e-05
)


100
(
-7.742205301e-06
-1.805069376e-05
-2.683358864e-05
-3.397147409e-05
-3.619411406e-05
-3.945305893e-05
-4.133172291e-05
-4.253043766e-05
-4.237446105e-05
-4.240403203e-05
-4.139082865e-05
-3.948980096e-05
-3.829333164e-05
-3.706111341e-05
-3.467126666e-05
-3.294308768e-05
-3.152043033e-05
-2.82147341e-05
-2.595597949e-05
-2.426597709e-05
-2.124566205e-05
-1.832290345e-05
-1.619184744e-05
-1.409143983e-05
-1.063596428e-05
-7.923996823e-06
-6.093981227e-06
-3.934974023e-06
-8.233146207e-07
1.787448227e-06
3.658852601e-06
6.171083517e-06
9.070484783e-06
1.152553916e-05
1.333742232e-05
1.503112204e-05
1.774513926e-05
2.01559869e-05
2.235084601e-05
2.436919389e-05
2.685817103e-05
2.912428074e-05
3.120715459e-05
3.359208792e-05
3.590024601e-05
3.78905381e-05
3.962920546e-05
4.137282194e-05
4.371375503e-05
4.544417456e-05
4.707773512e-05
4.92586142e-05
5.288608864e-05
5.517032289e-05
5.727253292e-05
5.978055137e-05
6.412228338e-05
6.605903658e-05
6.805890646e-05
7.121392328e-05
7.93229334e-05
8.750202498e-05
9.168223039e-05
9.179452474e-05
9.220041523e-05
9.649455024e-05
9.983384246e-05
0.0001016985447
0.0001027265819
0.0001055243867
0.0001073919953
0.0001085698932
0.0001103201369
0.0001120943013
0.0001149409874
0.0001203585638
0.0001268118691
0.0001274524824
0.0001276281366
0.0001326121765
0.0001333942079
0.0001355867219
0.0001398788841
0.0001433180373
0.000145986346
0.0001498284755
0.0001533554427
0.000156702489
0.0001607960417
0.0001648272401
0.000169078952
0.0001731993335
0.0001782357353
0.0001829557647
0.0001878175747
0.0001924333412
0.0001956125623
0.0001685312238
0.0001174010918
7.369000848e-05
)


100
(
-7.734363782e-06
-1.729109406e-05
-2.532664551e-05
-2.918606383e-05
-3.211222003e-05
-3.553265414e-05
-3.366928248e-05
-3.659977324e-05
-3.419011182e-05
-3.425378181e-05
-3.329331551e-05
-3.031780988e-05
-2.906785532e-05
-2.678041097e-05
-2.412125628e-05
-2.239339279e-05
-2.053217583e-05
-1.75979707e-05
-1.561595252e-05
-1.370288783e-05
-1.123935737e-05
-9.083979022e-06
-6.947942032e-06
-4.898709635e-06
-2.631425515e-06
-5.092546544e-07
1.737398723e-06
3.746860277e-06
5.57793266e-06
7.518511306e-06
9.628710869e-06
1.18134229e-05
1.370898131e-05
1.580778701e-05
1.797630021e-05
2.005325091e-05
2.185899349e-05
2.349995288e-05
2.540142963e-05
2.747459743e-05
2.99110729e-05
3.229295012e-05
3.459912157e-05
3.711526518e-05
4.002772462e-05
4.384092398e-05
4.639150141e-05
4.893580412e-05
5.174531267e-05
5.635478094e-05
5.854863759e-05
6.112689636e-05
6.398523165e-05
6.88400985e-05
7.150205144e-05
7.369572884e-05
7.661526238e-05
8.230167281e-05
8.461049365e-05
8.364607255e-05
8.214812079e-05
8.856691612e-05
9.848700593e-05
0.0001014387636
9.87877689e-05
0.0001001026084
0.0001064275477
0.0001065329316
0.0001055818529
0.0001110262325
0.0001157710917
0.0001150918334
0.0001170165209
0.0001249050219
0.0001254943535
0.0001259313875
0.0001316407847
0.0001352802204
0.0001399652855
0.0001459102578
0.0001458853729
0.0001534686589
0.0001593208906
0.0001586149188
0.0001710535816
0.0001721094385
0.0001786838621
0.0001834361838
0.0001861906686
0.0001925478421
0.0001964986446
0.0002023195117
0.0002051134142
0.0002134579885
0.0002186422297
0.0002270923007
0.000233075973
0.0001854628162
0.0001541551984
0.0001233176599
)


100
(
-7.726549722e-06
-1.508344249e-05
-2.203579763e-05
-2.531110805e-05
-2.98137593e-05
-3.08545214e-05
-3.120959771e-05
-3.102376987e-05
-3.098074996e-05
-2.893698787e-05
-2.902288178e-05
-2.648907038e-05
-2.4656289e-05
-2.328453042e-05
-2.091297138e-05
-1.905259398e-05
-1.772190648e-05
-1.589721449e-05
-1.39151905e-05
-1.22644681e-05
-1.051865818e-05
-8.645425962e-06
-6.847464238e-06
-4.941426317e-06
-3.032158871e-06
-1.271085835e-06
5.771648951e-07
2.696505915e-06
4.874335441e-06
6.708227588e-06
8.444772293e-06
1.051193696e-05
1.283653324e-05
1.539301975e-05
1.742954745e-05
1.989579631e-05
2.274067253e-05
2.635943729e-05
2.839318754e-05
3.058078586e-05
3.348694394e-05
3.713354552e-05
4.094801177e-05
4.282498373e-05
4.56549928e-05
4.979864299e-05
5.591771538e-05
5.787620512e-05
6.031256903e-05
6.471324897e-05
7.083602133e-05
7.306078789e-05
7.39250399e-05
7.759484588e-05
8.241556917e-05
8.463705806e-05
8.43138186e-05
8.897476803e-05
9.358519261e-05
9.582052139e-05
9.23810257e-05
8.958613875e-05
9.100963497e-05
9.591722316e-05
9.983187928e-05
9.966563309e-05
0.0001008489866
0.0001055296884
0.0001095628852
0.0001115459669
0.0001152463293
0.0001205547192
0.0001244434613
0.0001244414642
0.0001229166673
0.0001264609406
0.0001293516511
0.000132531837
0.0001378968602
0.0001408801656
0.0001483745063
0.0001527419763
0.0001516702795
0.0001528815889
0.000157453888
0.000159687714
0.000164795277
0.000168247995
0.0001689036522
0.0001664179651
0.0001716297627
0.0001791671537
0.00017892277
0.0001862960024
0.0001922119117
0.0001991712792
0.0002017456572
0.0001652853868
0.0001552343358
0.000141471008
)


100
(
-7.720024081e-06
-1.346849756e-05
-1.921963498e-05
-2.398777177e-05
-2.748034805e-05
-2.752541002e-05
-2.92845012e-05
-2.803120884e-05
-2.901272411e-05
-2.765454583e-05
-2.688443158e-05
-2.615387669e-05
-2.400955028e-05
-2.282860313e-05
-2.153299571e-05
-1.970216715e-05
-1.828782504e-05
-1.7071743e-05
-1.558787916e-05
-1.389347136e-05
-1.225505407e-05
-1.053785223e-05
-8.732060543e-06
-6.858437028e-06
-4.817811258e-06
-2.769462718e-06
-9.318630047e-07
8.628890707e-07
3.258808688e-06
6.113649579e-06
8.991755846e-06
1.104050615e-05
1.346990285e-05
1.652589243e-05
2.042914864e-05
2.254293423e-05
2.485822975e-05
2.820062874e-05
3.394974255e-05
3.64470594e-05
3.820331618e-05
4.061619561e-05
4.566798423e-05
4.932048692e-05
5.049507725e-05
5.110031825e-05
5.676559885e-05
6.26329678e-05
6.367054053e-05
6.349765223e-05
6.841422593e-05
7.349289596e-05
7.561182699e-05
7.555570429e-05
7.899723615e-05
8.352228196e-05
8.603938848e-05
8.557034685e-05
8.692758151e-05
8.973893417e-05
9.12392413e-05
9.020755637e-05
8.850714647e-05
8.895561038e-05
9.262524704e-05
9.807933568e-05
0.0001008975006
0.0001028978671
0.0001063593642
0.0001094533466
0.000112970903
0.0001137456443
0.0001136244564
0.0001131160707
0.0001135608153
0.0001125270047
0.0001192650597
0.0001202975073
0.0001205659677
0.0001232159047
0.0001200626193
0.000118395422
0.0001232309594
0.000124405643
0.0001243348155
0.0001226910722
0.0001249070546
0.0001258814256
0.0001207604409
0.0001228779412
0.0001263779387
0.0001249844027
0.000128810489
0.0001304194849
0.0001338601609
0.0001399992624
0.0001275599827
0.0001254969033
0.0001320215605
0.0001339067803
)


100
(
-6.929137744e-06
-1.309163214e-05
-1.830055674e-05
-2.249063517e-05
-2.481611936e-05
-2.650031713e-05
-2.745358634e-05
-2.770208108e-05
-2.758397272e-05
-2.801783578e-05
-2.662793656e-05
-2.643534868e-05
-2.551192771e-05
-2.384933705e-05
-2.286000818e-05
-2.171048426e-05
-2.007196312e-05
-1.868951143e-05
-1.740220119e-05
-1.586179125e-05
-1.39851522e-05
-1.212573584e-05
-1.005528483e-05
-7.789666404e-06
-5.447064927e-06
-2.986919528e-06
-5.0267965e-07
1.488975587e-06
3.184802308e-06
5.668779879e-06
9.263798665e-06
1.303363528e-05
1.516133628e-05
1.712370992e-05
2.087354482e-05
2.524118479e-05
2.690344257e-05
2.771835602e-05
3.176634261e-05
3.740627504e-05
3.94275276e-05
4.022318689e-05
4.217826156e-05
4.742678476e-05
5.087767133e-05
5.096476096e-05
5.159154526e-05
5.709167128e-05
6.248122268e-05
6.271815611e-05
6.296649302e-05
6.67595782e-05
7.080973072e-05
7.167589554e-05
7.011598272e-05
7.083209313e-05
7.282935333e-05
7.299308014e-05
7.280846263e-05
7.286934141e-05
7.412409284e-05
7.57908801e-05
7.803411132e-05
8.095816114e-05
8.292773887e-05
8.581549505e-05
8.818129795e-05
8.719112403e-05
8.762276613e-05
8.721990016e-05
8.5815297e-05
8.511953133e-05
8.716590387e-05
9.153474938e-05
9.662159121e-05
9.459550229e-05
8.829725002e-05
8.833378902e-05
8.486957296e-05
8.204616095e-05
8.234527251e-05
8.196453318e-05
8.276209248e-05
8.05597153e-05
7.829177938e-05
7.812598586e-05
7.35901876e-05
6.933826696e-05
6.355460392e-05
6.668051795e-05
6.697901648e-05
6.161922103e-05
6.433716791e-05
6.086627664e-05
6.113872504e-05
6.649642726e-05
4.959681735e-05
7.508646718e-05
9.68068548e-05
0.000110786918
)


100
(
-5.622023048e-06
-1.249589237e-05
-1.728703843e-05
-2.075853066e-05
-2.290550777e-05
-2.565770657e-05
-2.616963317e-05
-2.771037465e-05
-2.730763242e-05
-2.802893255e-05
-2.790424112e-05
-2.690939752e-05
-2.684307102e-05
-2.574048672e-05
-2.425838269e-05
-2.328462249e-05
-2.207168508e-05
-2.032163402e-05
-1.873529127e-05
-1.708985946e-05
-1.513743058e-05
-1.289978155e-05
-1.066453239e-05
-8.086703828e-06
-5.124500023e-06
-2.405611667e-06
2.362962222e-07
2.687619383e-06
4.224294751e-06
5.365072177e-06
7.261258202e-06
1.1534915e-05
1.501649346e-05
1.655680659e-05
1.75039173e-05
2.213442372e-05
2.633376748e-05
2.76191357e-05
2.707163282e-05
3.198805544e-05
3.738994027e-05
3.935219207e-05
3.90657802e-05
4.173646209e-05
4.676502566e-05
4.981434537e-05
4.903135925e-05
4.895733566e-05
5.324501126e-05
5.579166474e-05
5.453796795e-05
5.229836166e-05
5.255062423e-05
5.316889183e-05
5.361889128e-05
5.402636348e-05
5.39997872e-05
5.407355125e-05
5.636448169e-05
5.925943134e-05
6.0937434e-05
6.128914761e-05
6.370279759e-05
6.547538454e-05
6.363844251e-05
6.063246652e-05
5.952171072e-05
5.784422703e-05
5.510740916e-05
5.505177854e-05
5.568845589e-05
5.709176756e-05
5.967786677e-05
5.934012258e-05
5.486197031e-05
5.529432699e-05
4.90933098e-05
4.575480579e-05
4.479074631e-05
4.646605882e-05
4.619741436e-05
4.221894321e-05
3.449756572e-05
3.194909381e-05
2.833631419e-05
2.626518782e-05
1.972707393e-05
1.570729231e-05
1.582607736e-05
1.170222978e-05
6.395146384e-06
4.900390571e-06
-5.919146849e-07
-4.176647411e-06
-5.201793485e-06
-3.500308517e-06
-7.583512529e-06
2.36032298e-05
5.158833933e-05
7.581742518e-05
)


100
(
-5.100782682e-06
-1.163440362e-05
-1.597691536e-05
-1.903370818e-05
-2.213235483e-05
-2.448253817e-05
-2.58765544e-05
-2.7123188e-05
-2.794312977e-05
-2.781430113e-05
-2.886227695e-05
-2.814635243e-05
-2.744969436e-05
-2.732221073e-05
-2.594688129e-05
-2.445046556e-05
-2.328826844e-05
-2.188174205e-05
-1.989274954e-05
-1.796700704e-05
-1.588140101e-05
-1.348985446e-05
-1.116287907e-05
-8.997016376e-06
-6.407769446e-06
-3.296312249e-06
-4.451098773e-07
2.169175121e-06
4.34161371e-06
5.224346985e-06
5.626013245e-06
7.327372509e-06
1.212173617e-05
1.527748585e-05
1.601124264e-05
1.714987071e-05
2.208983697e-05
2.607420226e-05
2.601419633e-05
2.637749663e-05
3.095942095e-05
3.583335793e-05
3.674710295e-05
3.676557226e-05
3.867582362e-05
4.229538589e-05
4.196470518e-05
3.944771068e-05
3.653770521e-05
3.709726735e-05
3.616003528e-05
3.565052834e-05
3.489702456e-05
3.477527985e-05
3.611324168e-05
3.885310742e-05
4.179923572e-05
4.33837765e-05
4.390647197e-05
4.571373231e-05
4.691574509e-05
4.461223694e-05
4.072622475e-05
3.698230202e-05
3.424970782e-05
3.076854348e-05
2.94436495e-05
3.084369988e-05
3.126654589e-05
3.244300728e-05
3.336609794e-05
2.937506363e-05
2.373868122e-05
1.915329193e-05
1.412293449e-05
1.212196935e-05
1.43711929e-05
1.438931898e-05
1.325490207e-05
8.348881294e-06
5.415031474e-07
-3.879981155e-06
-6.318932432e-06
-8.858574221e-06
-1.428758756e-05
-2.124588433e-05
-2.398624771e-05
-2.726645026e-05
-2.50132815e-05
-2.814673554e-05
-3.599450504e-05
-4.06440036e-05
-4.378927988e-05
-4.646533107e-05
-4.754027794e-05
-5.041972115e-05
-4.717381414e-05
-2.062106116e-05
4.714935788e-06
3.145985432e-05
)


100
(
-5.095948165e-06
-1.02966911e-05
-1.442046821e-05
-1.790666759e-05
-2.129824372e-05
-2.325437134e-05
-2.573316931e-05
-2.648022646e-05
-2.827759239e-05
-2.835161814e-05
-2.872350609e-05
-2.953389796e-05
-2.83850324e-05
-2.781431134e-05
-2.744942908e-05
-2.581079745e-05
-2.416846231e-05
-2.272919645e-05
-2.094723543e-05
-1.892701687e-05
-1.702415759e-05
-1.487095357e-05
-1.245606752e-05
-1.043926013e-05
-8.846203595e-06
-6.559636114e-06
-3.457457054e-06
-1.756685726e-07
2.749361438e-06
4.783638585e-06
5.175548038e-06
4.586292302e-06
7.143575975e-06
1.20090307e-05
1.48603062e-05
1.468866246e-05
1.669938493e-05
2.147943919e-05
2.467046656e-05
2.406074708e-05
2.419490079e-05
2.72992181e-05
2.980359997e-05
2.867213671e-05
2.632147938e-05
2.532774651e-05
2.486054867e-05
2.356661304e-05
2.221963798e-05
2.103406812e-05
2.100881777e-05
2.233725633e-05
2.470748452e-05
2.69244864e-05
2.739729511e-05
2.688375926e-05
2.833850008e-05
2.905352969e-05
2.669564244e-05
2.263150352e-05
1.888886962e-05
1.590764184e-05
1.21079172e-05
1.019791696e-05
1.116000507e-05
1.150874779e-05
1.110241687e-05
1.248349995e-05
1.139395289e-05
5.38364916e-06
-1.238030569e-06
-6.926979413e-06
-1.204116807e-05
-1.245484875e-05
-1.141890338e-05
-1.223852257e-05
-1.36519348e-05
-1.936258471e-05
-2.64977163e-05
-3.1614753e-05
-3.330437328e-05
-3.50077199e-05
-3.847153641e-05
-4.353242377e-05
-4.66584357e-05
-4.948061914e-05
-5.105016128e-05
-5.398981259e-05
-5.438763831e-05
-5.735255631e-05
-6.14537506e-05
-6.28122487e-05
-6.397638285e-05
-6.427222721e-05
-6.488750241e-05
-7.102885123e-05
-6.596309103e-05
-4.972451595e-05
-3.072978623e-05
-9.210539515e-06
)


100
(
-5.091359827e-06
-9.324718791e-06
-1.329584202e-05
-1.702409711e-05
-2.011673947e-05
-2.256122181e-05
-2.503848966e-05
-2.652543007e-05
-2.772380694e-05
-2.905994522e-05
-2.874611024e-05
-2.949838465e-05
-2.978533798e-05
-2.848146817e-05
-2.785212215e-05
-2.716259854e-05
-2.537771136e-05
-2.359932171e-05
-2.196224728e-05
-2.022209994e-05
-1.850381318e-05
-1.698202701e-05
-1.500248118e-05
-1.268373462e-05
-1.0854365e-05
-9.664046695e-06
-7.806241187e-06
-4.694988678e-06
-8.995591195e-07
2.621608238e-06
4.626715562e-06
4.282005777e-06
3.812151806e-06
6.772587629e-06
1.134724304e-05
1.311750626e-05
1.317915787e-05
1.46728934e-05
1.81885515e-05
1.874131223e-05
1.694633834e-05
1.447709171e-05
1.415960498e-05
1.30822903e-05
1.145157601e-05
9.750290119e-06
8.977689434e-06
9.544296766e-06
1.116277804e-05
1.321027247e-05
1.444526991e-05
1.42077932e-05
1.436451873e-05
1.560988392e-05
1.620609388e-05
1.39520218e-05
9.411589707e-06
4.694093991e-06
3.204728707e-07
-4.162846847e-06
-6.974828677e-06
-7.084053595e-06
-7.055131676e-06
-6.999198967e-06
-5.416876838e-06
-4.814232836e-06
-9.175104528e-06
-1.553844435e-05
-2.128813344e-05
-2.681068197e-05
-3.061098804e-05
-3.101122012e-05
-3.192264662e-05
-3.215487177e-05
-3.356963414e-05
-3.939850819e-05
-4.537036877e-05
-4.984399425e-05
-5.166951738e-05
-5.288908551e-05
-5.466429408e-05
-5.782611221e-05
-6.060969678e-05
-6.17094559e-05
-6.187278035e-05
-6.220407101e-05
-6.436058535e-05
-6.402519595e-05
-6.527112821e-05
-6.672469479e-05
-6.761638798e-05
-6.758904561e-05
-6.841642311e-05
-6.758934837e-05
-6.973544216e-05
-7.607807256e-05
-7.040215766e-05
-6.131756195e-05
-5.045368177e-05
-3.528379582e-05
)


100
(
-4.672352866e-06
-8.79973356e-06
-1.250046197e-05
-1.605867849e-05
-1.887145302e-05
-2.200895365e-05
-2.397934139e-05
-2.652692524e-05
-2.725129478e-05
-2.887212826e-05
-2.954885063e-05
-2.919091003e-05
-3.004472482e-05
-2.987818396e-05
-2.845526878e-05
-2.768788613e-05
-2.687707827e-05
-2.518462765e-05
-2.363375857e-05
-2.200733578e-05
-2.039380221e-05
-1.896855095e-05
-1.780186112e-05
-1.603651233e-05
-1.374784659e-05
-1.190697225e-05
-1.089394027e-05
-9.516942543e-06
-6.568269772e-06
-2.636976362e-06
1.264931307e-06
3.39457037e-06
2.384005923e-06
2.259215538e-06
4.864879699e-06
8.092809864e-06
8.171746204e-06
6.995100943e-06
6.171176433e-06
6.113838811e-06
4.423716044e-06
2.020582013e-06
-2.239200167e-07
-9.688425148e-07
-5.233067377e-07
5.590922418e-07
1.523953377e-06
1.837616857e-06
2.116990719e-06
3.435059306e-06
5.036643526e-06
5.31844703e-06
3.175651932e-06
-8.183534066e-07
-5.180697521e-06
-9.496987241e-06
-1.397263584e-05
-1.767861975e-05
-1.959394038e-05
-2.046109024e-05
-2.113478789e-05
-2.045402888e-05
-1.997504172e-05
-2.246046877e-05
-2.718151272e-05
-3.151009552e-05
-3.613617511e-05
-4.149275439e-05
-4.508858366e-05
-4.603670248e-05
-4.644327516e-05
-4.615533167e-05
-4.824063712e-05
-5.253730037e-05
-5.681269824e-05
-6.089383783e-05
-6.280813486e-05
-6.329360449e-05
-6.393067735e-05
-6.519768143e-05
-6.653727774e-05
-6.725734191e-05
-6.717097012e-05
-6.632097852e-05
-6.600750994e-05
-6.619349135e-05
-6.562010778e-05
-6.520258669e-05
-6.497518396e-05
-6.484877097e-05
-6.462650493e-05
-6.482763364e-05
-6.407632286e-05
-6.497768549e-05
-6.777144785e-05
-7.222331431e-05
-6.769444937e-05
-6.231229961e-05
-5.599352356e-05
-4.620599696e-05
)


100
(
-3.777289505e-06
-8.192716784e-06
-1.168268965e-05
-1.480555343e-05
-1.800013213e-05
-2.114500388e-05
-2.330973215e-05
-2.568334836e-05
-2.740212894e-05
-2.821167151e-05
-2.983883575e-05
-2.99311881e-05
-2.974692717e-05
-3.038234929e-05
-2.998346446e-05
-2.863958915e-05
-2.786850799e-05
-2.712225418e-05
-2.577289108e-05
-2.4391479e-05
-2.285408669e-05
-2.12906343e-05
-2.006506069e-05
-1.91125677e-05
-1.75841502e-05
-1.535601291e-05
-1.348328362e-05
-1.251740697e-05
-1.156062542e-05
-9.176780483e-06
-5.53284295e-06
-1.615973978e-06
-4.129755264e-07
-1.432672982e-06
-2.511380946e-06
-2.142315385e-06
-2.280636336e-06
-4.00736211e-06
-6.034104033e-06
-7.574672979e-06
-7.991264038e-06
-7.781714875e-06
-7.569218767e-06
-7.444404834e-06
-7.393073831e-06
-6.789614302e-06
-5.42666634e-06
-4.329191875e-06
-4.814843549e-06
-6.484199699e-06
-8.766435273e-06
-1.173688783e-05
-1.564450868e-05
-2.034946677e-05
-2.56918707e-05
-2.879089663e-05
-3.035627378e-05
-3.095143425e-05
-3.022943077e-05
-2.992461504e-05
-3.174433985e-05
-3.428775203e-05
-3.758250033e-05
-4.1594836e-05
-4.7299724e-05
-5.304567886e-05
-5.455752831e-05
-5.527836518e-05
-5.542693844e-05
-5.593123275e-05
-5.801276969e-05
-6.003724332e-05
-6.232601578e-05
-6.522210787e-05
-6.644870677e-05
-6.657593802e-05
-6.696636473e-05
-6.711591825e-05
-6.72491844e-05
-6.753492591e-05
-6.747145965e-05
-6.599622108e-05
-6.450148572e-05
-6.359992616e-05
-6.344710712e-05
-6.207214601e-05
-6.08124809e-05
-6.030629936e-05
-5.963045332e-05
-5.880892784e-05
-5.858580988e-05
-5.839467665e-05
-5.854802036e-05
-5.993247319e-05
-6.046245686e-05
-6.433819263e-05
-6.109477866e-05
-5.821285734e-05
-5.39915988e-05
-4.73059352e-05
)


100
(
-3.297311024e-06
-7.435048198e-06
-1.064339271e-05
-1.366184216e-05
-1.717138236e-05
-1.993729876e-05
-2.281897084e-05
-2.45522657e-05
-2.717684959e-05
-2.813504092e-05
-2.921076478e-05
-3.059759213e-05
-3.026700603e-05
-3.025767516e-05
-3.083928493e-05
-3.04553121e-05
-2.92503532e-05
-2.855438598e-05
-2.794974394e-05
-2.691510585e-05
-2.563116729e-05
-2.421522301e-05
-2.266726144e-05
-2.154636143e-05
-2.073546436e-05
-1.949307871e-05
-1.750898458e-05
-1.571740028e-05
-1.482228765e-05
-1.418371415e-05
-1.27666251e-05
-1.043322271e-05
-8.03668446e-06
-8.506450369e-06
-1.052019662e-05
-1.262580891e-05
-1.383166634e-05
-1.458880806e-05
-1.526415549e-05
-1.565273164e-05
-1.548688801e-05
-1.485815504e-05
-1.369770879e-05
-1.231930997e-05
-1.181846877e-05
-1.20439518e-05
-1.267569205e-05
-1.356798736e-05
-1.544714045e-05
-1.909042967e-05
-2.450558336e-05
-2.933231715e-05
-3.309014097e-05
-3.530317602e-05
-3.651739994e-05
-3.703431911e-05
-3.838001183e-05
-3.865062631e-05
-3.957269552e-05
-4.098936613e-05
-4.337265868e-05
-4.828025703e-05
-5.348928256e-05
-5.636561274e-05
-5.800441013e-05
-5.982160273e-05
-6.125593084e-05
-6.185783042e-05
-6.176890223e-05
-6.257756181e-05
-6.410537892e-05
-6.584990375e-05
-6.627258885e-05
-6.648435629e-05
-6.617474649e-05
-6.522071808e-05
-6.441872289e-05
-6.386658234e-05
-6.353944291e-05
-6.285533822e-05
-6.111759104e-05
-5.925453396e-05
-5.845542848e-05
-5.782342307e-05
-5.645366116e-05
-5.458127106e-05
-5.444420024e-05
-5.325194069e-05
-5.225109994e-05
-5.145599825e-05
-5.061741357e-05
-5.067090482e-05
-5.060517023e-05
-5.12895794e-05
-5.281664395e-05
-5.525895582e-05
-5.304780601e-05
-5.167194844e-05
-4.967283142e-05
-4.326256021e-05
)


100
(
-3.294092378e-06
-6.593748626e-06
-9.625225475e-06
-1.283164428e-05
-1.613656147e-05
-1.889796086e-05
-2.192335547e-05
-2.399372235e-05
-2.605057656e-05
-2.822593464e-05
-2.879114525e-05
-3.004467177e-05
-3.109904643e-05
-3.079270448e-05
-3.093409104e-05
-3.153031517e-05
-3.125936946e-05
-3.020931149e-05
-2.960486456e-05
-2.907336083e-05
-2.828554998e-05
-2.71235523e-05
-2.580754504e-05
-2.430922457e-05
-2.33140561e-05
-2.259647721e-05
-2.170059538e-05
-2.028003909e-05
-1.895374254e-05
-1.854812216e-05
-1.864899992e-05
-1.865135415e-05
-1.812041817e-05
-1.799276238e-05
-1.899967694e-05
-2.050392473e-05
-2.123461384e-05
-2.137430374e-05
-2.113409185e-05
-2.052673444e-05
-2.007086335e-05
-1.955182161e-05
-1.880069529e-05
-1.830910681e-05
-1.791427902e-05
-1.861375297e-05
-2.125879493e-05
-2.499445148e-05
-2.887283193e-05
-3.305575688e-05
-3.657196252e-05
-3.947515398e-05
-4.199980426e-05
-4.240759121e-05
-4.192491325e-05
-4.279860344e-05
-4.348005539e-05
-4.542238901e-05
-4.909842696e-05
-5.158219754e-05
-5.390347345e-05
-5.643664778e-05
-5.972670051e-05
-6.274748214e-05
-6.216254445e-05
-6.155568015e-05
-6.221173648e-05
-6.270314054e-05
-6.343175928e-05
-6.387079779e-05
-6.429241025e-05
-6.479423396e-05
-6.433036045e-05
-6.268710706e-05
-6.08836285e-05
-5.939545633e-05
-5.836496551e-05
-5.770152169e-05
-5.658180972e-05
-5.482788202e-05
-5.322834697e-05
-5.216195423e-05
-5.16338705e-05
-5.006054766e-05
-4.85450311e-05
-4.805336742e-05
-4.742472314e-05
-4.611212773e-05
-4.515903231e-05
-4.468054117e-05
-4.418963353e-05
-4.357453868e-05
-4.349855063e-05
-4.453468843e-05
-4.704525412e-05
-4.737142394e-05
-4.574798691e-05
-4.512738779e-05
-4.431224875e-05
-3.962334406e-05
)


100
(
-3.2915519e-06
-5.978157477e-06
-8.871321483e-06
-1.195868109e-05
-1.49133435e-05
-1.806217795e-05
-2.062014829e-05
-2.345255124e-05
-2.498291335e-05
-2.737486939e-05
-2.896514449e-05
-2.941982931e-05
-3.085910555e-05
-3.176123708e-05
-3.151412318e-05
-3.176340056e-05
-3.237464745e-05
-3.226433053e-05
-3.133903489e-05
-3.077658849e-05
-3.027660969e-05
-2.972524489e-05
-2.869899972e-05
-2.753497859e-05
-2.622516838e-05
-2.531660581e-05
-2.490453154e-05
-2.452700436e-05
-2.40189369e-05
-2.371783689e-05
-2.40436566e-05
-2.513244401e-05
-2.559058196e-05
-2.567520296e-05
-2.569722619e-05
-2.576198547e-05
-2.607092547e-05
-2.585617209e-05
-2.507984359e-05
-2.432401717e-05
-2.375275075e-05
-2.334869319e-05
-2.383734803e-05
-2.464673624e-05
-2.610481846e-05
-2.851115662e-05
-3.173124776e-05
-3.548439733e-05
-4.04902355e-05
-4.266832521e-05
-4.355183258e-05
-4.445354096e-05
-4.551893379e-05
-4.658270353e-05
-4.797860228e-05
-4.851540254e-05
-4.933443911e-05
-5.184241358e-05
-5.408869806e-05
-5.845740665e-05
-6.064841475e-05
-6.010780068e-05
-6.044934827e-05
-6.200885196e-05
-6.301805716e-05
-6.270866366e-05
-6.156457004e-05
-6.104189406e-05
-6.110071066e-05
-6.121061387e-05
-6.072274571e-05
-5.961004368e-05
-5.81838196e-05
-5.631295436e-05
-5.479940357e-05
-5.368862471e-05
-5.248055308e-05
-5.099043722e-05
-4.920425741e-05
-4.742056179e-05
-4.679072576e-05
-4.614647162e-05
-4.457975029e-05
-4.29779224e-05
-4.243014688e-05
-4.217465617e-05
-4.069521926e-05
-3.970574619e-05
-3.934293545e-05
-3.901991409e-05
-3.891338806e-05
-3.877884849e-05
-3.946611141e-05
-4.062928362e-05
-4.16172038e-05
-4.12692015e-05
-3.993843766e-05
-3.931953282e-05
-3.883055923e-05
-3.726483521e-05
)


100
(
-2.949286465e-06
-5.514143585e-06
-8.166867963e-06
-1.098912711e-05
-1.384437605e-05
-1.705793789e-05
-1.95106704e-05
-2.229111767e-05
-2.451546375e-05
-2.61023791e-05
-2.848400244e-05
-2.970333658e-05
-3.031288461e-05
-3.17154355e-05
-3.256764041e-05
-3.239606014e-05
-3.268608238e-05
-3.328699043e-05
-3.335262294e-05
-3.257330346e-05
-3.200260841e-05
-3.153571942e-05
-3.127704646e-05
-3.041822754e-05
-2.947284118e-05
-2.860592321e-05
-2.804360156e-05
-2.832839199e-05
-2.862020604e-05
-2.888089221e-05
-2.928455016e-05
-2.981000468e-05
-3.074794302e-05
-3.108013717e-05
-3.054501196e-05
-2.962082928e-05
-2.919589213e-05
-2.872489451e-05
-2.870719658e-05
-2.813630922e-05
-2.770939985e-05
-2.811386647e-05
-2.940502424e-05
-3.161994962e-05
-3.545446881e-05
-3.90133258e-05
-4.16040301e-05
-4.37661399e-05
-4.570596049e-05
-4.771243079e-05
-4.992511832e-05
-4.91980562e-05
-4.870991348e-05
-5.027620462e-05
-5.204133543e-05
-5.343850291e-05
-5.653592277e-05
-5.73676017e-05
-5.749325058e-05
-5.961450431e-05
-6.204272604e-05
-6.409707947e-05
-6.162368105e-05
-5.981015618e-05
-6.009378844e-05
-5.930885104e-05
-5.880121213e-05
-5.829999338e-05
-5.788839884e-05
-5.725600974e-05
-5.593213845e-05
-5.416381966e-05
-5.192536025e-05
-5.04841122e-05
-4.949604322e-05
-4.861107131e-05
-4.707706283e-05
-4.498554601e-05
-4.354985586e-05
-4.264053312e-05
-4.136205398e-05
-4.031742164e-05
-3.862570264e-05
-3.833633983e-05
-3.782082271e-05
-3.654803525e-05
-3.559654707e-05
-3.507302615e-05
-3.486820541e-05
-3.455907113e-05
-3.436106922e-05
-3.438312128e-05
-3.508164334e-05
-3.581804207e-05
-3.629567797e-05
-3.624715929e-05
-3.548954705e-05
-3.444517812e-05
-3.390536528e-05
-3.171439066e-05
)


100
(
-2.376349516e-06
-5.034092269e-06
-7.467620181e-06
-1.001248032e-05
-1.293451257e-05
-1.574691719e-05
-1.862366608e-05
-2.086678543e-05
-2.374146755e-05
-2.542506258e-05
-2.724374444e-05
-2.960259927e-05
-3.04874093e-05
-3.118005685e-05
-3.259602035e-05
-3.347031161e-05
-3.338173671e-05
-3.365899352e-05
-3.422406773e-05
-3.453381503e-05
-3.391303542e-05
-3.331655744e-05
-3.29834021e-05
-3.280864367e-05
-3.253742038e-05
-3.209207475e-05
-3.181481733e-05
-3.196264383e-05
-3.253288853e-05
-3.349255518e-05
-3.381542579e-05
-3.371212736e-05
-3.38706538e-05
-3.399272632e-05
-3.431262009e-05
-3.333262379e-05
-3.199733357e-05
-3.149188981e-05
-3.137309386e-05
-3.171186651e-05
-3.310869322e-05
-3.451607123e-05
-3.63674874e-05
-3.92169914e-05
-4.212515038e-05
-4.573839341e-05
-4.994795559e-05
-5.053290628e-05
-4.931499635e-05
-5.04854601e-05
-5.178037605e-05
-5.340468057e-05
-5.480651038e-05
-5.494744124e-05
-5.5060974e-05
-5.650370264e-05
-5.850631123e-05
-6.193119088e-05
-6.244479339e-05
-5.996717816e-05
-6.060465077e-05
-6.174074424e-05
-6.109154932e-05
-5.945196209e-05
-5.775062655e-05
-5.617157146e-05
-5.54724165e-05
-5.501398285e-05
-5.385865889e-05
-5.226797451e-05
-5.059952713e-05
-4.886836746e-05
-4.744102294e-05
-4.653576274e-05
-4.539104317e-05
-4.395658896e-05
-4.174439736e-05
-4.008932109e-05
-3.900511186e-05
-3.844052563e-05
-3.722743198e-05
-3.610158868e-05
-3.496151329e-05
-3.415889403e-05
-3.368804307e-05
-3.268270592e-05
-3.205798915e-05
-3.164078509e-05
-3.133980221e-05
-3.126383687e-05
-3.098561109e-05
-3.098821168e-05
-3.123982356e-05
-3.230179172e-05
-3.293103078e-05
-3.200337064e-05
-3.171927954e-05
-3.070056804e-05
-2.98598882e-05
-2.705944718e-05
)


100
(
-2.143648122e-06
-4.483301506e-06
-6.741921913e-06
-9.187679683e-06
-1.200286457e-05
-1.452217329e-05
-1.750877103e-05
-1.984365757e-05
-2.229937881e-05
-2.486503964e-05
-2.630279347e-05
-2.83127358e-05
-3.05656035e-05
-3.128517235e-05
-3.203182212e-05
-3.345299645e-05
-3.443994151e-05
-3.444453121e-05
-3.464556546e-05
-3.521735539e-05
-3.583201981e-05
-3.541206182e-05
-3.481854648e-05
-3.480629443e-05
-3.491093328e-05
-3.554068291e-05
-3.566131925e-05
-3.557736899e-05
-3.598817769e-05
-3.648752637e-05
-3.770925288e-05
-3.751465291e-05
-3.66608881e-05
-3.594797953e-05
-3.585280433e-05
-3.58339851e-05
-3.580164746e-05
-3.485323334e-05
-3.468032519e-05
-3.580312352e-05
-3.780276154e-05
-4.037425969e-05
-4.464035929e-05
-4.663103574e-05
-4.780006087e-05
-4.890112537e-05
-5.132359795e-05
-5.374446881e-05
-5.554826061e-05
-5.386163241e-05
-5.341039277e-05
-5.53567177e-05
-5.610952283e-05
-5.784373587e-05
-5.957745395e-05
-5.950365063e-05