/*--------------------------------*- C++ -*----------------------------------*\
| =========                 |                                                 |
| \\      /  F ield         | OpenFOAM: The Open Source CFD Toolbox           |
|  \\    /   O peration     | Version:  2.3.1                                 |
|   \\  /    A nd           | Web:      www.OpenFOAM.org                      |
|    \\/     M anipulation  |                                                 |
\*---------------------------------------------------------------------------*/
FoamFile
{
    version     2.0;
    format      ascii;
    class       dictionary;
    location    "constant";
    object      GRPSI5;
}
// * * * * * * * * * * * * * * * * * * * * * * * * * * * * * * * * * * * * * //

GRPSI5_table
100
(

100
(
4.709834471e-05
1.948767011e-05
1.03964744e-05
-1.152556526e-05
-1.715836038e-05
-2.701767019e-05
-4.209880537e-05
-4.400843607e-05
-5.083588681e-05
-5.508886494e-05
-5.501612538e-05
-6.561088257e-05
-6.84536254e-05
-7.051152172e-05
-7.577088848e-05
-7.703050189e-05
-7.690246616e-05
-7.97911836e-05
-7.892701702e-05
-7.702118594e-05
-7.732516775e-05
-7.584121779e-05
-7.359553864e-05
-7.274564724e-05
-7.37059846e-05
-7.157340073e-05
-6.975418776e-05
-6.890656015e-05
-6.766627768e-05
-6.422217415e-05
-6.188981488e-05
-6.227159278e-05
-6.222888347e-05
-6.009801168e-05
-5.822830932e-05
-5.648604476e-05
-5.448885107e-05
-5.12503981e-05
-4.817048494e-05
-4.639604372e-05
-4.524161058e-05
-4.27604836e-05
-3.982732915e-05
-3.823957893e-05
-3.774705941e-05
-3.597372116e-05
-3.351697891e-05
-3.12242883e-05
-2.911063552e-05
-2.620069239e-05
-2.268393794e-05
-1.967576238e-05
-1.78465082e-05
-1.551724512e-05
-1.268269308e-05
-1.038840267e-05
-8.657613539e-06
-6.022874289e-06
-2.764166007e-06
4.306732878e-07
2.89441479e-06
5.073174582e-06
7.151903503e-06
8.437010922e-06
9.28185261e-06
1.090927367e-05
1.287261846e-05
1.385605523e-05
1.491883794e-05
1.637538314e-05
1.76305738e-05
1.866873937e-05
2.066377462e-05
2.338167314e-05
2.571156152e-05
2.742282465e-05
2.854594619e-05
2.851855603e-05
2.836157004e-05
2.862863974e-05
2.869177135e-05
2.868886932e-05
2.928815834e-05
2.998179665e-05
2.913311791e-05
3.003082116e-05
3.10566232e-05
3.044835416e-05
3.331330015e-05
3.21734545e-05
3.474812214e-05
3.604673635e-05
4.199822114e-05
4.389905787e-05
5.128840216e-05
5.208428376e-05
5.703790055e-05
5.460963617e-05
1.919049509e-05
5.21127993e-06
)


100
(
4.70913185e-05
1.784639643e-05
8.625570556e-06
-6.485707445e-06
-1.040987469e-05
-2.251561273e-05
-2.968844394e-05
-3.599724304e-05
-3.894577348e-05
-4.353930712e-05
-4.441794736e-05
-5.026487881e-05
-5.326937072e-05
-5.446637336e-05
-5.687340711e-05
-5.766570916e-05
-5.706649718e-05
-5.727031891e-05
-5.634529381e-05
-5.415069217e-05
-5.279929306e-05
-5.118481485e-05
-4.865587197e-05
-4.659205365e-05
-4.594664653e-05
-4.45631433e-05
-4.235276007e-05
-4.042041524e-05
-3.865195826e-05
-3.632708173e-05
-3.339783021e-05
-3.198543621e-05
-3.127000693e-05
-2.995283094e-05
-2.788118571e-05
-2.567547234e-05
-2.349501493e-05
-2.103966803e-05
-1.80576313e-05
-1.521283618e-05
-1.318495696e-05
-1.117637177e-05
-8.767511925e-06
-6.355611941e-06
-4.97378619e-06
-3.650744421e-06
-1.968763222e-06
1.048674648e-07
2.108566612e-06
4.044158431e-06
6.180647806e-06
8.564339844e-06
1.072404703e-05
1.241560213e-05
1.392490973e-05
1.54178121e-05
1.70972651e-05
1.854714629e-05
2.013232796e-05
2.226071336e-05
2.486152337e-05
2.671246092e-05
2.825036604e-05
2.949905587e-05
3.019710624e-05
3.057955031e-05
3.142116988e-05
3.239859485e-05
3.275867635e-05
3.326247561e-05
3.409115079e-05
3.494585397e-05
3.544613305e-05
3.666298027e-05
3.931241923e-05
4.227289721e-05
4.427442139e-05
4.590446227e-05
4.755303679e-05
4.82102784e-05
4.914549471e-05
5.085073464e-05
5.303821019e-05
5.546316359e-05
5.729523747e-05
5.895655067e-05
6.155345426e-05
6.367004004e-05
6.718587068e-05
7.298566391e-05
7.914642857e-05
8.502127481e-05
9.297828181e-05
0.0001066634418
0.0001125408276
0.0001222598138
0.0001356988328
9.749312073e-05
4.784089077e-05
2.2395172e-05
)


100
(
4.707318358e-05
2.059598532e-05
9.924172954e-06
6.881276228e-06
-1.41879188e-07
-1.092841035e-05
-1.082874148e-05
-1.812275009e-05
-1.792436245e-05
-1.977717305e-05
-2.176343534e-05
-2.168244716e-05
-2.344912578e-05
-2.344218373e-05
-2.227564042e-05
-2.146080568e-05
-1.984173193e-05
-1.706856778e-05
-1.516166404e-05
-1.246068038e-05
-9.16850497e-06
-6.85194956e-06
-4.228939579e-06
-7.374430646e-07
2.030233815e-06
3.430966057e-06
5.587894615e-06
8.647953504e-06
1.111096455e-05
1.264575893e-05
1.522301992e-05
1.846905905e-05
2.05222221e-05
2.148888721e-05
2.305780175e-05
2.529114239e-05
2.766814531e-05
2.944684523e-05
3.151352606e-05
3.431652106e-05
3.743361187e-05
3.971361741e-05
4.127492273e-05
4.307123088e-05
4.50411088e-05
4.699846725e-05
4.808059737e-05
4.905223738e-05
5.040396839e-05
5.233336129e-05
5.324384045e-05
5.397249253e-05
5.511822268e-05
5.674415596e-05
5.739147017e-05
5.731199471e-05
5.758843425e-05
5.865589733e-05
5.864906044e-05
5.794377413e-05
5.846660144e-05
5.974111598e-05
6.010308906e-05
6.045649955e-05
6.101287219e-05
6.095556502e-05
6.046272643e-05
6.093319496e-05
6.236837606e-05
6.427690304e-05
6.641871709e-05
6.918147913e-05
7.212129852e-05
7.529804709e-05
7.860149853e-05
8.166365028e-05
8.48967651e-05
8.963762078e-05
9.403895332e-05
9.712517898e-05
0.000100923832
0.0001053187109
0.0001089789728
0.0001122279746
0.0001174683963
0.0001234611931
0.0001312594685
0.000141632582
0.0001508100817
0.000164810568
0.00017796171
0.0001911426803
0.0002058046921
0.0002213998115
0.0002421491509
0.000270515366
0.0002905501984
0.0001817248213
0.0001129583108
7.01739057e-05
)


100
(
4.704705135e-05
3.190415336e-05
2.024800071e-05
1.785463361e-05
6.555638439e-06
5.056852633e-06
1.999194955e-06
1.854427689e-06
4.728818425e-07
2.284909585e-06
2.23668312e-06
3.419896348e-06
4.317330476e-06
5.009549156e-06
6.973994115e-06
9.283429711e-06
1.193342353e-05
1.520670448e-05
1.82735269e-05
2.112179278e-05
2.471050167e-05
2.794384121e-05
3.054592001e-05
3.363966323e-05
3.725358575e-05
3.995572058e-05
4.18849338e-05
4.428627528e-05
4.702620475e-05
4.917268676e-05
5.077539694e-05
5.288979739e-05
5.537935114e-05
5.765843273e-05
5.864304038e-05
5.957149835e-05
6.106825003e-05
6.329320302e-05
6.466085773e-05
6.596717546e-05
6.774181575e-05
6.999118716e-05
7.20604761e-05
7.273763235e-05
7.348499215e-05
7.539914981e-05
7.820720118e-05
7.898635899e-05
7.918632855e-05
8.055084514e-05
8.27597365e-05
8.323582513e-05
8.28308256e-05
8.379081279e-05
8.5489504e-05
8.57703697e-05
8.508553845e-05
8.625732959e-05
8.780272173e-05
8.791486237e-05
8.688369621e-05
8.705411046e-05
8.801029093e-05
8.915314514e-05
9.049537836e-05
9.236900121e-05
9.438097998e-05
9.687172943e-05
9.970708262e-05
0.0001026229632
0.000106287673
0.000111453558
0.0001180465419
0.0001238186142
0.000127828578
0.000132087434
0.000137228797
0.0001413530595
0.0001450745358
0.000151188686
0.0001583713969
0.0001655524315
0.0001742018112
0.0001845463169
0.0001955776085
0.0002062788289
0.0002171521247
0.0002325793118
0.0002519314215
0.0002732875941
0.000284049812
0.0003007695415
0.0003222806416
0.0003421581695
0.0003808140021
0.000425375482
0.0004157636226
0.0002618113682
0.0001843044714
0.0001365272632
)


100
(
4.701841976e-05
3.943239036e-05
2.917302454e-05
2.154099267e-05
1.599783956e-05
1.90321776e-05
1.606669299e-05
1.886231844e-05
1.922154078e-05
2.112862563e-05
2.404780929e-05
2.577633012e-05
2.79592238e-05
2.977578948e-05
3.198200204e-05
3.455531014e-05
3.748104593e-05
4.109692742e-05
4.460022851e-05
4.743486115e-05
5.046013568e-05
5.404721139e-05
5.715596773e-05
5.962912974e-05
6.263233264e-05
6.606342802e-05
6.905367242e-05
7.089877021e-05
7.26724229e-05
7.466388609e-05
7.678609258e-05
7.786321916e-05
7.92034751e-05
8.093230909e-05
8.315539539e-05
8.372979827e-05
8.379317573e-05
8.463805447e-05
8.760343238e-05
8.896503967e-05
8.911899985e-05
8.985199052e-05
9.250046556e-05
9.454100407e-05
9.461406831e-05
9.444023637e-05
9.756323755e-05
0.0001012741312
0.0001017341848
0.0001011732567
0.0001032229281
0.0001059901397
0.0001069884143
0.0001070190614
0.000108599285
0.0001111524556
0.0001131615601
0.0001145375017
0.0001167330825
0.0001199207621
0.0001229227401
0.0001251152238
0.000127221615
0.0001297499996
0.0001332509926
0.0001375592137
0.000141618034
0.0001447675155
0.000147612564
0.0001507477687
0.0001544590741
0.0001578549829
0.0001615121911
0.0001663434784
0.0001728085338
0.0001789250145
0.000185135039
0.0001916471323
0.0002000825885
0.0002105834106
0.0002211572168
0.0002331727106
0.000248105122
0.0002637624164
0.0002799193524
0.0002959689507
0.0003101140676
0.0003270010542
0.000356574626
0.0003759710223
0.000385881776
0.0004157297644
0.0004403452461
0.0004826631916
0.0005276482071
0.000580821577
0.0004825835656
0.0003395549469
0.0002559488771
0.0002152526701
)


100
(
4.365343786e-05
3.879140354e-05
3.088319878e-05
2.566601661e-05
2.852298358e-05
2.866460763e-05
3.100460056e-05
3.242537904e-05
3.593548252e-05
3.839167831e-05
4.164192455e-05
4.48626004e-05
4.745163494e-05
4.998077508e-05
5.25483094e-05
5.517428683e-05
5.766749123e-05
6.078458663e-05
6.455096669e-05
6.778685105e-05
7.023511938e-05
7.304470201e-05
7.630405319e-05
7.930856953e-05
8.13984828e-05
8.422843375e-05
8.73824076e-05
8.964921613e-05
9.056557914e-05
9.163006266e-05
9.353922808e-05
9.604938119e-05
9.693123344e-05
9.716852553e-05
9.897088597e-05
0.0001016090464
0.00010192759
0.0001011896883
0.0001029721438
0.0001063843176
0.0001075860028
0.0001074785917
0.0001084231938
0.0001115613825
0.000113626747
0.000113348821
0.0001141957893
0.0001183547313
0.0001228222598
0.0001239658411
0.0001250832182
0.0001284322323
0.0001325754813
0.000135282647
0.0001366408941
0.0001392878563
0.0001429217219
0.000145743479
0.0001482201501
0.000151233493
0.0001553748569
0.0001600762301
0.0001653638557
0.0001712049515
0.0001761250139
0.0001809373553
0.0001860387497
0.0001913286315
0.0001977636576
0.0002033080761
0.0002077450141
0.0002119500544
0.0002165206252
0.000221178347
0.0002267031898
0.0002336591583
0.0002425806779
0.0002543422585
0.0002669350749
0.0002799715851
0.0002942260813
0.0003096624915
0.0003264257851
0.0003436235409
0.0003620988623
0.000382586668
0.0004051410168
0.0004283885747
0.0004573483206
0.0004780300714
0.0005023717456
0.0005357457057
0.0005740140222
0.0006262780338
0.000686419432
0.0007374910389
0.0005503848197
0.0004335381532
0.0003388487262
0.0003142569495
)


100
(
3.810173977e-05
3.672691167e-05
3.214793441e-05
3.365555478e-05
3.769472312e-05
3.84526052e-05
4.292937611e-05
4.573566472e-05
4.909232841e-05
5.316030547e-05
5.62850339e-05
6.000337235e-05
6.373424151e-05
6.645862296e-05
6.90046352e-05
7.168887723e-05
7.413444397e-05
7.627552297e-05
7.948136527e-05
8.295046163e-05
8.609574382e-05
8.825030198e-05
9.066221038e-05
9.354938023e-05
9.654511029e-05
9.814101451e-05
9.999270516e-05
0.0001025796888
0.0001043900849
0.0001050761523
0.0001057658263
0.0001092018288
0.0001119101716
0.00011248318
0.0001120859521
0.0001151857627
0.0001182866574
0.0001183214236
0.0001166415982
0.0001196456527
0.0001241993496
0.00012556862
0.0001250007788
0.0001270700269
0.0001313820543
0.0001343990247
0.0001350559483
0.0001370997917
0.00014273815
0.0001484315214
0.0001515180398
0.0001533162246
0.0001567113083
0.0001607808677
0.0001654374672
0.0001703414621
0.0001735274257
0.0001760767933
0.000179701825
0.0001841066148
0.0001885266816
0.0001926768708
0.0001990204974
0.0002065490746
0.000213699443
0.0002212517494
0.0002293837641
0.0002370114046
0.000244637509
0.0002540505802
0.0002642071308
0.0002733710846
0.0002818751498
0.0002893517607
0.0002964572787
0.0003057400622
0.0003157971923
0.0003278749105
0.0003413219372
0.0003555316893
0.0003716664247
0.0003888620396
0.0004068057385
0.0004275888829
0.0004503194872
0.0004755665338
0.0005036878481
0.0005306564632
0.0005504759349
0.0005812142782
0.0006224899999
0.0006603544423
0.0007151681676
0.0007740368137
0.0008472447112
0.0008872867072
0.0006537020606
0.0005462174723
0.0004437294786
0.0004380484465
)


100
(
3.589223508e-05
3.785933415e-05
3.701293931e-05
4.138461393e-05
4.319368355e-05
4.826497576e-05
5.192453653e-05
5.71943286e-05
6.05033339e-05
6.46639696e-05
6.929006187e-05
7.260195451e-05
7.652631354e-05
8.042036834e-05
8.298753149e-05
8.534896099e-05
8.774988085e-05
8.989286996e-05
9.259937139e-05
9.519359602e-05
9.85502753e-05
0.0001018449047
0.0001037258267
0.0001055412544
0.0001078748101
0.0001104082138
0.0001119083133
0.00011372746
0.0001164847787
0.0001179435636
0.0001184353098
0.0001194784091
0.0001242114973
0.0001273494238
0.0001273475101
0.0001276156101
0.0001317116496
0.0001350613366
0.0001341176454
0.0001342616671
0.0001387551943
0.0001442116134
0.0001460964452
0.0001475204073
0.0001511579926
0.0001566866684
0.0001600849366
0.000161547038
0.0001637991928
0.0001688874035
0.0001735199179
0.0001784671735
0.0001827630229
0.0001864434773
0.0001914589596
0.0001977847162
0.0002045743606
0.0002112607613
0.0002163846296
0.0002217830758
0.0002275827486
0.0002331210405
0.0002392605861
0.0002457987525
0.0002535895275
0.0002621977571
0.0002718484782
0.0002823245695
0.0002922098308
0.0003032183612
0.0003160442729
0.0003287742181
0.0003416240694
0.0003534245862
0.0003647954788
0.0003781604154
0.0003925603219
0.0004067463177
0.0004226273731
0.0004395803654
0.0004572320622
0.0004762971742
0.0004963532377
0.0005192812922
0.0005446015029
0.0005718054746
0.0006004212012
0.0006308151507
0.0006533822928
0.0006854630528
0.0007345480462
0.000786906981
0.000849345402
0.0009202671984
0.0009958397343
0.0009961577893
0.0007500201234
0.0006526954232
0.0005520868198
0.000580087464
)


100
(
3.586889042e-05
4.210818931e-05
4.297783787e-05
4.550957604e-05
4.918557789e-05
5.56542689e-05
6.075384956e-05
6.573049314e-05
7.119039167e-05
7.473042817e-05
7.955429919e-05
8.432379313e-05
8.748395698e-05
9.146840436e-05
9.550357009e-05
9.797840445e-05
0.0001003990016
0.0001033028685
0.0001055234213
0.0001073804154
0.0001095742438
0.0001127317299
0.0001163441458
0.0001179265431
0.0001190013339
0.0001212856801
0.0001238095178
0.0001258560539
0.0001276699513
0.0001302043274
0.0001309868818
0.0001310431855
0.0001344162309
0.0001408707559
0.0001442535412
0.0001433176914
0.0001454588547
0.0001510381706
0.0001551067941
0.0001551925584
0.0001569447869
0.0001628354917
0.000169590112
0.000173085703
0.0001750044759
0.0001783579631
0.0001820224764
0.0001856862598
0.0001897831044
0.0001928643331
0.0001971274645
0.0002032940959
0.0002102628095
0.0002179344028
0.0002242481763
0.0002290571187
0.0002372206143
0.0002465699495
0.0002550798777
0.0002635527641
0.0002709442155
0.0002776292896
0.0002841451237
0.0002924009764
0.0003024009053
0.0003115217788
0.0003206856132
0.0003329510698
0.0003461333161
0.0003587109156
0.0003716039617
0.0003853361402
0.0004005714106
0.0004179301484
0.0004361504645
0.0004537565539
0.0004728346884
0.000491220398
0.0005093746306
0.0005290697517
0.0005504081901
0.0005735530958
0.0005969994062
0.0006205918327
0.0006447987911
0.0006707368656
0.0007027367575
0.0007370206579
0.0007693835816
0.0008090231197
0.0008604187802
0.000920653928
0.0009853399294
0.001069913474
0.001154167469
0.001059012452
0.0008202243073
0.0007327138052
0.0006358097761
0.0007163712136
)


100
(
3.583750672e-05
4.379442723e-05
4.566339184e-05
4.827309746e-05
5.551343351e-05
6.115736964e-05
6.869128324e-05
7.358236917e-05
7.969548543e-05
8.464408456e-05
8.834334626e-05
9.361586102e-05
9.806388896e-05
0.0001013335341
0.0001055275225
0.0001098626228
0.0001125489554
0.00011506794
0.0001169516468
0.0001199006712
0.0001215002399
0.0001232645757
0.0001262433205
0.0001298071993
0.0001322505705
0.0001334920339
0.0001356992458
0.0001384527853
0.0001410687574
0.0001419989443
0.0001444781078
0.0001478311516
0.0001468751385
0.000152881368
0.0001603456203
0.0001636997342
0.0001650386955
0.0001687685337
0.0001755950032
0.0001797078789
0.0001815963677
0.0001837234286
0.0001886592677
0.0001937797833
0.0001996373306
0.0002037599513
0.0002069340571
0.0002113447616
0.0002168793173
0.0002237077744
0.0002310510753
0.0002355393039
0.000241312384
0.0002499079268
0.0002587865755
0.0002676278006
0.0002769002707
0.0002842127218
0.0002934031801
0.0003037366801
0.0003150046521
0.0003270883094
0.0003363411335
0.0003447421492
0.000356251888
0.0003685640121
0.0003797990311
0.0003912253386
0.0004027160183
0.0004160856157
0.0004335033291
0.000452906576
0.000469610832
0.0004901352831
0.000513403773
0.0005351164384
0.0005563079194
0.0005787293182
0.000602258924
0.0006270302107
0.0006526974217
0.0006790413827
0.000704525824
0.0007289212881
0.0007569039893
0.0007880828761
0.0008220012026
0.0008580430959
0.0009011771803
0.0009528119095
0.001014646971
0.001081567525
0.001157986048
0.001254728053
0.001327500484
0.001098731245
0.0008623523906
0.0007887905072
0.0006955099299
0.0008138009552
)


100
(
3.257719381e-05
4.159380652e-05
4.57632318e-05
5.206169904e-05
5.997890337e-05
6.704600233e-05
7.443630596e-05
8.181520058e-05
8.657448754e-05
9.291518774e-05
9.737640985e-05
0.0001013838889
0.0001069947034
0.0001114368204
0.0001147497613
0.000119147756
0.0001236099531
0.000125689346
0.0001276351195
0.0001303687084
0.0001338588665
0.0001353506732
0.0001364773851
0.0001397999079
0.0001438902476
0.0001475433903
0.000149395403
0.0001518161253
0.0001556226213
0.0001596781418
0.0001646287283
0.0001640090602
0.000162381347
0.0001696313118
0.0001761022274
0.0001847616514
0.0001887449519
0.0001914439245
0.0001949789553
0.0001997672871
0.0002039368497
0.0002069108047
0.0002094865358
0.0002143774616
0.0002212093681
0.0002294544567
0.0002382833717
0.0002436866879
0.0002475649767
0.0002549382533
0.0002631562623
0.0002716040687
0.0002805137418
0.0002875534505
0.0002949693449
0.0003046570424
0.0003140503965
0.0003262082294
0.0003392295723
0.0003484780862
0.000359354054
0.0003741930992
0.000389212389
0.0004024068709
0.000413475577
0.0004242974414
0.0004368418382
0.0004523423871
0.0004695343841
0.0004832002656
0.0005010818098
0.0005232813809
0.0005457239283
0.0005679518947
0.000590899186
0.0006165357178
0.0006431079088
0.0006705165707
0.0006994197954
0.0007284989102
0.0007575100166
0.0007863882655
0.0008169032591
0.0008501417314
0.0008847406417
0.0009201689039
0.0009564085904
0.001000099033
0.001053600496
0.001120019079
0.00119202995
0.001265710408
0.0013587573
0.001460332125
0.001491927805
0.001131558882
0.0009029598117
0.000847608227
0.0007560337745
0.0009141975983
)


100
(
2.562161144e-05
3.852517939e-05
4.636756757e-05
5.603287218e-05
6.307669761e-05
7.25938373e-05
7.938108312e-05
8.792208789e-05
9.376943828e-05
9.933156017e-05
0.0001056306195
0.0001097056805
0.0001143212724
0.0001199084568
0.0001243038497
0.0001274248305
0.0001317603857
0.0001362740488
0.0001385782658
0.0001402250721
0.0001431734543
0.0001466410003
0.0001489938795
0.0001504888684
0.0001535808594
0.0001580412196
0.0001629783924
0.0001657739945
0.0001686667345
0.0001752388197
0.0001808363496
0.0001842208198
0.0001891583957
0.0001890981122
0.0001933279722
0.0002004803178
0.0002072311222
0.0002126865116
0.0002151378859
0.0002181599934
0.0002224071809
0.0002284900294
0.0002362848045
0.0002421492777
0.0002463862511
0.000253596364
0.0002631293016
0.0002731465256
0.0002829554112
0.0002900445435
0.0002962172008
0.0003048387432
0.000313363249
0.0003232313293
0.0003362288709
0.0003452915225
0.0003531777183
0.000365728917
0.0003803047387
0.0003960474763
0.0004108478676
0.0004219703777
0.0004347240102
0.0004493752784
0.0004656553099
0.000483469692
0.0004973118544
0.0005130804894
0.0005338071007
0.0005558993721
0.000576172667
0.0005953589171
0.0006183214793
0.0006421393156
0.0006668854386
0.0006940913657
0.0007260869723
0.0007604163098
0.0007939593601
0.0008263345775
0.0008591293173
0.0008941393154
0.0009319286058
0.0009716758152
0.001010173774
0.001052209369
0.001095763392
0.001144211461
0.001211032386
0.001287824104
0.001369123177
0.001444689904
0.001547069198
0.001646959176
0.00162949486
0.001187122622
0.001000797871
0.0009364951244
0.0008469026342
0.001011311933
)


100
(
2.189637068e-05
3.731951395e-05
4.873320225e-05
5.797713197e-05
6.66219279e-05
7.594121411e-05
8.463040827e-05
9.178827765e-05
0.0001004059582
0.0001054894313
0.0001115002891
0.0001177241262
0.0001214551033
0.0001261997203
0.0001318804944
0.0001361180484
0.000138999581
0.0001433575779
0.0001481987173
0.0001508955255
0.0001520965506
0.000155449023
0.000159503532
0.0001628439785
0.0001647089921
0.0001675162422
0.0001720957391
0.0001773278357
0.0001822880944
0.0001858443014
0.0001904471066
0.0001993764281
0.0002079384817
0.0002081061417
0.000211052764
0.0002140307803
0.0002197156276
0.0002260546604
0.0002344554482
0.0002418339072
0.0002458139932
0.000250839157
0.0002582865696
0.0002669911453
0.0002765054996
0.0002829194519
0.0002889500307
0.0002989779067
0.0003102542302
0.0003200711609
0.0003308706293
0.0003392920768
0.0003459646614
0.0003553883103
0.0003681900104
0.0003838226313
0.0004001624965
0.0004093600525
0.0004206541513
0.000436385457
0.0004503878775
0.0004655019321
0.000481455874
0.0004950068625
0.000511563439
0.0005341994636
0.0005584773228
0.0005786053815
0.0005973796902
0.0006211662048
0.0006429960582
0.0006645479005
0.0006875719315
0.0007122975714
0.0007405551662
0.0007739740175
0.0008099579832
0.0008446349818
0.0008785855885
0.0009143236501
0.0009545307662
0.0009963635335
0.001038501211
0.001079884813
0.001125546212
0.001174344953
0.001226057376
0.001284955362
0.001361558481
0.001432421063
0.00152267545
0.001579397313
0.001722113424
0.001825423064
0.001739890996
0.00129980206
0.00117113981
0.001076400957
0.000980313615
0.001220076275
)


100
(
2.186961159e-05
3.776750582e-05
5.000086931e-05
5.868794567e-05
6.969189925e-05
7.807762677e-05
8.871457174e-05
9.595575323e-05
0.0001042837784
0.0001115559143
0.0001163490293
0.000122708238
0.0001284118376
0.0001323517052
0.0001372463266
0.0001431927794
0.0001475194052
0.0001503225984
0.0001547992088
0.0001598475727
0.0001632684126
0.0001649359215
0.0001681998065
0.0001727611235
0.0001776576831
0.0001798100765
0.0001821156653
0.0001873903299
0.0001935128461
0.0001999258916
0.0002045525226
0.000209037891
0.000214716404
0.0002209602064
0.0002257373379
0.0002319593477
0.0002369307725
0.0002422370926
0.0002507062096
0.0002608219354
0.0002713909012
0.0002781799606
0.0002821785113
0.0002903389105
0.0003004140175
0.0003105397175
0.0003211697777
0.0003296228876
0.0003367673136
0.0003462167906
0.0003566957372
0.0003708172639
0.000386707057
0.0003955964735
0.0004023302824
0.0004178882841
0.0004354286869
0.0004517664666
0.0004666006561
0.000475942528
0.0004854161078
0.0005006032361
0.0005241428329
0.0005491117135
0.0005650802436
0.000583831034
0.0006107539107
0.0006361843659
0.0006593542022
0.0006817949696
0.0007044993895
0.0007298354962
0.0007573249042
0.0007867309603
0.000819637021
0.0008545217483
0.0008876448056
0.0009206289826
0.0009576407946
0.001001767438
0.00104884226
0.001090692651
0.001133506257
0.001180245324
0.00123514092
0.001291305562
0.00135258969
0.001423036271
0.001489241354
0.001561461164
0.001649737144
0.001603939547
0.001880377576
0.001999099965
0.001859174427
0.001479667106
0.001369005489
0.001252227166
0.001135766947
0.001419763295
)


100
(
2.184043653e-05
3.669123968e-05
4.884069298e-05
5.972784638e-05
7.074607935e-05
8.077105902e-05
9.056221987e-05
0.0001003971712
0.0001069940489
0.0001155550393
0.0001218950036
0.0001266916898
0.0001334783336
0.0001392511526
0.0001432373214
0.0001483781797
0.0001546922846
0.0001594705139
0.0001623052693
0.0001668190668
0.0001724211849
0.0001770553384
0.0001792255877
0.000182508266
0.0001872600836
0.0001925147188
0.0001969813655
0.0002004271043
0.000205130915
0.0002115420679
0.0002185230348
0.0002263356222
0.0002307277856
0.0002341110593
0.0002400979369
0.0002480448735
0.0002579789558
0.0002661784598
0.0002714426243
0.0002788661494
0.0002899003975
0.0003016292522
0.0003127666155
0.0003202533872
0.000327124853
0.0003370691474
0.0003468733216
0.0003572529405
0.0003717242079
0.0003819445963
0.0003898827572
0.0004021452371
0.0004184199082
0.0004357924694
0.0004513141006
0.0004611076739
0.0004712751814
0.0004863212867
0.0005000216727
0.0005192124552
0.0005370341474
0.0005499878683
0.0005691315306
0.0005951080343
0.0006218577817
0.0006461163058
0.000667914992
0.0006911047275
0.000716490906
0.0007427077177
0.0007685654394
0.0007966764493
0.0008303659559
0.0008661737619
0.0009019498806
0.0009356614136
0.0009699823923
0.00100662454
0.001049927196
0.001097560052
0.001141824652
0.001183895992
0.001233819063
0.001292426843
0.001350473927
0.00141855205
0.001491133351
0.001563655408
0.001634039222
0.001706697402
0.001814071629
0.001868506476
0.002032310059
0.002169045408
0.001991444612
0.001683223045
0.001554415375
0.001427236403
0.001288908632
0.001551574574
)


100
(
1.730587239e-05
3.348382395e-05
4.705403987e-05
6.04082756e-05
7.075191329e-05
8.316798985e-05
9.195964013e-05
0.0001028054093
0.0001109524274
0.0001183212476
0.0001267986649
0.0001327217783
0.0001381135391
0.0001448895946
0.0001507480333
0.0001548301956
0.0001602680828
0.0001671455251
0.0001726099869
0.0001757070811
0.0001802908803
0.000186613584
0.0001930390584
0.0001955678231
0.0001981078673
0.0002040293006
0.0002106165663
0.0002175985625
0.0002216747392
0.0002255417144
0.0002321687359
0.0002397762117
0.0002487223101
0.0002565108671
0.0002612240813
0.0002660225327
0.0002747613289
0.0002860719499
0.0002983886614
0.0003059240667
0.0003124314667
0.0003236784513
0.0003367223469
0.0003483626386
0.0003602911495
0.0003694235105
0.0003769574812
0.0003876641945
0.000401089621
0.0004183587071
0.0004365643653
0.0004455125873
0.0004552104663
0.0004740026149
0.0004920524838
0.0005049260403
0.0005199055389
0.0005305677507
0.000542329773
0.0005631389182
0.0005897340936
0.0006159680138
0.0006305034892
0.0006493588548
0.0006785070372
0.0007046340123
0.0007287546004
0.0007538874489
0.0007805137755
0.0008092531039
0.0008417061786
0.0008790316625
0.0009152214352
0.0009517595503
0.0009884686822
0.001026533434
0.001066969615
0.001110897276
0.001160309056
0.001207604929
0.001247894971
0.001298671467
0.001355486271
0.001421358057
0.001491800908
0.001580109841
0.001661186479
0.001734288054
0.001819925027
0.001907320522
0.002019673347
0.002513746529
0.002295887513
0.002407826994
0.002144846725
0.001866791599
0.001720594674
0.001585021723
0.001435633861
0.00176189075
)


100
(
9.720638053e-06
2.975898784e-05
4.588192398e-05
5.967722215e-05
7.128677127e-05
8.335541414e-05
9.415658274e-05
0.0001036535305
0.0001147272321
0.0001221493582
0.000130246619
0.0001388635587
0.0001442892907
0.0001498647553
0.0001570045464
0.0001632243171
0.0001676259943
0.0001735032013
0.0001809397172
0.0001874571332
0.000190997549
0.0001957978652
0.0002024867187
0.000209253513
0.0002145424117
0.0002185457047
0.0002243907311
0.0002310065495
0.000237953526
0.000245468521
0.0002508001579
0.0002560161024
0.0002643438228
0.0002751290348
0.0002867888342
0.0002926687638
0.0002965615823
0.0003056675708
0.0003180129849
0.0003313441438
0.0003451413773
0.0003544610694
0.0003626402615
0.000373719768
0.0003847607869
0.0003997904558
0.0004189896455
0.0004297755231
0.0004369035834
0.0004533230772
0.0004729416037
0.000492417568
0.000509429005
0.0005203568969
0.0005304503537
0.0005454648941
0.0005648847724
0.0005894172646
0.000607569713
0.0006194963501
0.0006440221325
0.0006736346677
0.0006987168605
0.0007234049024
0.0007475498451
0.0007700898518
0.0007960578156
0.0008252993979
0.0008549389135
0.0008884992575
0.0009289276202
0.0009700056611
0.001007844633
0.001046721825
0.001089004925
0.001136464626
0.001181984987
0.001231757193
0.001282350213
0.001329990579
0.001380334856
0.001448381844
0.00151169163
0.001576616816
0.001666098084
0.001756425907
0.001846096762
0.001942093516
0.002038849148
0.002154108654
0.002265272177
0.002579042698
0.002606903333
0.002696804009
0.002363888425
0.002030464298
0.001873803632
0.001730256879
0.001579129446
0.001884269129
)


100
(
6.64220747e-06
2.74622016e-05
4.494270351e-05
5.804006906e-05
7.184743872e-05
8.246824385e-05
9.55837683e-05
0.0001052644533
0.0001160701855
0.0001262478835
0.0001335491781
0.0001420497085
0.0001506879716
0.0001561075879
0.0001619714717
0.0001697064216
0.0001767989842
0.0001817181626
0.0001879308024
0.0001962366543
0.0002038163396
0.0002080479821
0.0002121725389
0.0002202245123
0.0002286281537
0.000236892689
0.0002414192536
0.0002452930735
0.0002527857373
0.0002615299616
0.0002725941689
0.0002797461558
0.0002848356201
0.0002925535636
0.0003039055871
0.0003165870301
0.0003280448656
0.000333581024
0.0003408665798
0.0003545343899
0.0003688651777
0.0003818395888
0.0003970843613
0.0004068872175
0.0004155734568
0.00042869975
0.0004475331776
0.0004690544829
0.0004888713739
0.000498650917
0.0005123898834
0.0005338545385
0.000550079789
0.0005660685117
0.0005847160782
0.0005998842814
0.0006140726106
0.0006404356767
0.000670112943
0.0006961881898
0.0007144984067
0.0007357545655
0.0007664685112
0.0007947380808
0.0008208959574
0.0008469681056
0.000875318782
0.0009073512465
0.0009458132684
0.0009893634593
0.00102902685
0.001064784982
0.001105642712
0.00115088053
0.001202448058
0.001256736346
0.001311500609
0.001369738103
0.001424168789
0.001473748507
0.001539897888
0.00161305748
0.001690484413
0.00177677993
0.001868939025
0.001945561411
0.002054878134
0.002185360301
0.00231649896
0.002428812099
0.002582825193
0.0025448049
0.002900628864
0.003000384356
0.002599989079
0.002200438502
0.002032866056
0.001881340361
0.001739601851
0.001972609423
)


100
(
6.616841753e-06
2.56719288e-05
4.278895397e-05
5.659062904e-05
7.062021298e-05
8.243811706e-05
9.485860088e-05
0.0001070490651
0.0001163599634
0.0001276816408
0.0001372144275
0.0001445334499
0.0001537980383
0.0001626284696
0.0001683137851
0.0001745201567
0.0001829841626
0.0001912205509
0.0001973316455
0.0002030698397
0.000210287834
0.0002195186129
0.0002266747146
0.0002325802155
0.0002405600461
0.0002491283745
0.0002574275689
0.0002654490632
0.0002715218594