/*--------------------------------*- C++ -*----------------------------------*\
| =========                 |                                                 |
| \\      /  F ield         | OpenFOAM: The Open Source CFD Toolbox           |
|  \\    /   O peration     | Version:  2.3.1                                 |
|   \\  /    A nd           | Web:      www.OpenFOAM.org                      |
|    \\/     M anipulation  |                                                 |
\*---------------------------------------------------------------------------*/
FoamFile
{
    version     2.0;
    format      ascii;
    class       dictionary;
    location    "constant";
    object      GRPSI35;
}
// * * * * * * * * * * * * * * * * * * * * * * * * * * * * * * * * * * * * * //

GRPSI35_table
100
(

100
(
-0.02071341585
-0.0197926624
-0.0180186238
-0.01671826229
-0.01614892791
-0.0155912335
-0.01499761236
-0.01460321141
-0.0143867085
-0.01405818757
-0.01387821624
-0.0136895316
-0.01308677293
-0.01281559455
-0.01249646529
-0.01194895711
-0.01160566805
-0.01130581671
-0.01091420592
-0.01062293862
-0.01038843777
-0.01013051185
-0.009878983205
-0.00966536863
-0.009451055888
-0.009218053621
-0.00890262498
-0.008476170944
-0.008155746093
-0.007970805073
-0.007775698449
-0.007576065242
-0.007401625625
-0.007242508768
-0.006894703227
-0.006161129945
-0.005632200646
-0.005500707158
-0.005219267467
-0.004631443231
-0.004200165035
-0.004092752904
-0.003888643075
-0.003479093845
-0.003186254612
-0.003116239119
-0.003006789326
-0.002085327598
-0.001230800561
-0.001201495785
-0.001048822164
-0.000411358629
0.000105919801
0.0001252570515
0.000264408672
0.0005754017515
0.0007502712625
0.0007415099835
0.001040498073
0.001847089876
0.002337809155
0.002304414833
0.002742188456
0.003676625227
0.004120762055
0.004044347411
0.004817217688
0.005787929985
0.005881305575
0.006159834658
0.007134080889
0.007696820969
0.007716658122
0.008687636913
0.009464682032
0.009499656778
0.01044639665
0.01112911733
0.01146788516
0.01236764483
0.01270235786
0.01356968242
0.01431531933
0.01494056965
0.01567689818
0.01641718767
0.0172522546
0.01788766092
0.0188635196
0.01947080289
0.02017094486
0.02113121415
0.02220180913
0.02329588904
0.02433126159
0.02594315595
0.0282510585
0.03124531546
0.04786945512
0.06266779535
)


100
(
-0.01891813373
-0.01853671358
-0.01718378338
-0.01589960812
-0.01548802664
-0.01484708913
-0.01442558939
-0.01410782848
-0.01385633446
-0.01375666015
-0.01335103247
-0.01323056747
-0.01283315214
-0.01231045081
-0.0122076109
-0.01188135077
-0.01113771446
-0.01102591369
-0.01101881664
-0.01034876364
-0.01005978303
-0.01014415239
-0.009879897029
-0.009291714604
-0.009260471673
-0.009372062665
-0.008943306367
-0.008295343309
-0.008218028359
-0.008284709485
-0.007785057937
-0.007307654034
-0.0073062356
-0.007413281448
-0.007117075214
-0.006570858882
-0.006103339594
-0.006000324819
-0.005685691702
-0.005084309017
-0.004589918553
-0.004472428902
-0.004303028848
-0.003866427591
-0.003470001149
-0.003379180503
-0.003354994078
-0.003033993724
-0.002571630039
-0.002159107223
-0.001870466134
-0.001433132543
-0.0009467104376
-0.0006171825269
-0.0003872780414
-9.688473278e-05
0.0002042357309
0.0003509473102
0.0004561851861
0.0006918017081
0.0009827187856
0.001034735731
0.001399003055
0.002217467908
0.002300496615
0.002144009161
0.003087426304
0.003813193075
0.003403722314
0.003703996985
0.004921304533
0.004796660503
0.004592105246
0.006655893277
0.007353747894
0.005324045444
0.006680582721
0.008494324321
0.006270395414
0.007957842498
0.008819348964
0.007448437817
0.01054714705
0.008348050867
0.008655627194
0.01153807933
0.009055813266
0.01157537744
0.01144408272
0.01144941793
0.01328287525
0.01471564126
0.01630124585
0.01809267731
0.0197334482
0.02246365581
0.03349633606
0.04958025236
0.05395511141
0.04900020969
)


100
(
-0.01716428689
-0.01731817149
-0.01638668594
-0.01518372159
-0.01481459513
-0.01428213444
-0.0138247374
-0.01356938285
-0.01328768579
-0.01322965224
-0.01300404298
-0.0126868268
-0.01258433697
-0.01200660551
-0.01163683829
-0.01166404635
-0.01123477146
-0.01050117803
-0.01056719955
-0.01063758649
-0.009958987482
-0.009619768606
-0.009772624903
-0.009601355328
-0.00899700474
-0.008852800967
-0.009005036202
-0.008745239098
-0.008166900017
-0.007858431466
-0.007947757448
-0.00773173533
-0.007205117542
-0.006944401624
-0.007060721406
-0.007031534093
-0.006628650236
-0.00611081817
-0.005815130389
-0.00572293775
-0.005322870202
-0.004796860498
-0.004358986047
-0.004275572044
-0.004135230559
-0.003692584333
-0.003391490084
-0.003280250339
-0.003231428758
-0.002979393028
-0.002671315697
-0.002227524596
-0.00187056026
-0.001493311418
-0.001157149598
-0.0008049836643
-0.0005848989118
-0.0003275237181
1.13551839e-06
0.0001902558133
0.0002831115086
0.0004671920616
0.0007440768482
0.0008659782324
0.001227778704
0.001255824786
0.001273954791
0.001871853108
0.002246182062
0.001868674469
0.001873824965
0.002721452445
0.003076923378
0.003039665661
0.004441371143
0.006529404357
0.005445894992
0.00339597565
0.004804502287
0.0057494669
0.006098718085
0.005791169866
0.007630917289
0.008579772396
0.006250194352
0.00826158578
0.009094259091
0.008381862451
0.01039039214
0.01189522759
0.01238526937
0.01375435287
0.01666972969
0.01777188205
0.01938412588
0.02566053927
0.04081105807
0.04548955278
0.03871094087
0.03854821381
)


100
(
-0.01557651278
-0.01614957031
-0.01570253098
-0.01447748747
-0.01399623199
-0.01369090702
-0.01322747309
-0.01300736386
-0.01292902773
-0.01268479901
-0.01262499197
-0.01216143035
-0.01204145383
-0.01196289418
-0.01126229276
-0.01104043597
-0.01111903326
-0.01066658239
-0.00997360961
-0.01011664191
-0.01027561223
-0.009654308626
-0.009190070658
-0.009333086892
-0.009336617904
-0.008783169953
-0.008432048583
-0.00856201588
-0.008560667312
-0.00809770141
-0.007578394996
-0.00754336315
-0.007600773871
-0.007181360931
-0.006773842137
-0.006640255982
-0.00674308395
-0.006620937228
-0.006227271858
-0.005749437038
-0.005413258015
-0.005325122541
-0.005028539662
-0.004639724278
-0.004114105324
-0.00401103444
-0.003990847151
-0.003669286485
-0.003151597107
-0.003110447401
-0.003252649133
-0.002889599903
-0.002322183734
-0.001920452294
-0.001880126985
-0.001758857751
-0.001466058905
-0.001239529672
-0.001146773636
-0.0007163231908
-0.0003999218115
-0.0003556894169
-6.750828927e-05
0.0002623485237
0.0003264940148
0.0004029614783
0.0004204438196
0.0004495959678
0.0008031145052
0.00145565904
0.001957154127
0.002215328642
0.002285155088
0.002289253034
0.002942431189
0.004355138444
0.003625446156
0.002369988643
0.004981442628
0.005678193269
0.00390299464
0.005431962242
0.006033261795
0.005376829536
0.006449553825
0.007938956364
0.008851711588
0.00923461916
0.01020301351
0.01151070929
0.01246614354
0.01382203883
0.01515705807
0.01772145319
0.02130343408
0.02671712826
0.04195680876
0.03980451207
0.02880903475
0.0311619643
)


100
(
-0.01437819696
-0.01509836861
-0.01489080586
-0.01370397656
-0.01334331782
-0.01309229423
-0.01272609842
-0.01241909597
-0.01239382338
-0.01214854856
-0.01208585583
-0.01201774988
-0.01146692269
-0.0114295314
-0.01129244416
-0.01061832367
-0.01047600595
-0.01059529587
-0.01020115923
-0.009593258901
-0.009668377597
-0.009855293017
-0.009389659868
-0.008823214963
-0.008860372414
-0.009004506478
-0.008596000832
-0.008144154758
-0.008103357905
-0.008238928408
-0.007990330268
-0.007542818599
-0.007089644732
-0.007188457011
-0.007228315698
-0.006827937957
-0.00628054701
-0.006341804828
-0.006610092795
-0.006205864506
-0.005714849709
-0.005097310872
-0.005065420724
-0.005151528255
-0.004798761443
-0.003953535521
-0.004026736449
-0.004395630639
-0.003812710852
-0.00320025628
-0.003251433565
-0.003513613703
-0.003020893948
-0.002436208666
-0.002261951267
-0.002459353843
-0.002282929972
-0.00212396529
-0.002045957231
-0.001746219749
-0.00135002727
-0.0009218388063
-0.0005368177844
-0.0001538657072
0.0001857364975
0.0003825115484
0.0005410870979
0.0006049625892
0.0006870562412
0.0009671336457
0.001234121209
0.001654301295
0.002396222182
0.002892164912
0.002066971937
0.001411895516
0.002785911841
0.003513799843
0.002944366535
0.003049382363
0.003787900266
0.005153093634
0.006116787578
0.006341119073
0.006810641528
0.00715453199
0.008073627884
0.009473765
0.01129313229
0.01132736536
0.01113180236
0.01377224247
0.01555422735
0.01792434741
0.02193630096
0.02926585554
0.03936286934
0.03281424253
0.0235244284
0.02544501427
)


100
(
-0.0132770651
-0.01411653238
-0.01407827025
-0.01293752341
-0.01271559225
-0.01246297051
-0.01218767367
-0.01192381062
-0.01183806733
-0.01185788747
-0.01151355751
-0.0114873146
-0.01130360475
-0.01084883893
-0.01084268943
-0.01066223392
-0.0100573322
-0.00993872966
-0.0101037512
-0.009819724979
-0.009284265867
-0.009214179993
-0.009410021742
-0.009131743644
-0.008579730971
-0.008359969379
-0.008514029774
-0.008433171532
-0.008067761413
-0.007714175696
-0.007842606888
-0.007934884776
-0.007507277774
-0.006725524602
-0.006794221766
-0.007160628721
-0.006868884311
-0.005851793774
-0.005880895228
-0.00659260535
-0.006146272172
-0.005327640981
-0.004755292261
-0.005152513996
-0.005412500114
-0.004735544617
-0.003868599075
-0.004411847481
-0.004703080266
-0.003861549326
-0.0034058306
-0.00356533167
-0.003579403631
-0.003100211173
-0.002724617872
-0.002720474839
-0.002617638537
-0.002432002625
-0.00231521222
-0.001915961673
-0.001507856101
-0.001283491393
-0.001017642937
-0.0006978565936
-0.0004597900211
-0.000254059524
-6.156357208e-05
0.0002176537952
0.0003905538045
0.0006358891867
0.001090625823
0.001567575748
0.001893202763
0.002294504408
0.002615132205
0.002103641309
0.001760901209
0.002207504727
0.003070243613
0.004031583764
0.004394161824
0.004365671396
0.004868176814
0.005814253708
0.006700277999
0.007677399733
0.00846860852
0.009570127217
0.009905581604
0.01058907718
0.01258556674
0.01383781938
0.0156256199
0.01822463479
0.0229466641
0.03201044083
0.0360039119
0.02583795332
0.01924578599
0.02121589573
)


100
(
-0.01203302726
-0.01306425171
-0.0132629065
-0.01229155802
-0.01208953987
-0.01185640253
-0.01163052956
-0.01147384342
-0.01125429439
-0.01132268598
-0.01123168828
-0.0109310758
-0.01091120439
-0.01061914231
-0.01026023641
-0.01028583763
-0.01010624323
-0.009569909774
-0.009432685933
-0.009645620731
-0.009492180849
-0.009000738989
-0.008742020096
-0.008939555135
-0.008874670287
-0.00831578319
-0.008106671499
-0.008309160524
-0.008250247507
-0.007769168161
-0.007195997369
-0.007485104943
-0.007817998508
-0.007169940844
-0.006276553348
-0.006591191805
-0.007211354643
-0.006556323
-0.005508530891
-0.005874047939
-0.006569998803
-0.005904453418
-0.004995855505
-0.004725933909
-0.005433159286
-0.005259631285
-0.004624766626
-0.004292841276
-0.004628504873
-0.004588244231
-0.003875689945
-0.003690797332
-0.003403115176
-0.003319143998
-0.003076230949
-0.002744541534
-0.002450461801
-0.00223250831
-0.002280955244
-0.002281007059
-0.002078799462
-0.001867158814
-0.00150958477
-0.001353810856
-0.001162067186
-0.0007033938271
-0.0004377563766
5.370756839e-05
0.0004490796785
0.0006446720188
0.0009478358298
0.001249454645
0.001455933801
0.001602151408
0.001983671704
0.002343970767
0.00266135994
0.002852083603
0.003066820912
0.003558201465
0.003888502489
0.004341515733
0.004994720954
0.00565416298
0.006319778289
0.007071358279
0.008363427673
0.009679149372
0.01008958114
0.01065353898
0.01227297271
0.01409852564
0.01599662963
0.0186233795
0.02311027332
0.03273854425
0.03290536071
0.02102864926
0.01622137377
0.01674010435
)


100
(
-0.01075515153
-0.01199636899
-0.01249515574
-0.01165069108
-0.01140971678
-0.01127480695
-0.01105651284
-0.01096280868
-0.01089995033
-0.01075681139
-0.01080711158
-0.01053796348
-0.01036256151
-0.0103627954
-0.009999674669
-0.00969830495
-0.009761813032
-0.009617221427
-0.009147676906
-0.008955397879
-0.009192923769
-0.009173820565
-0.008706836202
-0.008248916714
-0.008441918401
-0.008581956235
-0.008026288056
-0.007910668649
-0.008142927681
-0.008099231572
-0.007200388021
-0.006728094975
-0.00748990565
-0.007718484258
-0.006684375731
-0.00587138838
-0.006644932401
-0.007166728582
-0.006177594381
-0.005302583275
-0.00590363214
-0.006400991605
-0.005587018988
-0.004826185527
-0.004938921405
-0.005263230731
-0.005018177287
-0.004679616259
-0.004429330021
-0.004225816557
-0.004181552723
-0.00397928414
-0.003728597082
-0.003377503107
-0.002879904275
-0.002979352539
-0.003039544134
-0.002569916363
-0.002265479839
-0.002019308165
-0.002128635257
-0.002165719973
-0.001848637288
-0.001621076087
-0.001199805797
-0.000694894476
-0.0004863088145
-0.0004054713964
-8.913813972e-05
0.0002384810013
0.0003313865151
0.0006768736791
0.001264049227
0.001755484198
0.002222270036
0.002358348155
0.002468901023
0.002749478474
0.002944359083
0.003527421336
0.004199008278
0.004536502157
0.004866728873
0.005363481527
0.006203118801
0.007005051587
0.007786934511
0.009310924493
0.01022208404
0.01055053521
0.01249011956
0.01436994943
0.01613408457
0.01919299225
0.02407037164
0.03243046768
0.02934106616
0.0171465867
0.01379040685
0.01439039806
)


100
(
-0.009671440439
-0.01102943013
-0.0117441944
-0.01097428416
-0.01077843886
-0.0106965421
-0.01055473864
-0.01042553054
-0.01044062881
-0.01026291115
-0.01026114059
-0.01029668494
-0.009882481485
-0.009810812233
-0.009841318327
-0.009442576502
-0.009146343834
-0.009235723616
-0.009192116472
-0.0087870768
-0.008472555226
-0.008722869053
-0.008872118324
-0.00843615478
-0.007926336356
-0.007951120516
-0.008160027958
-0.007785570287
-0.00775394501
-0.008044594352
-0.007778197916
-0.006651367966
-0.006476781823
-0.007493772822
-0.007332207458
-0.00622620891
-0.005792949744
-0.006755731729
-0.006757228067
-0.005800206185
-0.005429865968
-0.005821842487
-0.00593078387
-0.005220546098
-0.004848436381
-0.004696376537
-0.004871921148
-0.004934529096
-0.004729868095
-0.004432233503
-0.00393309634
-0.003640500881
-0.003794580578
-0.003844142635
-0.0034768843
-0.003135417472
-0.002860629103
-0.002812151392
-0.002763470595
-0.002303201562
-0.002011781284
-0.001740841546
-0.001501964213
-0.001573574819
-0.001529794672
-0.001132976283
-0.0006508031323
-0.0004457543043
-0.0004686948991
-0.0001864477613
0.0001629547372
0.0007227703809
0.001267655374
0.00136953649
0.001746790936
0.002144724639
0.002307118984
0.002780960053
0.003371201836
0.003714816461
0.0039891293
0.004286770875
0.005084617542
0.006009284119
0.006464452806
0.006816700657
0.007517090685
0.009055456276
0.01042524535
0.01149502284
0.01256506085
0.01428289128
0.01669713255
0.01976070576
0.02431968395
0.03080198546
0.02603849425
0.01396965075
0.01126050231
0.01190703295
)


100
(
-0.008791378647
-0.01016327334
-0.01097358078
-0.0102724341
-0.01018352873
-0.01011348359
-0.01002164227
-0.00991589089
-0.009939778949
-0.009967391259
-0.009683828672
-0.009762803456
-0.009752009538
-0.009269817529
-0.009275840697
-0.009339733251
-0.008918996648
-0.008608663264
-0.008758502916
-0.008820530552
-0.008459109902
-0.008013456533
-0.008250578365
-0.00856790956
-0.008194595472
-0.007717469393
-0.007466908601
-0.007676243606
-0.007588786894
-0.007657817105
-0.008003113135
-0.007210766584
-0.006140739013
-0.006484378856
-0.007409531892
-0.006847901028
-0.005834615965
-0.00587021333
-0.006452813609
-0.006281797783
-0.005662672269
-0.005345815024
-0.005307121635
-0.005509539595
-0.005284218657
-0.00495239212
-0.004596423018
-0.004261936515
-0.004486214252
-0.00466654713
-0.004360194848
-0.003974071537
-0.003591053679
-0.003403985492
-0.003640513619
-0.003582887196
-0.003159330625
-0.002963091779
-0.002579673569
-0.002177427553
-0.002132225011
-0.002072163825
-0.001658165408
-0.001276707758
-0.001264474202
-0.001358147913
-0.001010871471
-0.0006028512467
-0.0003361302354
3.39312181e-05
6.290445515e-05
0.0002295981598
0.0008635186894
0.001345771947
0.001547825874
0.00198013235
0.002553056519
0.002910712696
0.003231043228
0.003556093234
0.004134211057
0.004795612501
0.005245129682
0.005815169443
0.006635653451
0.007367160343
0.007746228121
0.008613235595
0.01010536573
0.01120486372
0.01299692185
0.01464825563
0.01709403493
0.02180714745
0.02554603476
0.02885223221
0.02233383676
0.01111513091
0.008751160413
0.009015887861
)


100
(
-0.008042796046
-0.009388206467
-0.01020886869
-0.00961371898
-0.009597926062
-0.009553320582
-0.00947997381
-0.00946723207
-0.009409825523
-0.009498176108
-0.009424508684
-0.00918652564
-0.009260778948
-0.009157813777
-0.008693928559
-0.008752826305
-0.008856967785
-0.008462810014
-0.008105414616
-0.008298961958
-0.00850602026
-0.008169843776
-0.007726797708
-0.007774198219
-0.008111163799
-0.007972038512
-0.007524615665
-0.007057831091
-0.007204538854
-0.007321485481
-0.007570327383
-0.007698811335
-0.006706122903
-0.005956381541
-0.006464204434
-0.006918131143
-0.00634599785
-0.00578332148
-0.005672553921
-0.005859899526
-0.005968192894
-0.005793360719
-0.005479949304
-0.004929995875
-0.004783126718
-0.005044760196
-0.004962097293
-0.00456665561
-0.004188783243
-0.003977319908
-0.004224010132
-0.004351855132
-0.003937095258
-0.003601059832
-0.003372435143
-0.003059987861
-0.003112789473
-0.00322364787
-0.002918943493
-0.002483531093
-0.001906002654
-0.001806753588
-0.00201601116
-0.001701960461
-0.001193380401
-0.001033371922
-0.0007016771084
-0.000558828611
-0.000665646854
-0.0001733663923
0.0003718983199
0.0002644316135
0.0005146342976
0.001182334984
0.001623891497
0.002055860318
0.002432504323
0.002811152054
0.003295635394
0.003887430197
0.004373610191
0.004773090013
0.005204891901
0.006068787557
0.007149963193
0.00763363358
0.00807543224
0.009261999049
0.01027239898
0.01160793143
0.01311449779
0.01485890293
0.01859138834
0.02160024057
0.02557621991
0.02820882139
0.01841117812
0.008221887966
0.007493813511
0.00788273765
)


100
(
-0.007240934316
-0.008611666675
-0.009483435509
-0.008984285721
-0.008996071995
-0.009011169477
-0.008934613747
-0.008966488556
-0.00900549437
-0.008987914593
-0.009038311673
-0.008855241606
-0.008688002481
-0.008765859634
-0.008607771423
-0.008144491482
-0.00823924405
-0.008417766047
-0.008073823938
-0.007659586569
-0.007868923896
-0.00819159738
-0.007891472054
-0.007478200729
-0.007301921886
-0.007634989467
-0.007748683996
-0.007332892231
-0.006895262471
-0.006692983796
-0.006907508604
-0.007593835046
-0.007158560746
-0.006188045856
-0.005933649046
-0.006098994146
-0.006301281484
-0.006119034664
-0.005907285067
-0.005494384337
-0.005371332147
-0.005598433063
-0.005600036996
-0.005331331792
-0.004878572564
-0.00439832265
-0.004496948677
-0.00486433051
-0.004591141507
-0.004156073553
-0.003965084127
-0.003670713119
-0.003690238469
-0.003820158233
-0.003614425315
-0.003407076746
-0.002915450497
-0.002463442705
-0.002833913515
-0.002969674208
-0.002387651373
-0.001892457344
-0.001564594173
-0.001416389573
-0.001437733641
-0.001309056497
-0.0007195668774
-1.967850157e-05
-0.0004400312242
-0.0005372740997
0.0001597085678
0.0004882747776
0.0009085308586
0.00125543176
0.001564705504
0.001872242038
0.002204752699
0.002834959621
0.003509254206
0.003975649157
0.004428425258
0.004951580601
0.005726531986
0.006305903247
0.006860193226
0.007832714284
0.008747907922
0.009343463546
0.01045933079
0.011706211
0.01334661976
0.01579024844
0.01876453994
0.02205017216
0.02696041473
0.02693372101
0.01461354279
0.005969785595
0.006157796702
0.006154463246
)


100
(
-0.006380376807
-0.007825630516
-0.008809075359
-0.008357770866
-0.008392754176
-0.008469816871
-0.00846057356
-0.008450761119
-0.008548896531
-0.008513144743
-0.008548405062
-0.008575291534
-0.00830900859
-0.008191146267
-0.008280999678
-0.008107475745
-0.007664449872
-0.007759972381
-0.008006639315
-0.007735290201
-0.007355588145
-0.007448937108
-0.007770713682
-0.007628943233
-0.007244544593
-0.006894513363
-0.007136557176
-0.007437519714
-0.007154397546
-0.006758305169
-0.006371150383
-0.00645948934
-0.006951970198
-0.006648071846
-0.006080735436
-0.005988024496
-0.005736461005
-0.005873972973
-0.00604639912
-0.00573602931
-0.005327337825
-0.004868541222
-0.004999203063
-0.005349817005
-0.005221251052
-0.004819526735
-0.004446650324
-0.004146098588
-0.004175231189
-0.004248720098
-0.004137892717
-0.004009316013
-0.003682754898
-0.00302748479
-0.003153647375
-0.003670429883
-0.003347474916
-0.002849644181
-0.002501553194
-0.002201271832
-0.002255267644
-0.00233808383
-0.00202710708
-0.001473130155
-0.0007027659153
-0.00104756986
-0.001288698141
-0.0005051096028
-2.869891222e-05
0.000191980652
0.0003632659984
0.0005702974635
0.0008269293539
0.001090531021
0.001330357968
0.00180251513
0.002470783218
0.003060663382
0.003574766828
0.004016163681
0.00452613972
0.005095614059
0.005636379409
0.00635718736
0.007415092134
0.008181278357
0.008579431211
0.009771246313
0.01123629128
0.01236144416
0.01349594151
0.01557055821
0.01918722399
0.02423902637
0.02696309318
0.02319065944
0.01217295484
0.004844164167
0.004741057435
0.004472373632
)


100
(
-0.005657395237
-0.007113328614
-0.008172127482
-0.00774130311
-0.007807704518
-0.007929723238
-0.007972378515
-0.007957340421
-0.008061474788
-0.008153842209
-0.008020422216
-0.00810215212
-0.008111737531
-0.007777595739
-0.007705309671
-0.007832168626
-0.007672954086
-0.007253905812
-0.007309087919
-0.007612090553
-0.007442954273
-0.007082131587
-0.007015567374
-0.007331533934
-0.007377292802
-0.007024025526
-0.006688556636
-0.00662381305
-0.006916796593
-0.006956598951
-0.006597865753
-0.006254718971
-0.005955519127
-0.006181752835
-0.006431460762
-0.006198408013
-0.005906062501
-0.00540772612
-0.005199701977
-0.005554571411
-0.00566685235
-0.005228340143
-0.004773620388
-0.004534696791
-0.004733471097
-0.004948226468
-0.004679580412
-0.004344839202
-0.00415451638
-0.003758409362
-0.00362753919
-0.003916642757
-0.003942610561
-0.003522547163
-0.00298759049
-0.002670834504
-0.003133536238
-0.003222886391
-0.002600759767
-0.002579549977
-0.00213254839
-0.001558050282
-0.001882486471
-0.002010012101
-0.001254889412
-0.0006369517427
-0.0005538091089
-0.0005387376184
-0.0002794752567
9.150541814e-05
0.0003977060673
0.0006203974206
0.0008984861228
0.001291082413
0.001792255617
0.002320990048
0.002487701654
0.002678670578
0.003195982367
0.003928375484
0.004754915338
0.005389293904
0.00591773512
0.006564152411
0.007208522797
0.008089155497
0.009436325895
0.01082809672
0.01134172625
0.01215072455
0.01386976594
0.01683970005
0.02069189763
0.02415635858
0.02500867427
0.02033870851
0.01016454699
0.004220824061
0.004320778719
0.003882965644
)


100
(
-0.005058133932
-0.006492654911
-0.007550922421
-0.007140619538
-0.007244715851
-0.007398842551
-0.007475140928
-0.007531909853
-0.007556574108
-0.007693441295
-0.007717810248
-0.007581868055
-0.007648203098
-0.007612977401
-0.007284285127
-0.00724266882
-0.007414925608
-0.007281042259
-0.006901491509
-0.006894463652
-0.007223287387
-0.007174009696
-0.006826127634
-0.006577952219
-0.006872322878
-0.007107847469
-0.006812088009
-0.006506505356
-0.006229808813
-0.006343378893
-0.006562486434
-0.006449154859
-0.006192320141
-0.005827687069
-0.005558629631
-0.005830021131
-0.006053331234
-0.005773209716
-0.005292787363
-0.00482138577
-0.004935839347
-0.005344197239
-0.005152267969
-0.00468798471
-0.00444234207
-0.004184849238
-0.004253492139
-0.004471135014
-0.004357134447
-0.004088253289
-0.003552462601
-0.002955396905
-0.003371375304
-0.003913327963
-0.003406867036
-0.002909233447
-0.002659323102
-0.002404130765
-0.002658617118
-0.002805934269
-0.002524297597
-0.001752526613
-0.0009198271708
-0.001567971501
-0.001704772323
-0.0009232147225
-0.0006559633823
-0.0002865648081
-2.036081407e-05
0.0001886963021
0.0004977669893
0.0007654674951
0.0009566314048
0.001311402571
0.001750098981
0.002073938227
0.002455041836
0.002916471909
0.003640365626
0.004463273764
0.004669321176
0.004913835465
0.005764395175
0.006841083932
0.007796142509
0.008491894408
0.009464160269
0.01042958987
0.01164133388
0.01269075435
0.0150221623
0.01765802652
0.02088481654
0.02434883345
0.02318121586
0.01800509131
0.009012164112
0.00357084862
0.003414108006
0.002991219297
)


100
(
-0.00456583369
-0.005947899191
-0.006961180029
-0.006575894909
-0.006689870939
-0.00687986061
-0.006973357225
-0.007079940862
-0.007147427895
-0.007206979371
-0.007314250175
-0.007263134749
-0.007137287192
-0.007201997458
-0.007157093956
-0.006841556394
-0.006797734948
-0.007012634541
-0.006936333672
-0.006599187846
-0.006492224238
-0.006825386994
-0.006921504664
-0.006587863339
-0.00632536709
-0.006394575271
-0.006639971012
-0.006586374658
-0.006298644291
-0.006025634292
-0.005801004228
-0.006036926118
-0.006262480029
-0.006028339741
-0.005672881375
-0.005183047588
-0.005232192744
-0.005673082973
-0.005647571562
-0.005192146569
-0.004764362319
-0.004492150511
-0.004656225527
-0.004799363176
-0.004605017747
-0.004463409979
-0.004222421409
-0.003620318631
-0.003695249543
-0.004189352342
-0.003983825268
-0.003429084045
-0.002929286
-0.002808203741
-0.003112476379
-0.003255431904
-0.003081722527
-0.002911691119
-0.002067559846
-0.001772340703
-0.002450551777
-0.002235302517
-0.001443251753
-0.0009945680146
-0.000818760013
-0.0008140507706
-0.0007165235151
-0.0004756629309
-0.0001868295842
-1.665974849e-05
0.0001977647634
0.0007275553347
0.001318567659
0.001721609239
0.002058514426
0.002425726516
0.002586195511
0.002880501662
0.003410858723
0.004024978931
0.004796265117
0.005608245562
0.006302089736
0.006568587374
0.00738457887
0.008826135124
0.01002545124
0.01113477927
0.0115603004
0.01265709088
0.01482998882
0.01740607375
0.02081872989
0.02472241958
0.02314940238
0.01633370252
0.008230054754
0.00322469769
0.002461396272
0.001725502817
)


100
(
-0.004012975537
-0.005394821277
-0.006407228152
-0.006045234618
-0.00615679069
-0.006365265145
-0.006503889727
-0.006610929442
-0.006729690259
-0.006768764641
-0.00684694225
-0.00692550152
-0.006814580649
-0.006702717419
-0.006785057341
-0.006746249744
-0.006444382119
-0.006367947146
-0.00662486862
-0.006638973811
-0.006334301159
-0.006094208065
-0.006405573422
-0.006649073027
-0.006361044066
-0.006109748693
-0.005906585966
-0.006104758592
-0.00632858305
-0.006152021698
-0.005885424629
-0.005492409654
-0.005433910584
-0.005797351152
-0.005891837567
-0.00553039376
-0.005055777389
-0.004754402047
-0.005033672635
-0.005356913997
-0.005066048077
-0.004668814941
-0.004392412567
-0.004165441287
-0.004211645728
-0.004434697134
-0.004397857118
-0.004036598721
-0.003460765499
-0.003066368894
-0.003555548197
-0.00382656179
-0.003278716579
-0.002882160283
-0.002860890346
-0.002629844194
-0.002711385771
-0.003040092156
-0.002548568276
-0.001770190822
-0.001278205122
-0.001784753592
-0.001822625691
-0.001260703423
-0.001068803917
-0.0007129544649
-0.0005066256596
-0.0002967643385
-1.255497311e-05
0.000297387345
0.0007586729384
0.0009647120744
0.001066265462
0.001395186794
0.001718838809
0.002191572937
0.00279642294
0.00353810441
0.004154556522
0.00423545597
0.004519982312
0.005160258987
0.006111596041
0.007204354808
0.008474347609
0.009240674122
0.009474907223
0.01070481133
0.01212508386
0.01330106654
0.0152775371
0.01836742434
0.02241711433
0.02346993761
0.02053343837
0.01541672848
0.00735300727
0.002755065496
0.001812174454
0.0008111078558
)


100
(
-0.003457508805
-0.004852961143
-0.005894289663
-0.005538092419
-0.005644470888
-0.005865821595
-0.006038619869
-0.006145521329
-0.006295229588
-0.006402532755
-0.006373369764
-0.006473710377
-0.006555806573
-0.006383569318
-0.006279476219
-0.006392968931
-0.006367085726
-0.006090356695
-0.005966869197
-0.006253525933
-0.006374978199
-0.006091500191
-0.005857641121
-0.005961555403
-0.006200301592
-0.006133359276
-0.005880858577
-0.005689599011
-0.005625590665
-0.005820313774
-0.005935898488
-0.005707874265
-0.005306660762
-0.004903031047
-0.005231803242
-0.005680466843
-0.005391238211
-0.004938955042
-0.004648554602
-0.004423654074
-0.004603648273
-0.004845543758
-0.004712534189
-0.004497728115
-0.004024519084
-0.003383765397
-0.003773607455
-0.004359027958
-0.003916757325
-0.003341067282
-0.003003028742
-0.002847353532
-0.003104709554
-0.003353323568
-0.003180834594
-0.002725888035
-0.001951684414
-0.00213550462
-0.002778303775
-0.002229259087
-0.001473014202
-0.001208631214
-0.001103103746
-0.000993386664
-0.000936031846
-0.0008560085646
-0.0005708944881
-0.0003997548177
-0.0001763802997
0.0002829133749
0.0007334765549
0.001105191129
0.001437647348
0.001747584628
0.002232159682
0.002518940785
0.002664179655
0.003098524461
0.003713773881
0.004397300066
0.005321313275
0.005932484356
0.006017878571
0.006976380783
0.008195794434
0.008933013495
0.009943293451
0.01109207688
0.01237087942
0.01359797191
0.01551548126
0.01902177751
0.02175728546
0.02373954286
0.02074380949
0.01374387027
0.006672956246
0.002317624772
0.00146495817
0.0005975046464
)


100
(
-0.002985387339
-0.004362944657
-0.005419356116
-0.00507061571
-0.005165693495
-0.005382876788
-0.005569396997
-0.005716469505
-0.005844134771
-0.006000770718
-0.006051633579
-0.00598864756
-0.006107777839
-0.00618361212
-0.005978810991
-0.005867319823
-0.006013624396
-0.006027484038
-0.005781762005
-0.005596914968
-0.005882200276
-0.006100377795
-0.005859419706
-0.005637343054
-0.005494889304
-0.005705614211
-0.005909091798
-0.005745807662
-0.00551346128
-0.005124907385
-0.005259737116
-0.005662220555
-0.005556534396
-0.005154705566
-0.004736813612
-0.004653862831
-0.005092887272
-0.00520173988
-0.004786451304
-0.004514847897
-0.004352460813
-0.004067109207
-0.004235582906
-0.00457549803
-0.004401422644
-0.003851591173
-0.003231653244
-0.003120152995
-0.003690131677
-0.003762582917
-0.003142052683
-0.003123482018
-0.002905212247
-0.002493486161
-0.002864084979
-0.003197128245
-0.002448384268
-0.001674568106
-0.001555989827
-0.001835575103
-0.001857894485
-0.001476228954
-0.001216938219
-0.0009770999613
-0.0008402727149
-0.0006639245911
-0.0003729705646
6.372470564e-06
0.0004437318305
0.0006256895435
0.0006669900317
0.0008837421963
0.001173771411
0.001556758528
0.002092847036
0.002737081709
0.003365611901
0.003819857533