/*--------------------------------*- C++ -*----------------------------------*\
| =========                 |                                                 |
| \\      /  F ield         | OpenFOAM: The Open Source CFD Toolbox           |
|  \\    /   O peration     | Version:  2.3.1                                 |
|   \\  /    A nd           | Web:      www.OpenFOAM.org                      |
|    \\/     M anipulation  |                                                 |
\*---------------------------------------------------------------------------*/
FoamFile
{
    version     2.0;
    format      ascii;
    class       dictionary;
    location    "constant";
    object      GRPSI22;
}
// * * * * * * * * * * * * * * * * * * * * * * * * * * * * * * * * * * * * * //

GRPSI22_table
100
(

100
(
-9.623715259e-05
-6.978306867e-05
-4.287321213e-05
-1.824395697e-05
-1.425758344e-06
1.648595498e-05
2.624795387e-05
3.55931797e-05
4.195882944e-05
4.735860474e-05
4.902651581e-05
5.347406446e-05
5.416111256e-05
5.657023122e-05
6.017519907e-05
6.045862051e-05
6.168409369e-05
6.60587534e-05
6.55217238e-05
6.600271869e-05
6.871216088e-05
6.93334991e-05
6.895673908e-05
6.931947036e-05
7.07362543e-05
6.94754816e-05
6.954890479e-05
7.040673948e-05
7.291327189e-05
7.157815158e-05
7.143881299e-05
7.1317362e-05
7.206285616e-05
7.11297565e-05
7.126141423e-05
7.209292489e-05
7.42535953e-05
7.509189086e-05
7.444923207e-05
7.464976052e-05
7.560255922e-05
7.660342653e-05
7.590579203e-05
7.57466217e-05
7.56055261e-05
7.612553037e-05
7.548293773e-05
7.549280904e-05
7.607033946e-05
7.731673808e-05
7.770294302e-05
7.719688322e-05
7.684725691e-05
7.700571596e-05
7.703641177e-05
7.606390198e-05
7.503088656e-05
7.460713459e-05
7.537267931e-05
8.031974032e-05
9.143228814e-05
9.00936129e-05
8.102883055e-05
8.364284754e-05
9.394406548e-05
9.329941751e-05
8.565458567e-05
9.238480803e-05
0.0001004554896
9.692519778e-05
9.393530092e-05
0.0001028358624
0.0001065407491
0.0001008288803
0.0001191657924
0.0001353431698
0.0001138313264
0.0001285625035
0.0001440100955
0.0001212627329
0.0001464667286
0.0001427737471
0.0001424462414
0.000172729966
0.0001516874144
0.0001767623902
0.0001881185407
0.0001887357274
0.0002216481915
0.0002227893649
0.000252668993
0.0002761172687
0.0003207794776
0.0003523202323
0.0004069120778
0.0004423307139
0.0004953675186
0.0005149492122
0.000302157497
0.0001510463825
)


100
(
-9.625673922e-05
-7.221845691e-05
-4.610064774e-05
-2.113643835e-05
-3.193028594e-06
1.451392411e-05
2.509396969e-05
3.559748403e-05
4.17418943e-05
4.906747346e-05
5.10000096e-05
5.545872546e-05
5.73092346e-05
5.875280033e-05
6.259041963e-05
6.442271397e-05
6.504011709e-05
6.724228009e-05
7.009042967e-05
6.988924608e-05
7.054923213e-05
7.218640803e-05
7.315153855e-05
7.268604311e-05
7.234503071e-05
7.303337455e-05
7.302595616e-05
7.283536807e-05
7.31016122e-05
7.410931704e-05
7.459918152e-05
7.373820396e-05
7.326161356e-05
7.336741722e-05
7.361292632e-05
7.349626329e-05
7.399142028e-05
7.478242211e-05
7.595205653e-05
7.631421746e-05
7.613216642e-05
7.643375801e-05
7.702455588e-05
7.781897119e-05
7.719133546e-05
7.697959811e-05
7.696049371e-05
7.729025881e-05
7.739092202e-05
7.743371752e-05
7.781947943e-05
7.860539324e-05
8.014568239e-05
8.035630835e-05
8.096827879e-05
8.141799608e-05
8.339746681e-05
8.314219809e-05
8.362816712e-05
8.47936748e-05
9.058217042e-05
9.705779846e-05
9.897260374e-05
9.690035279e-05
9.583648573e-05
9.904530571e-05
0.0001007550828
0.0001011107429
0.0001014546316
0.0001035368422
0.0001045448269
0.0001050804934
0.0001063657681
0.0001078223057
0.0001119523965
0.0001262782318
0.0001463551349
0.0001452502027
0.0001447144777
0.0001554726184
0.0001571238374
0.0001710316796
0.0001739902683
0.0001965261563
0.0002032129192
0.0002128088073
0.0002318944998
0.0002451634002
0.000264856894
0.000290843409
0.0003178238564
0.0003456977108
0.0003826740273
0.0004254875136
0.0004661589826
0.0005149534255
0.0005699423707
0.0004845638124
0.0003283323172
0.0002017692486
)


100
(
-9.628722429e-05
-7.697352924e-05
-5.250933004e-05
-2.656871651e-05
-7.608441663e-06
1.041612432e-05
2.242600335e-05
3.487667602e-05
4.14652222e-05
4.960777771e-05
5.407466257e-05
5.718040889e-05
6.185593149e-05
6.254970268e-05
6.449713613e-05
6.866804013e-05
6.993747654e-05
6.960891422e-05
7.237862731e-05
7.542080563e-05
7.398928503e-05
7.451594187e-05
7.626455789e-05
7.752401238e-05
7.558997136e-05
7.5936452e-05
7.635984327e-05
7.65139536e-05
7.47146458e-05
7.560289312e-05
7.636521854e-05
7.717183524e-05
7.583330404e-05
7.57312875e-05
7.563902081e-05
7.574653353e-05
7.52527098e-05
7.52378493e-05
7.633048505e-05
7.719603444e-05
7.814182518e-05
7.871289627e-05
7.948987416e-05
8.046036866e-05
8.146675123e-05
8.37673956e-05
8.438388523e-05
8.53042973e-05
8.600097531e-05
8.919864215e-05
8.979253648e-05
9.155649678e-05
9.286010207e-05
9.612946938e-05
9.700228746e-05
9.780941179e-05
9.889187797e-05
0.0001029184896
0.0001033969966
0.0001005673594
9.642072985e-05
0.0001008532146
0.0001092421877
0.0001097178709
0.0001045144498
0.0001043004685
0.0001092141204
0.0001075531023
0.0001060864272
0.0001143269031
0.0001232664355
0.0001276405015
0.0001354249549
0.000149525567
0.0001496608916
0.0001519526026
0.0001804473653
0.0001807649482
0.00018162401
0.0002175789325
0.0002134985143
0.0002272688494
0.0002524835384
0.0002474529974
0.0002768880374
0.0002876560767
0.0003084776983
0.0003349862077
0.0003464144417
0.0003765759973
0.0003990376474
0.0004275441739
0.0004435926503
0.0004826654882
0.0005134800343
0.000559942576
0.0006082289527
0.0004375561318
0.0003703682724
0.0002852371678
)


100
(
-9.630065317e-05
-8.092832675e-05
-5.739636143e-05
-3.265528181e-05
-1.314682578e-05
5.224733743e-06
1.879699653e-05
3.074728977e-05
4.045497176e-05
4.681977592e-05
5.490218804e-05
5.722230483e-05
6.086090953e-05
6.46749123e-05
6.460034343e-05
6.681977395e-05
7.070032571e-05
7.131690202e-05
7.056672671e-05
7.334908888e-05
7.586638172e-05
7.483232831e-05
7.474623431e-05
7.636180085e-05
7.779669479e-05
7.634984868e-05
7.607618078e-05
7.63991992e-05
7.678102353e-05
7.58300845e-05
7.558962012e-05
7.653060915e-05
7.724223148e-05
7.801734592e-05
7.714101867e-05
7.748371951e-05
7.77104627e-05
7.968938655e-05
7.94434566e-05
8.060925442e-05
8.24985685e-05
8.459787346e-05
8.704109744e-05
8.697041816e-05
8.859190244e-05
9.09541165e-05
9.634670463e-05
9.631362576e-05
9.737583998e-05
9.989003184e-05
0.0001044791256
0.0001051153389
0.0001047205171
0.0001069438768
0.0001098170899
0.0001104701198
0.0001086705811
0.0001122913617
0.0001152553928
0.0001162461899
0.0001111184171
0.0001063203261
0.0001077439513
0.0001156150682
0.0001228675584
0.0001264522658
0.0001321146911
0.0001413117011
0.0001493022471
0.0001560590717
0.0001644275727
0.0001739861675
0.000183832173
0.0001954153742
0.0002062888828
0.0002028679264
0.0001973578163
0.0002200917476
0.0002333083444
0.0002394484334
0.0002590918305
0.0002638798148
0.0002759872239
0.0002723335649
0.00029139537
0.0003047593232
0.0003129673321
0.0003255210844
0.0003274242424
0.0003123963339
0.0003189794442
0.0003315473501
0.0003168089235
0.0003170012112
0.0003194419939
0.0003241222627
0.000344045938
0.000327393631
0.0003488020593
0.0003220473968
)


100
(
-9.629755236e-05
-8.481254611e-05
-6.246970631e-05
-3.972851644e-05
-1.924989801e-05
-1.04880624e-06
1.412335403e-05
2.505714019e-05
3.693737455e-05
4.387154981e-05
5.089835078e-05
5.707241647e-05
5.837490092e-05
6.250492714e-05
6.524121389e-05
6.492038769e-05
6.725256495e-05
7.064368383e-05
7.122768888e-05
7.016541391e-05
7.274637703e-05
7.494118583e-05
7.482499625e-05
7.398591619e-05
7.553396568e-05
7.677568477e-05
7.674638559e-05
7.578019107e-05
7.610376205e-05
7.637544774e-05
7.722920954e-05
7.631147662e-05
7.727295864e-05
7.831982941e-05
8.107630515e-05
8.04370922e-05
8.069429814e-05
8.128784217e-05
8.637031921e-05
8.66825646e-05
8.723460801e-05
8.822593603e-05
9.234503005e-05
9.451686315e-05
9.430878895e-05
9.29100159e-05
9.782384856e-05
0.0001027478156
0.0001021640302
0.0001002652116
0.000103854924
0.0001070560723
0.0001079761652
0.0001069698519
0.0001093674142
0.0001124609104
0.0001142827271
0.0001152126133
0.0001201933357
0.0001278534483
0.0001355648661
0.0001407571953
0.0001433877733
0.0001488456381
0.0001583542065
0.000169666302
0.0001774534781
0.0001838169449
0.0001906860683
0.0001937985561
0.0001965520094
0.0001968801392
0.0001966076919
0.0001961382545
0.0002046944872
0.0002107907901
0.0002042284408
0.0002138930693
0.0002214864988
0.0002047409336
0.0002019130011
0.000201002385
0.0001952376987
0.0001960852528
0.0001837132049
0.0001599148187
0.0001407072996
0.0001151550513
7.270390348e-05
4.132596647e-05
5.485030366e-06
-4.718282599e-05
-8.87832564e-05
-0.000148787999
-0.0002058376005
-0.0002458734762
-0.0002272689429
2.496484915e-05
0.0001942320337
0.0002987003749
)


100
(
-9.614268066e-05
-8.914744657e-05
-6.911346916e-05
-4.698210521e-05
-2.562655038e-05
-7.770087457e-06
7.910063493e-06
2.001627822e-05
3.062370961e-05
4.069005635e-05
4.579256721e-05
5.331747514e-05
5.762667885e-05
5.904962842e-05
6.288029477e-05
6.493456625e-05
6.457280413e-05
6.670759703e-05
6.964593036e-05
7.045147649e-05
6.943110989e-05
7.126756818e-05
7.320577931e-05
7.409188604e-05
7.29204861e-05
7.404203236e-05
7.522812601e-05
7.529552969e-05
7.412183584e-05
7.42591185e-05
7.566702874e-05
7.823436143e-05
7.795005391e-05
7.757562503e-05
8.015054188e-05
8.380934092e-05
8.350362434e-05
8.18173376e-05
8.444853244e-05
8.919629915e-05
8.922772832e-05
8.893434602e-05
8.943888261e-05
9.366631856e-05
9.571946514e-05
9.424691872e-05
9.345533625e-05
9.826706661e-05
0.0001032034184
0.0001021999812
0.0001019389322
0.0001051550192
0.000109503337
0.000113061859
0.0001152762008
0.0001202473197
0.0001264775591
0.0001316044105
0.0001370993966
0.0001425401456
0.0001499799796
0.0001583189621
0.0001661178409
0.0001714238091
0.000172811196
0.0001747512498
0.0001758397809
0.0001724281329
0.0001712833264
0.0001679977234
0.0001635191168
0.000161086375
0.0001606933053
0.0001551937473
0.0001474343115
0.0001428810557
0.0001236519769
9.782514028e-05
7.759361216e-05
5.60459719e-05
3.148773584e-05
4.749908879e-06
-2.874769698e-05
-7.278462538e-05
-0.0001202446078
-0.0001666387832
-0.0002231785474
-0.0002771781196
-0.0003284471213
-0.0003678169564
-0.0004270581539
-0.0004883039565
-0.0005297008799
-0.0005862282451
-0.0006356108398
-0.0006829830869
-0.0006709376524
-0.0004056581468
-0.0001341457168
0.0002167205916
)


100
(
-9.590511735e-05
-9.332064055e-05
-7.56790918e-05
-5.397363673e-05
-3.282980781e-05
-1.506684226e-05
6.374699171e-07
1.416670165e-05
2.408069994e-05
3.482983637e-05
4.25386686e-05
4.769819315e-05
5.450970401e-05
5.745967908e-05
5.906213835e-05
6.230783818e-05
6.390184298e-05
6.344335774e-05
6.501358528e-05
6.732869573e-05
6.838200382e-05
6.753303563e-05
6.840483952e-05
7.016269735e-05
7.213594577e-05
7.16703399e-05
7.200942063e-05
7.341766721e-05
7.362079458e-05
7.312351945e-05
7.229478444e-05
7.635018751e-05
7.879276847e-05
7.875406011e-05
7.693324552e-05
8.129030702e-05
8.453915679e-05
8.430260026e-05
8.043778766e-05
8.48361964e-05
8.90171816e-05
8.932943944e-05
8.750971432e-05
8.914742881e-05
9.316508406e-05
9.53129121e-05
9.366538726e-05
9.326082534e-05
9.875694836e-05
0.0001034728644
0.000105697399
0.0001069963725
0.0001109013863
0.0001154446335
0.0001219787517
0.0001291843398
0.0001331517734
0.0001350866668
0.0001376661356
0.0001394921251
0.0001388049298
0.0001358617703
0.0001364758251
0.0001348021928
0.0001260359741
0.000114981188
0.0001068966786
9.755815077e-05
8.682773687e-05
7.896109992e-05
6.816560728e-05
5.503508816e-05
3.985746781e-05
1.496558014e-05
-2.325618651e-05
-6.057857931e-05
-9.32044499e-05
-0.0001326896423
-0.0001750392329
-0.0002096847716
-0.0002487672106
-0.000295067091
-0.0003474987424
-0.0003901919891
-0.0004273157987
-0.0004557035436
-0.0004855367269
-0.0005038347091
-0.0005003804545
-0.0005101653119
-0.0005181375444
-0.0005061114633
-0.0005007671326
-0.0004904053098
-0.0004834833189
-0.0004970643117
-0.0005620651055
-0.0005900896185
-0.0004727563422
8.706987396e-05
)


100
(
-9.581784882e-05
-9.691729778e-05
-8.142687701e-05
-6.052221715e-05
-4.098184637e-05
-2.255935726e-05
-6.878881325e-06
7.090961713e-06
1.824613922e-05
2.753969672e-05
3.759448207e-05
4.338200564e-05
4.870912834e-05
5.447458668e-05
5.636466225e-05
5.776841725e-05
6.019206731e-05
6.156965422e-05
6.091714421e-05
6.150662589e-05
6.326207552e-05
6.487052837e-05
6.462440788e-05
6.474260495e-05
6.667610268e-05
6.949212566e-05
7.05632921e-05
7.153825256e-05
7.329070329e-05
7.328293192e-05
7.216772829e-05
7.125585549e-05
7.655026093e-05
7.868024387e-05
7.758008318e-05
7.6443517e-05
8.104306008e-05
8.420246448e-05
8.162357325e-05
8.014871862e-05
8.395956715e-05
8.799478523e-05
8.739376888e-05
8.681484333e-05
8.821454867e-05
9.254406011e-05
9.328261829e-05
9.331765881e-05
9.273592098e-05
9.700524803e-05
9.944566021e-05
0.0001042113678
0.0001067841634
0.00010670138
0.0001072489954
0.0001094771905
0.0001110247322
0.0001087214273
0.000103108236
9.844747879e-05
9.09012451e-05
7.561541358e-05
5.680212494e-05
3.780784448e-05
2.050746397e-05
6.595331253e-07
-1.82015548e-05
-3.660854578e-05
-5.909955133e-05
-8.148792945e-05
-0.0001095740438
-0.0001487114219
-0.0001959214706
-0.0002357623362
-0.0002729694341
-0.00031380218
-0.0003451180439
-0.0003714905434
-0.0003943689558
-0.0004174937483
-0.0004379440875
-0.0004494020436
-0.0004458138396
-0.0004318608276
-0.0004163066882
-0.0003959649054
-0.0003671996499
-0.0003374908883
-0.0003050759573
-0.0002725127423
-0.0002415513549
-0.0002143414252
-0.0001879163348
-0.0001659844027
-0.0001500020702
-0.0001460048776
-0.0002176454826
-0.0003621088575
-0.000466579995
-5.64204741e-05
)


100
(
-9.581259161e-05
-9.887765985e-05
-8.578945951e-05
-6.770410521e-05
-4.932084042e-05
-3.033303372e-05
-1.488792185e-05
-7.77028968e-07
1.156843218e-05
2.10469365e-05
3.020655528e-05
3.85884418e-05
4.29626557e-05
4.802477353e-05
5.243274112e-05
5.350709752e-05
5.432281327e-05
5.597509657e-05
5.68514151e-05
5.664068481e-05
5.680993468e-05
5.86760341e-05
6.146187843e-05
6.215354988e-05
6.170421014e-05
6.365962585e-05
6.685007746e-05
6.945795145e-05
7.10557015e-05
7.280763393e-05
7.254906317e-05
6.927541913e-05
7.09599058e-05
7.605706872e-05
7.802247115e-05
7.522154586e-05
7.583789552e-05
8.006688484e-05
8.22152896e-05
7.94217995e-05
7.844812668e-05
8.123261904e-05
8.399704978e-05
8.327627159e-05
8.179732484e-05
8.188563011e-05
8.247406997e-05
8.325476374e-05
8.442138948e-05
8.280251252e-05
8.071114414e-05
7.990956396e-05
7.997991779e-05
7.819129488e-05
7.08093453e-05
6.058247245e-05
5.314058973e-05
4.168346629e-05
2.158151489e-05
-4.073614617e-06
-2.97180943e-05
-5.303497496e-05
-7.925893324e-05
-0.0001062870231
-0.0001320312604
-0.0001585166739
-0.0001859082595
-0.0002150653462
-0.0002486733696
-0.0002907008231
-0.0003302528029
-0.0003599501803
-0.0003875581818
-0.0004068269062
-0.0004146000101
-0.0004137522566
-0.0004093161114
-0.000399660107
-0.0003820337965
-0.000360180608
-0.0003288617545
-0.0002937230065
-0.0002581982102
-0.0002234575527
-0.0001888747852
-0.000155855593
-0.00012833382
-0.0001065581169
-8.967404117e-05
-7.306276369e-05
-5.994222545e-05
-5.219871825e-05
-4.635395075e-05
-4.257171553e-05
-4.080753165e-05
-4.180893818e-05
-5.747527587e-05
-0.0001078604691
-0.0002061625265
-0.0001557080951
)


100
(
-9.579320837e-05
-0.0001010119158
-9.066360572e-05
-7.534896811e-05
-5.671549927e-05
-3.890791617e-05
-2.291486595e-05
-8.874630628e-06
3.848668207e-06
1.426342223e-05
2.238208965e-05
3.083746428e-05
3.708323901e-05
4.051136869e-05
4.480064351e-05
4.77262585e-05
4.854500858e-05
4.871714963e-05
5.010391324e-05
5.20140229e-05
5.277345891e-05
5.276149826e-05
5.491816485e-05
5.841939419e-05
6.023012437e-05
5.961220713e-05
6.078668009e-05
6.41214922e-05
6.774609822e-05
6.999133063e-05
7.193357368e-05
7.060933511e-05
6.748541755e-05
6.997595138e-05
7.458422887e-05
7.472602088e-05
7.298786144e-05
7.288205831e-05
7.600906445e-05
7.486129475e-05
7.232667798e-05
6.872670437e-05
6.820052689e-05
6.687400776e-05
6.654067288e-05
6.465957105e-05
6.119423399e-05
5.801430233e-05
5.582455248e-05
5.311134627e-05
4.636816025e-05
3.545982696e-05
2.392296602e-05
1.244222244e-05
-3.301070297e-06
-2.789478721e-05
-6.075947201e-05
-9.07084509e-05
-0.0001217308356
-0.0001546462679
-0.0001883390132
-0.0002196638068
-0.0002457355227
-0.000269427126
-0.0002959880266
-0.0003229543955
-0.0003508327951
-0.0003755650887
-0.0003890781717
-0.000398649412
-0.0004034062368
-0.0003939396256
-0.0003692006412
-0.0003456265528
-0.0003202386403
-0.0002874848392
-0.0002508595198
-0.0002178558682
-0.000184243923
-0.0001524017302
-0.000123903365
-9.969706831e-05
-7.954306789e-05
-6.335837066e-05
-5.150707479e-05
-4.313382208e-05
-3.64292452e-05
-3.218849921e-05
-2.852043211e-05
-2.584921862e-05
-2.399217368e-05
-2.2716299e-05
-2.174822353e-05
-2.100683984e-05
-2.135917044e-05
-2.161978633e-05
-2.545739928e-05
-3.319087071e-05
-5.339208944e-05
-0.0001945366066
)


100
(
-9.340799704e-05
-0.0001038355336
-9.638633997e-05
-8.266762133e-05
-6.385782397e-05
-4.797700852e-05
-3.106743327e-05
-1.759041112e-05
-4.628743513e-06
6.393412158e-06
1.491177967e-05
2.180577062e-05
2.858167763e-05
3.293458795e-05
3.576094532e-05
3.922177702e-05
4.171932039e-05
4.312232028e-05
4.386052209e-05
4.570511313e-05
4.863362314e-05
5.001819422e-05
4.968218713e-05
5.187985585e-05
5.569047783e-05
5.837295973e-05
5.779058864e-05
5.781922221e-05
6.101038888e-05
6.45281465e-05
6.835504583e-05
6.971455549e-05
6.627661679e-05
6.494206092e-05
6.629461694e-05
6.892960365e-05
6.680504686e-05
6.388521571e-05
6.069462064e-05
5.852432425e-05
5.447895273e-05
5.044103367e-05
4.517490789e-05
4.04489396e-05
3.670810169e-05
3.321062252e-05
2.699055583e-05
1.669311905e-05
4.695302383e-06
-7.395762802e-06
-2.197021685e-05
-4.252778359e-05
-7.144804676e-05
-0.0001034068692
-0.00013590249
-0.0001706060948
-0.0002062481688
-0.0002460555722
-0.0002804923787
-0.0003008023375
-0.0003220003531
-0.0003451350649
-0.0003653879086
-0.0003806286248
-0.0003862274556
-0.0003829394893
-0.0003760951894
-0.0003642074212
-0.0003431121473
-0.0003073091192
-0.0002708639792
-0.000237778246
-0.0002026467093
-0.0001660764162
-0.0001336104602
-0.0001089814563
-8.694781688e-05
-6.87255131e-05
-5.459617282e-05
-4.388879041e-05
-3.600349087e-05
-3.030809835e-05
-2.657484e-05
-2.388813115e-05
-2.151466908e-05
-1.970020922e-05
-1.804068001e-05
-1.662433569e-05
-1.550529035e-05
-1.454605441e-05
-1.385651464e-05
-1.337083348e-05
-1.29717995e-05
-1.287927992e-05
-1.338614632e-05
-1.29383134e-05
-1.498209397e-05
-1.775340232e-05
-2.173556518e-05
-0.0001879108795
)


100
(
-8.832618586e-05
-0.0001057976293
-0.0001017170914
-8.793025845e-05
-7.211012827e-05
-5.637013326e-05
-4.019238557e-05
-2.599442105e-05
-1.374388909e-05
-2.406814949e-06
6.199299572e-06
1.31630597e-05
1.898363983e-05
2.368533867e-05
2.723187848e-05
3.035347207e-05
3.375887468e-05
3.688061121e-05
3.934330168e-05
4.029174493e-05
4.259216779e-05
4.602684615e-05
4.779133953e-05
4.744821638e-05
4.896757427e-05
5.272163362e-05
5.579373427e-05
5.544230975e-05
5.452076119e-05
5.689770575e-05
5.949661354e-05
6.291494918e-05
6.268142267e-05
5.885891447e-05
5.536843814e-05
5.323938284e-05
4.974717091e-05
4.466209455e-05
3.93018809e-05
3.316480982e-05
2.729614602e-05
2.200776992e-05
1.53753085e-05
6.852669143e-06
-4.686757725e-06
-1.678401311e-05
-3.004263499e-05
-4.748044523e-05
-7.302587969e-05
-0.000100236797
-0.0001290329867
-0.0001620232804
-0.0001982933855
-0.0002377437756
-0.0002831265114
-0.000308524757
-0.0003248920627
-0.0003444404956
-0.0003610353697
-0.0003725499508
-0.0003755779215
-0.0003629925506
-0.0003490305545
-0.0003326318755
-0.000309303829
-0.0002800026714
-0.0002426117627
-0.0002051100947
-0.0001744138955
-0.0001445593025
-0.0001119547176
-8.438804108e-05
-6.688062446e-05
-5.232617616e-05
-4.151652137e-05
-3.362815562e-05
-2.822388905e-05
-2.423387771e-05
-2.125928246e-05
-1.908342205e-05
-1.749013487e-05
-1.604561396e-05
-1.473394571e-05
-1.360411335e-05
-1.270295001e-05
-1.174428774e-05
-1.110187183e-05
-1.033036631e-05
-9.670129571e-06
-9.170202761e-06
-8.780542346e-06
-8.548989473e-06
-8.354104771e-06
-8.492321475e-06
-8.55134449e-06
-8.443990321e-06
-9.86829187e-06
-1.105425925e-05
-1.316948881e-05
-0.000169962816
)


100
(
-8.560791536e-05
-0.0001064020222
-0.0001047312532
-9.319375878e-05
-8.05527368e-05
-6.377527238e-05
-4.994730138e-05
-3.470552825e-05
-2.343876151e-05
-1.214925318e-05
-2.892361526e-06
3.11747061e-06
9.442381668e-06
1.459045114e-05
1.851692751e-05
2.250819935e-05
2.616229012e-05
2.979337491e-05
3.362920461e-05
3.649546973e-05
3.751084465e-05
3.992274662e-05
4.344219721e-05
4.539125921e-05
4.503752612e-05
4.563054939e-05
4.881347436e-05
5.13137612e-05
5.12236144e-05
4.968536413e-05
4.913182355e-05
4.969805648e-05
4.987899661e-05
4.464590855e-05
3.864202614e-05
3.174401908e-05
2.494869346e-05
1.822256545e-05
1.128671109e-05
3.588221917e-06
-5.315719958e-06
-1.574721735e-05
-2.75767668e-05
-4.174436236e-05
-6.240941289e-05
-8.378654635e-05
-0.0001070113891
-0.0001344739321
-0.0001679152214
-0.0002058209638
-0.0002504013042
-0.0002832876972
-0.0003059459217
-0.0003244845987
-0.0003442359888
-0.0003589243952
-0.0003672273375
-0.000349216405
-0.0003296514057
-0.0003128936149
-0.0002879257772
-0.0002577690573
-0.000222960608
-0.0001854698862
-0.000152499474
-0.0001261655135
-0.0001022000178
-7.79222457e-05
-5.784932866e-05
-4.697659314e-05
-3.674960429e-05
-2.939167893e-05
-2.439707917e-05
-2.094291417e-05
-1.835260648e-05
-1.63199615e-05
-1.479096891e-05
-1.359527508e-05
-1.256554655e-05
-1.161349871e-05
-1.07013129e-05
-9.875948498e-06
-9.222143247e-06
-8.585056449e-06
-8.073482461e-06
-7.550028852e-06
-7.275475375e-06
-6.756794258e-06
-6.438365798e-06
-6.106776203e-06
-5.865635239e-06
-5.712202978e-06
-5.610883899e-06
-5.666745361e-06
-5.659528961e-06
-5.878918741e-06
-6.799049482e-06
-7.383487266e-06
-8.72395004e-06
-0.000128998731
)


100
(
-8.558723172e-05
-0.0001057435984
-0.0001067170399
-9.976655642e-05
-8.766779891e-05
-7.205310459e-05
-5.872788405e-05
-4.475618631e-05
-3.230302047e-05
-2.312494093e-05
-1.297213408e-05
-5.957653639e-06
-1.080398735e-06
5.428088498e-06
1.064166668e-05
1.475320363e-05
1.929164565e-05
2.317514714e-05
2.683609886e-05
3.09190935e-05
3.378425135e-05
3.491149479e-05
3.700614472e-05
4.02993552e-05
4.213615219e-05
4.169531104e-05
4.12319045e-05
4.278245775e-05
4.359377542e-05
4.184713278e-05
3.832359643e-05
3.421637539e-05
2.955883623e-05
2.368418483e-05
1.547163593e-05
6.785028764e-06
-6.880578382e-07
-9.934940603e-06
-2.005481332e-05
-3.207146437e-05
-4.826688948e-05
-6.571248407e-05
-8.207548832e-05
-0.0001040122943
-0.0001297089931
-0.0001612345182
-0.0001989996916
-0.0002332038682
-0.0002607905753
-0.0002895426997
-0.0003135689086
-0.0003363500531
-0.0003514832184
-0.0003407281758
-0.0003166849099
-0.0003056466186
-0.00028778548
-0.0002605158043
-0.0002252974723
-0.0001852654128
-0.0001480817181
-0.0001210661104
-9.793614413e-05
-7.786712151e-05
-5.80182329e-05
-4.267330698e-05
-3.508914992e-05
-2.849860465e-05
-2.318928616e-05
-1.949119719e-05
-1.699310951e-05
-1.522868771e-05
-1.378579258e-05
-1.245755028e-05
-1.132092814e-05
-1.037548562e-05
-9.508471463e-06
-8.757088647e-06
-8.074954784e-06
-7.45650125e-06
-6.964579554e-06
-6.531254683e-06
-6.148400795e-06
-5.735526146e-06
-5.397811433e-06
-5.146050906e-06
-4.941602333e-06
-4.663647641e-06
-4.421850588e-06
-4.26892001e-06
-4.100008978e-06
-4.090891963e-06
-3.931938436e-06
-4.014100637e-06
-4.082649987e-06
-4.327054882e-06
-4.742621196e-06
-5.213971067e-06
-6.071495883e-06
-8.961690657e-05
)


100
(
-8.555978412e-05
-0.000105613981
-0.0001097120107
-0.0001055417173
-9.316011464e-05
-8.128023615e-05
-6.639928895e-05
-5.53483074e-05
-4.186743268e-05
-3.282779069e-05
-2.477604091e-05
-1.547995383e-05
-9.976123997e-06
-4.92629152e-06
2.018745485e-06
7.435619043e-06
1.192918912e-05
1.658918897e-05
2.039952791e-05
2.386262408e-05
2.789196496e-05
3.057761863e-05
3.168669316e-05
3.315498813e-05
3.567704473e-05
3.673663681e-05
3.558324415e-05
3.369051409e-05
3.178182215e-05
2.89013269e-05
2.337842495e-05
1.504203145e-05
8.047799697e-06
2.77833137e-07
-8.679037503e-06
-1.868688549e-05
-3.174027725e-05
-4.486369231e-05
-5.799281263e-05
-7.384045692e-05
-9.494428396e-05
-0.0001203479712
-0.00015236918
-0.0001788637412
-0.0002052305598
-0.0002363012721
-0.0002680155052
-0.0002957144328
-0.0003268042492
-0.0003291956067
-0.000317423638
-0.0003074457229
-0.0002978848551
-0.0002796912279
-0.0002477953603
-0.0002062456292
-0.0001653546923
-0.0001386481453
-0.0001090687069
-8.515958962e-05
-6.546113702e-05
-4.790368744e-05
-3.638096742e-05
-3.008495327e-05
-2.499932169e-05
-2.031924352e-05
-1.689551904e-05
-1.47401336e-05
-1.317973796e-05
-1.19084941e-05
-1.076782361e-05
-9.753478205e-06
-8.955718554e-06
-8.237332234e-06
-7.593725707e-06
-6.980023571e-06
-6.422021558e-06
-5.94756467e-06
-5.531906035e-06
-5.172579226e-06
-4.873764631e-06
-4.596892949e-06
-4.274982044e-06
-4.016743915e-06
-3.853267708e-06
-3.720632626e-06
-3.504931047e-06
-3.325449832e-06
-3.206599105e-06
-3.121268934e-06
-3.05151283e-06
-3.025823144e-06
-2.967898816e-06
-3.042040998e-06
-3.045647303e-06
-3.25586432e-06
-3.464496108e-06
-3.78553612e-06
-4.331114801e-06
-7.39012042e-05
)


100
(
-8.102773436e-05
-0.0001056741027
-0.0001122966655
-0.0001092768068
-9.93136422e-05
-8.945554364e-05
-7.521248763e-05
-6.399807088e-05
-5.334692706e-05
-4.193625103e-05
-3.56784464e-05
-2.749208464e-05
-1.870137438e-05
-1.359371277e-05
-8.091336332e-06
-1.040069934e-06
4.368467376e-06
9.052161579e-06
1.346808508e-05
1.706145162e-05
2.02173631e-05
2.397592756e-05
2.607475641e-05
2.693579653e-05
2.739829515e-05
2.813037528e-05
2.711236604e-05
2.285314763e-05
1.813802179e-05
1.214260157e-05
4.506821009e-06
-4.630220072e-06
-1.610337202e-05
-2.670377846e-05
-3.633397403e-05
-4.747235329e-05
-6.332837354e-05
-8.25829406e-05
-0.0001088948865
-0.0001292814942
-0.0001491708591
-0.0001764912315
-0.0002101157475
-0.0002434883158
-0.0002788067367
-0.0002985531104
-0.0003041798076
-0.000306577727
-0.0003060835806
-0.0002994453008
-0.0002826512241
-0.0002418725164
-0.0002001027931
-0.0001735126844
-0.0001445771402
-0.0001114314769
-8.380713404e-05
-6.077992871e-05
-4.408377948e-05
-3.499846321e-05
-2.847807209e-05
-2.371628484e-05
-1.866967882e-05
-1.539439151e-05
-1.401146678e-05
-1.239220655e-05
-1.103288273e-05
-9.878656172e-06
-8.921257906e-06
-8.119638989e-06
-7.379502869e-06
-6.747171946e-06
-6.18042073e-06
-5.748287278e-06
-5.352305558e-06
-4.97881366e-06
-4.615187906e-06
-4.287207587e-06
-4.043603898e-06
-3.80437862e-06
-3.518647133e-06
-3.336894063e-06
-3.134878061e-06
-3.032738804e-06
-2.907771556e-06
-2.744815939e-06
-2.61404071e-06
-2.516322761e-06
-2.465845726e-06
-2.381215362e-06
-2.328306809e-06
-2.112194042e-06
-2.303576514e-06
-2.324336135e-06
-2.262824567e-06
-2.494819197e-06
-2.644008178e-06
-2.824388953e-06
-3.133186657e-06
-4.647932859e-05
)


100
(
-7.34483425e-05
-0.0001046165481
-0.0001138053808
-0.0001116725523
-0.000106080138
-9.51741294e-05
-8.514582099e-05
-7.195644174e-05
-6.443500348e-05
-5.343458416e-05
-4.424247949e-05
-3.950929752e-05
-3.00973231e-05
-2.159057537e-05
-1.661038862e-05
-1.102330409e-05
-4.260391292e-06
9.141040173e-07
5.643792036e-06
9.447016115e-06
1.273957048e-05
1.546202181e-05
1.832995752e-05
1.947569397e-05
1.884310305e-05
1.745816647e-05
1.480419308e-05
9.644975537e-06
1.389367363e-06
-8.710151469e-06
-1.688294871e-05
-2.580270401e-05
-3.774040601e-05
-5.275068322e-05
-7.307467957e-05
-8.711782954e-05
-0.0001008385884
-0.0001224115726
-0.0001501105871
-0.0001823299121
-0.0002184972011
-0.0002406595487
-0.0002576998689
-0.0002788701522
-0.0002933707652
-0.0003050191018
-0.0003093308447
-0.0002834935472
-0.000241474301
-0.0002166138198
-0.0001885533397
-0.000157125734
-0.0001214522415
-8.926569536e-05
-6.441432127e-05
-4.900590479e-05
-3.689097496e-05
-2.898445992e-05
-2.298629074e-05
-1.772362508e-05
-1.537414947e-05
-1.40505245e-05
-1.245024341e-05
-1.086530274e-05
-9.55032414e-06
-8.458972821e-06
-7.663287404e-06
-7.014407314e-06
-6.378130797e-06
-5.811611406e-06
-5.370303657e-06
-4.985175533e-06
-4.59887943e-06
-4.272381887e-06
-3.968609621e-06
-3.692653644e-06
-3.400716567e-06
-3.198095909e-06
-3.017457471e-06
-2.876646087e-06
-2.705907504e-06
-2.580476552e-06
-2.444972887e-06
-2.311839838e-06
-2.243504788e-06
-2.128683318e-06
-2.033693809e-06
-1.959846417e-06
-1.898453562e-06
-1.883962146e-06
-1.816864031e-06
-1.720782212e-06
-1.810288243e-06
-1.839059988e-06
-1.839616398e-06
-1.939653477e-06
-2.066517114e-06
-2.172551582e-06
-2.343089695e-06
-2.771397422e-05
)


100
(
-7.037299164e-05
-0.0001018146619
-0.0001133451483
-0.0001146879023
-0.0001117281208
-0.0001012150297
-9.347296977e-05
-8.201339236e-05
-7.240008136e-05
-6.628736575e-05
-5.483378616e-05
-4.699831767e-05
-4.240838783e-05
-3.239083772e-05
-2.430556836e-05
-1.941165935e-05
-1.424671318e-05
-7.921268375e-06
-2.99475097e-06
1.491634209e-06
4.090426961e-06
6.981877128e-06
8.961579384e-06
9.824803136e-06
8.641939192e-06
3.927210308e-06
-5.631398607e-07
-6.613878649e-06
-1.612806993e-05
-2.668474265e-05
-4.283763162e-05
-5.319782091e-05
-6.37767146e-05
-7.765708646e-05
-9.985734125e-05
-0.0001265425932
-0.0001557107649
-0.0001712702606
-0.000191120179
-0.000220403043
-0.0002516034512
-0.0002753444681
-0.0002988230025
-0.0002914396209
-0.0002729574441
-0.0002544786863
-0.0002385414144
-0.0002140831638
-0.0001796231909
-0.0001354554832
-9.952623353e-05
-7.856282741e-05
-5.822227607e-05
-4.223417607e-05
-3.102346344e-05
-2.352141757e-05
-1.802569475e-05
-1.579888462e-05
-1.421710952e-05
-1.258319672e-05
-1.069577309e-05
-9.270632513e-06
-8.597128481e-06
-7.713799976e-06
-6.963612476e-06
-6.297236507e-06
-5.716029537e-06
-5.224500351e-06
-4.795597214e-06
-4.426783275e-06
-4.055697127e-06
-3.68683402e-06
-3.439164355e-06
-3.204824427e-06