/*--------------------------------*- C++ -*----------------------------------*\
| =========                 |                                                 |
| \\      /  F ield         | OpenFOAM: The Open Source CFD Toolbox           |
|  \\    /   O peration     | Version:  2.3.1                                 |
|   \\  /    A nd           | Web:      www.OpenFOAM.org                      |
|    \\/     M anipulation  |                                                 |
\*---------------------------------------------------------------------------*/
FoamFile
{
    version     2.0;
    format      ascii;
    class       dictionary;
    location    "constant";
    object      GRPSI3;
}
// * * * * * * * * * * * * * * * * * * * * * * * * * * * * * * * * * * * * * //

GRPSI3_table
100
(

100
(
0.01785154468
0.0195657399
0.02115025595
0.02219469417
0.02266730387
0.02280855856
0.02446220477
0.02388193693
0.02502625387
0.02490928607
0.02514285481
0.02590774682
0.02585697006
0.02648246357
0.02707435159
0.02687111499
0.0271414291
0.02828121039
0.02785492575
0.02790371842
0.0288175966
0.02899662989
0.02882798703
0.02908641462
0.03002194993
0.02972176683
0.02971507778
0.03005075456
0.0310787593
0.03063658841
0.030580789
0.03088569032
0.0315664194
0.03137523698
0.03138611677
0.03156775161
0.03223128978
0.03245466135
0.03214241851
0.03220705763
0.03265176297
0.03309087249
0.03284002121
0.032887862
0.03315999258
0.0336044841
0.03344521056
0.03343551478
0.03363263211
0.0341220152
0.03424102155
0.03401982151
0.03413418467
0.03447735719
0.03465578798
0.03452775894
0.03462603148
0.03486102927
0.03497970411
0.03495944617
0.03474765111
0.03534412566
0.03564574721
0.03517776112
0.0350672559
0.03573499538
0.03602733814
0.03517681374
0.03568868355
0.03605649682
0.03592284708
0.03555694817
0.03618283368
0.03634359879
0.03578237328
0.0360545396
0.0366138342
0.03602591103
0.03616630437
0.03666339761
0.03611330663
0.03647871337
0.03654094567
0.03622911082
0.03670959781
0.03640641428
0.0364885166
0.03659603372
0.03644322323
0.03658510757
0.03649483748
0.03652822207
0.03647846716
0.03649202637
0.03645677545
0.03644476099
0.03641153482
0.03636365624
0.03630948785
0.0361347342
)


100
(
0.01785154468
0.01965199607
0.02126605171
0.02236487381
0.02241771145
0.02305775578
0.02360630725
0.02417935313
0.02445545982
0.02525635107
0.02521393243
0.02587923683
0.02611951929
0.02629820901
0.02699087752
0.02724038554
0.027232753
0.02764103208
0.02835321302
0.02816129174
0.02834494114
0.02888704508
0.02920745618
0.02915147989
0.02938269501
0.02987627924
0.03001707212
0.03004428206
0.03026470568
0.03072133375
0.03097034616
0.03091219861
0.03107900657
0.03140466377
0.03168284366
0.0316816622
0.03179944401
0.03203768506
0.03244501784
0.03256739106
0.03251190788
0.03265111081
0.03291237837
0.03327323015
0.03318466301
0.03327194561
0.03345356165
0.03370027354
0.03376694878
0.03379754486
0.03393107072
0.03411982819
0.03444721436
0.03435224811
0.0343912923
0.03442302512
0.03488914484
0.03473458469
0.03479177539
0.03481738565
0.03517680709
0.03491177861
0.03521878512
0.03545468577
0.03541319732
0.03526399741
0.03556451965
0.0358567951
0.03554260033
0.03572827245
0.03588782909
0.03606847264
0.03589343693
0.03602538808
0.03621972428
0.03623884858
0.03599965484
0.03624376783
0.03642152468
0.03625763925
0.03644521919
0.03629484989
0.0365781407
0.03635623616
0.03645596588
0.03655161076
0.0364615359
0.03651717352
0.03653045508
0.03650833967
0.03650744554
0.03649947267
0.03649909318
0.0364758462
0.03646599409
0.0364410772
0.03642556906
0.03639707808
0.03626515391
0.0361347342
)


100
(
0.01785154468
0.0197693922
0.02148952676
0.02191457388
0.02237628562
0.02354101219
0.0230488362
0.02466662299
0.0242069855
0.02515773636
0.02553451266
0.02556182784
0.02658716892
0.02639678346
0.02654598413
0.02752668519
0.02765254507
0.02725637223
0.02799959254
0.02886432954
0.02831685061
0.02850161319
0.02914646713
0.02964756347
0.02917765698
0.02960917955
0.03010378232
0.03043419688
0.02997633656
0.03043768669
0.03086676177
0.03133358531
0.0310558371
0.03129702131
0.0316006159
0.03192448816
0.03185165388
0.03184369952
0.03222681586
0.03251694448
0.0327611082
0.03279656921
0.03291644914
0.03304478326
0.03308434368
0.03341265743
0.03340481721
0.03352623446
0.03348946868
0.03393727028
0.03376290965
0.03397656665
0.03399329885
0.034422034
0.03433890384
0.03432480665
0.03428910999
0.03489029049
0.03486919896
0.03470608626
0.03505591472
0.0351917674
0.0349032913
0.03534742338
0.03561390706
0.03544594313
0.03524925682
0.03586155258
0.03579641589
0.03578589126
0.03583306341
0.0360862804
0.03585664301
0.03590193423
0.03635387236
0.03626792865
0.03576087351
0.03638154184
0.03659104969
0.0359640034
0.03646030903
0.03645176258
0.0362850204
0.03656873334
0.03636872663
0.03654179487
0.03649505755
0.03645173535
0.03653887012
0.036478824
0.03651586488
0.03649045725
0.03649864301
0.0364875288
0.03646844289
0.03643855978
0.03639226037
0.03645421163
0.03625814906
0.0361347342
)


100
(
0.01785154468
0.0195716421
0.02105221098
0.02149447301
0.02273418218
0.02315553416
0.02358941377
0.02404393218
0.0248299601
0.0245977409
0.02597461552
0.0255973851
0.02609869042
0.02695669152
0.02653758419
0.02691743813
0.02792278447
0.02788622805
0.02747978648
0.02828348162
0.02905833705
0.02869050474
0.02869032454
0.02932077137
0.02994420262
0.02963825787
0.02980950651
0.03027774057
0.03072843378
0.03056166708
0.03056235363
0.0310200326
0.03140774443
0.03174057735
0.03149270771
0.03173819784
0.03189159694
0.03237778651
0.03200544214
0.03210672303
0.03245146475
0.03274618468
0.0330337514
0.03263226833
0.03279561525
0.03297688435
0.03383838217
0.03335066422
0.03329796827
0.0335686474
0.03424979623
0.03401768142
0.033683771
0.0340988807
0.03462824166
0.03462996629
0.03400456055
0.03466095748
0.0350408405
0.03520769805
0.03483411399
0.0353493254
0.03536650717
0.03530786071
0.03539700572
0.03567291482
0.03550196241
0.03549730932
0.03587810347
0.0358002106
0.03577972769
0.03577318033
0.03617824422
0.03604155347
0.03571336807
0.03605276811
0.03660389475
0.03614806105
0.03606938954
0.03640189387
0.03634337382
0.03656606432
0.03623906926
0.03650817368
0.03647304409
0.03636255722
0.03653534048
0.03648629165
0.03650342738
0.03647326183
0.03650726382
0.03652806604
0.03648314402
0.03649446455
0.03645832569
0.03643074337
0.03637686796
0.03634523901
0.0363036938
0.0361347342
)


100
(
0.01785154468
0.0194508554
0.02065392995
0.02180754891
0.0229813472
0.02272972329
0.02406327977
0.02354602314
0.02502184983
0.02482518244
0.02534794718
0.02623473062
0.02574010408
0.02660141789
0.02718738367
0.02676607955
0.02726780753
0.02818551701
0.02819312552
0.02770812214
0.02848283071
0.02919987003
0.02913165827
0.02884840275
0.0294565879
0.03004892864
0.03021023657
0.03007043387
0.03045306822
0.03075210031
0.03104155654
0.03061520976
0.03091578597
0.0312165537
0.03192396098
0.03152122733
0.03149626079
0.03152512263
0.03268260921
0.03234571088
0.03210728764
0.03208952655
0.03293993216
0.03325951983
0.03299475763
0.03238098742
0.0333319547
0.03420151819
0.03376498261
0.03313386659
0.03386349048
0.03440325795
0.03438424835
0.03393755148
0.03432643572
0.03484719487
0.03499615446
0.0346661785
0.03479046458
0.03517552473
0.03529091205
0.03515070045
0.03531040806
0.03522494193
0.0352865549
0.03548917393
0.03571073138
0.03558741107
0.03561579133
0.0356501487
0.03596718042
0.03595169012
0.03596508393
0.03594168456
0.03611192281
0.03589039469
0.03640733282
0.03620772048
0.03614326377
0.0365758941
0.03630866661
0.03617858486
0.03656732341
0.03639803751
0.03643461871
0.03644859827
0.03645775052
0.03648632829
0.03649226459
0.03653303262
0.03651263074
0.03649638659
0.03649734861
0.03646902859
0.03645593381
0.03644087263
0.03644599832
0.0362954243
0.03631380591
0.0361347342
)


100
(
0.01785154468
0.01964208602
0.02090817478
0.02205400508
0.02250427344
0.02311738894
0.02378196823
0.02411692457
0.02437555916
0.02548823203
0.02489390545
0.02598280431
0.02639328282
0.02611402327
0.02700872785
0.0274434579
0.02704610593
0.02754419095
0.02839774607
0.02853230412
0.02805105539
0.02861952412
0.02929922197
0.02956643299
0.02907144934
0.02952647104
0.03014803173
0.03032756775
0.03001565344
0.03017126868
0.03061878018
0.03125282062
0.03088048314
0.0305830139
0.03123995911
0.0321429433
0.03185267282
0.03124340276
0.03187081381
0.03296065812
0.03268472387
0.03240271708
0.03236465854
0.03328422281
0.03363641518
0.03308653065
0.03270338862
0.03358559773
0.03444227117
0.0338534169
0.03357843415
0.0340955919
0.03467894218
0.03472028952
0.03427582011
0.03449030844
0.03493873242
0.03485060074
0.03477247985
0.03475360974
0.03497459173
0.03504198488
0.03509249374
0.03541368132
0.0353990009
0.03550115514
0.03568128519
0.03558457542
0.03589396322
0.03585737976
0.0357960453
0.03579786612
0.03590771955
0.0360667823
0.03630411981
0.03621627296
0.03596812812
0.03635923739
0.03626710674
0.03621541901
0.03630792527
0.03629063964
0.03639833216
0.03643311587
0.0364183838
0.03649226466
0.03648565672
0.03648333327
0.0364501785
0.03653177061
0.03651324154
0.0364589651
0.03647575107
0.03645061796
0.03643236844
0.0364046617
0.03652611501
0.0364176205
0.03632448878
0.0361347342
)


100
(
0.01785154468
0.01983384642
0.02113932225
0.02197751429
0.02213595566
0.02349603102
0.02331426262
0.02461315968
0.02415125242
0.02520558759
0.02559021453
0.02537769026
0.02651801316
0.02658258493
0.02650349488
0.02734680813
0.02772077771
0.02733786674
0.02776207567
0.02855030968
0.02886196708
0.02840480874
0.02870487899
0.02936261106
0.02994856582
0.02945568049
0.02950096564
0.03017462626
0.03038590928
0.03027201525
0.02994216178
0.03112678294
0.0315931659
0.03132491382
0.03060381604
0.03178442638
0.03256065795
0.03234568456
0.03112796156
0.03223900092
0.03316779008
0.03300559468
0.03235297878
0.03262510091
0.03349910221
0.03387788917
0.03330588291
0.03298555035
0.03399442048
0.03457028507
0.03432083193
0.03388244428
0.03412947902
0.03428727128
0.03445397824
0.03470363832
0.03462213533
0.03446909641
0.03469405544
0.0349112547
0.03504732059
0.03490068069
0.03523017716
0.03548259527
0.03547994918
0.03548711607
0.03563323578
0.03564314899
0.03550863153
0.03572490277
0.03586409139
0.03592885541
0.03606713641
0.03612759841
0.0359533623
0.036377964
0.03605273944
0.03614046658
0.03621139707
0.0362869382
0.03638599821
0.03644192932
0.03627296155
0.03640331383
0.03642822871
0.03648094759
0.03650883143
0.03653197636
0.03649347207
0.03649229486
0.03655057832
0.03652079771
0.0364990857
0.03647166406
0.0364577586
0.03642012819
0.03649440787
0.03644014076
0.0363485596
0.0361347342
)


100
(
0.01785154468
0.01993883675
0.02113998602
0.02163732782
0.02249056774
0.02327584092
0.0235769811
0.02421211907
0.02473208219
0.02456280219
0.02591906928
0.02569804891
0.02589637525
0.02697311259
0.02680324956
0.02683630235
0.02761800697
0.02801822597
0.02767369489
0.02793692646
0.02868236424
0.02922274352
0.02880603656
0.02879690787
0.02945583169
0.03010798351
0.02983925604
0.02988316849
0.03063387993
0.03080792496
0.03052298613
0.03009110918
0.03158379862
0.03191622126
0.03135813797
0.03087484864
0.03211377791
0.03291115747
0.03202536913
0.03155552979
0.03246825496
0.03339841502
0.03301700531
0.03273152848
0.03297435981
0.03399771423
0.03394883115
0.03367311077
0.03322329469
0.03396873231
0.03394032741
0.03416304061
0.03409702008
0.03396589283
0.03411172901
0.03442524693
0.03469373309
0.03495729649
0.0348599838
0.03501064802
0.03524702398
0.03521243042
0.03525305875
0.03514691756
0.03532836888
0.03535325521
0.03542735538
0.03570746708
0.03561833683
0.03571268161
0.03599942269
0.03597362492
0.03605932154
0.03602131937
0.03590119975
0.03599533792
0.03629953648
0.03626255891
0.03633712074
0.0363567041
0.03627768039
0.03635107757
0.03643690689
0.03644895262
0.03646905101
0.03646127923
0.03646618908
0.03647077785
0.0365519871
0.03652015408
0.03646093528
0.03648287029
0.03647533428
0.03648816547
0.03646921612
0.03647032479
0.03640238046
0.03643739049
0.03633749312
0.0361347342
)


100
(
0.01785154468
0.0197666941
0.02084076249
0.02164790356
0.02279639702
0.02281752656
0.02400151957
0.02373079866
0.02502205075
0.02482857829
0.02526361749
0.02639913302
0.02585752886
0.02635235563
0.02735249866
0.0270583042
0.02712322777
0.02787660716
0.02834940428
0.02803264056
0.02811020993
0.02882228711
0.02961664331
0.02925298995
0.02892730264
0.02957370212
0.0301418651
0.03020307046
0.03025781499
0.03097921395
0.03115371217
0.03010977342
0.03055800387
0.03191415461
0.03223102044
0.03114289722
0.03124399696
0.032437172
0.03305187532
0.03220700336
0.03200399431
0.0328184866
0.03368205022
0.03346941613
0.03305219569
0.03323548607
0.03347864661
0.03354806615
0.03372730493
0.03344854679
0.03355246459
0.03387275769
0.03418554687
0.03455301737
0.03460472119
0.03411698888
0.03457655661
0.03489258108
0.03496883333
0.03511551446
0.03508087889
0.03512629908
0.03502065492
0.03515659728
0.03545725328
0.03546338487
0.0353869264
0.03574995814
0.03595601557
0.03585809732
0.03579057463
0.03575178877
0.03575190167
0.03600374337
0.03623330709
0.03611050986
0.03629722074
0.03627897545
0.036176234
0.03622237913
0.0363761309
0.03644354822
0.03641848991
0.03639476617
0.03642644461
0.0364308469
0.03647524542
0.03654496678
0.03655563399
0.03651889267
0.03648276398
0.03647698066
0.03644926919
0.03646614075
0.03634848707
0.0364458999
0.03642505975
0.0363969063
0.03630934832
0.0361347342
)


100
(
0.01785154468
0.01967996803
0.02078456953
0.0219074048
0.02259687756
0.02295435979
0.02384371126
0.02411811539
0.02450212177
0.02539990921
0.0249501393
0.02588222721
0.026604507
0.02606718528
0.02673329023
0.02767547414
0.02735135604
0.02736718876
0.02804025667
0.02870678035
0.0284196139
0.02826010691
0.02895700056
0.02971922484
0.02970836125
0.0292858475
0.02965394932
0.03017059133
0.03049188032
0.03064630586
0.03138181267
0.03117670553
0.03022524485
0.03093654784
0.03225251177
0.03210068644
0.03153459927
0.03164108754
0.03293774095
0.03302383011
0.03279318179
0.0323448008
0.03288951445
0.03302288826
0.03340050712
0.03325071308
0.03308528808
0.03322108452
0.03354843656
0.03388302766
0.03424879766
0.0339176165
0.03393114261
0.03430314608
0.03467771782
0.03471387231
0.03488223048
0.03449627238
0.03464094303
0.03474364307
0.03488847066
0.03532282965
0.03529245297
0.03512073025
0.03545039235
0.03577057696
0.03568979357
0.03565754543
0.03552646352
0.03551852713
0.03572624664
0.03616668753
0.03586829729
0.03605291034
0.03626865957
0.03619155597
0.0360361098
0.03613074937
0.03631617588
0.03639321618
0.03634214985
0.03634024275
0.03632022925
0.03637860594
0.03642559245
0.03651068663
0.03644919466
0.03645965921
0.0364410586
0.03647147098
0.03647878789
0.0364662839
0.03645170331
0.03636100985
0.03634441776
0.03640598726
0.03633296492
0.0363487057
0.03627901407
0.0361347342
)


100
(
0.01785154468
0.01981271089
0.02100509841
0.02209092723
0.02225783383
0.02331744004
0.02336890243
0.02456563923
0.02422914674
0.02521189784
0.0255758574
0.02523896518
0.02640527306
0.02682344321
0.02629632032
0.02703027595
0.02799852817
0.02767512178
0.02757672902
0.02821566458
0.02907117022
0.02882548311
0.02840609208
0.02908455685
0.02978285887
0.03016638706
0.02975990732
0.02970998511
0.03022917847
0.0304551146
0.03124290082
0.03190971195
0.03083271662
0.03070204377
0.03134175175
0.03263134584
0.03232929233
0.03211096436
0.03209486358
0.0326822928
0.03278604266
0.0327313173
0.03231661671
0.03249397515
0.03287342624
0.03332399377
0.0338549429
0.03370758164
0.033290505
0.03370796922
0.03400323947
0.03428037924
0.0345707649
0.03435942954
0.03418604792
0.03448812601
0.03441955516
0.03472524917
0.03507143184
0.03475669478
0.0347259943
0.03513951457
0.03554545427
0.03566371062
0.03548342531
0.03532560821
0.03535363637
0.03549584669
0.03592686059
0.03556728697
0.03570987579
0.03606683314
0.03614792061
0.03605669856
0.03596592093
0.0361809539
0.03634972739
0.03632073684
0.03624749885
0.03623257911
0.03622868657
0.03629520017
0.03644750134
0.03651603468
0.03642207901
0.03643400887
0.03641423347
0.0364256281
0.03641853086
0.03641593177
0.0364265893
0.03639984108
0.03640903256
0.03635439905
0.03649402876
0.03664618153
0.03640151889
0.03637193092
0.03627703573
0.0361347342
)


100
(
0.01785154468
0.01993064121
0.02120190572
0.02178168901
0.02242170428
0.02333451561
0.02346961672
0.02423434835
0.02473887526
0.02469614715
0.02582746679
0.02575575661
0.02572961443
0.02681471727
0.02706832019
0.02656390081
0.02730720824
0.02828467003
0.02807880329
0.02776756768
0.02841201199
0.02921706247
0.02923555011
0.02882626259
0.02916875825
0.02983305695
0.03052039149
0.03025709507
0.02986876948
0.03030311632
0.03048497192
0.03164300986
0.03200217328
0.03130294313
0.03121047047
0.03189820538
0.03231753533
0.03254780595
0.03210410175
0.03197261714
0.03212177182
0.03255187009
0.03309838746
0.03312538798
0.03273890525
0.03291783897
0.03337521328
0.03381349439
0.03411950993
0.03401815724
0.03386064683
0.03404999012
0.03410913526
0.03421050521
0.0347320235
0.03452076738
0.03420094865
0.03451750687
0.03487739545
0.03523379457
0.03551725943
0.03514917164
0.03508622572
0.03520492113
0.03531932079
0.03564128227
0.03538975741
0.03534371654
0.03576625835
0.03617949947
0.03597072957
0.03569564092
0.03588729041
0.03593378808
0.03604491314
0.03602219245
0.03608752461
0.03620279639
0.03617544094
0.03624076471
0.03644327699
0.03640359153
0.03635401598
0.03631805461
0.03645894367
0.03650995771
0.03646027045
0.03646170669
0.03649497755
0.03651961732
0.03655352929
0.03653462512
0.03653624306
0.03662286249
0.03663319987
0.03674105481
0.03684722501
0.03639400783
0.03630496295
0.0361347342
)


100
(
0.01785154468
0.01995920049
0.02106263891
0.02155571779
0.02270005134
0.02296911832
0.0238706955
0.02376068971
0.02499799927
0.02490251847
0.0252961428
0.0263212727
0.02593957455
0.02614860443
0.02721376334
0.02739002448
0.02683314968
0.02753497376
0.02852090288
0.02849173968
0.02794843027
0.0285819921
0.02932433181
0.02963606866
0.0292607547
0.02922233871
0.02989369019
0.03051738875
0.0307779562
0.03041802015
0.03030173367
0.03062053104
0.03186977382
0.03205497033
0.03170682384
0.03129497764
0.03152468955
0.03172735888
0.03237275557
0.03266456054
0.03232185598
0.03228293968
0.03271176149
0.03312650605
0.03357256662
0.03336810696
0.03307757452
0.03339539139
0.03393070831
0.03394468212
0.03424037915
0.03410411517
0.03374222764
0.0338116054
0.03424090006
0.03469658801
0.03529943583
0.03470046728
0.03466751821
0.03512516715
0.03509508992
0.03528002034
0.03533872527
0.0349107723
0.03490504121
0.03544928318
0.03596284516
0.03596835034
0.03556029132
0.03594877401
0.03583511325
0.03581237981
0.03584682719
0.03592161721
0.0359983976
0.03599499709
0.03607614385
0.03614920756
0.03633335766
0.03632902209
0.0362557871
0.03627018451
0.03633915329
0.03653344529
0.03644391852
0.03630359864
0.03648397867
0.03645657879
0.03653656428
0.03649271474
0.03642618508
0.03646730845
0.036480367
0.03632114003
0.0364998814
0.03646840708
0.03665862644
0.03639573577
0.03632266527
0.0361347342
)


100
(
0.01785154468
0.01986042046
0.02085900079
0.02180013486
0.0226883014
0.02293224161
0.02387179541
0.02405325193
0.0244975311
0.02541719005
0.02508840716
0.02579407461
0.02656728735
0.02619800622
0.02652930994
0.02757709925
0.02773492952
0.02713702062
0.02775895538
0.0287060065
0.0288751932
0.02834284848
0.02871608782
0.02941298311
0.03006567672
0.02971711503
0.02939121839
0.02994480478
0.03052961058
0.03110147569
0.03101965239
0.03067369902
0.0308029138
0.03139576805
0.03151981145
0.03183080678
0.03166762428
0.0314440062
0.03189969669
0.0324483731
0.03304871961
0.03297103076
0.03245192411
0.032766252
0.03319573213
0.03355398353
0.0338706476
0.03372259934
0.0333724158
0.03346268326
0.03353255346
0.03404720871
0.0346775143
0.03441102717
0.03375922082
0.03433727971
0.03484609285
0.03524037634
0.03532346496
0.03486315506
0.03444628748
0.0345307159
0.03521289043
0.03592327206
0.03535261941
0.03513773593
0.03568166423
0.03579662543
0.03578922842
0.03568402471
0.03582410611
0.03604949304
0.03624348789
0.03613310946
0.0360884132
0.03609970885
0.03612605239
0.03614555482
0.03626069434
0.03629647908
0.03637125683
0.03635364651
0.03645121616
0.03635382244
0.03636598763
0.0364923602
0.03648193165
0.03646425293
0.03639465157
0.03642656365
0.03638899115
0.03642916928
0.03616958718
0.03629719053
0.03660925038
0.03638902222
0.03622072897
0.03640031575
0.0362985685
0.0361347342
)


100
(
0.01785154468
0.01984201598
0.0209614934
0.02199524924
0.02237683455
0.02325400701
0.02349061183
0.02446398433
0.02423041201
0.02516620357
0.02561969412
0.02529447521
0.02624459017
0.02686056835
0.02646636038
0.02684558667
0.02786995
0.02810038781
0.02747566948
0.02794975836
0.02884469804
0.02927878312
0.02876454916
0.028826445
0.02950901818
0.0301261873
0.03019916372
0.02992427328
0.02997078577
0.03058557058
0.03105485713
0.03149285853
0.03110798211
0.03073216545
0.03109151388
0.03156676269
0.0322724679
0.03238801836
0.03192422756
0.03187094959
0.03245036365
0.03298859893
0.03336399054
0.03316236188
0.03301607058
0.03323655834
0.03338461243
0.03343400194
0.0339426387
0.03385580941
0.03352450727
0.03366417463
0.0341752757
0.03471111004
0.03490413397
0.03459516307
0.03429368141
0.03467206004
0.0345413049
0.03497520073
0.03521924519
0.03471394141
0.03475300874
0.03541565545
0.03595895888
0.03585157386
0.03555528216
0.03544011002
0.03563766876
0.03581455731
0.03581343783
0.03584118731
0.03594296024
0.03605093962
0.03609703724
0.03621745979
0.03632534554
0.03630351601
0.03615108356
0.03616427131
0.03631418074
0.03647827676
0.03648083338
0.03634496292
0.0363675189
0.03653149534
0.03646359904
0.03642692796
0.03637429372
0.03638477687
0.03653264589
0.0365412078
0.03658801512
0.03662609829
0.03656818742
0.03641959504
0.0362464419
0.03640860357
0.03630182224
0.0361347342
)


100
(
0.01785154468
0.01991546084
0.02109554914
0.02191459269
0.02234033153
0.02337563532
0.02348213046
0.02425534278
0.02470038433
0.02466695523
0.02569513382
0.02585509377
0.02573341864
0.02666850117
0.02717797371
0.02674568287
0.02710767593
0.02810401038
0.02844895592
0.02785239268
0.02810469951
0.02895590046
0.02970569812
0.02923005317
0.02894077288
0.02960957222
0.03016355605
0.03071533026
0.03049172206
0.03016933207
0.03044343753
0.03083329453
0.03150053572
0.03169125085
0.03136892198
0.03107890824
0.03163556894
0.03222905478
0.03284842633
0.03255036909
0.03215383287
0.03243324239
0.0330514596
0.03331272912
0.0335419468
0.03339630117
0.03302048661
0.03312527554
0.03345712794
0.03397270117
0.03452882558
0.03405217849
0.03370802899
0.03430717692
0.03485402104
0.03464672685
0.03482290091
0.03438258638
0.0341604681
0.03465230019
0.03520985568
0.03581868277
0.03516569831
0.03493921343
0.03543762653
0.03541076328
0.03550018308
0.03557646773
0.03563132162
0.03578334694
0.03591573214
0.03594252235
0.0357807455
0.03593219934
0.03605983496
0.0361258831
0.03618257869
0.03613004901
0.03626217029
0.03643026124
0.03630050747
0.03625597261
0.03610968611
0.03645168754
0.03660066372
0.03641153063
0.03642127577
0.03646653604
0.03650387329
0.03638361512
0.03630095363
0.03603144035
0.03645154718
0.03629042575
0.03598362835
0.03643634128
0.03646528289
0.03639669027
0.03634666008
0.0361347342
)


100
(
0.01785154468
0.01998308832
0.02115901891
0.02170719411
0.02257739609
0.02304367294
0.02382760032
0.02387426554
0.02492969829
0.02489410089
0.02519673972
0.02625487713
0.02612809902
0.02611085232
0.02705540291
0.02751676069
0.02706339284
0.02735695
0.02829321044
0.02882420923
0.02826683002
0.02823217944
0.02906645209
0.02974451049
0.02973730569
0.02945537059
0.02970080917
0.03026119545
0.03063131639
0.03085530801
0.03059385585
0.03035775233
0.03086750199
0.03148660836
0.03222463863
0.03191986926
0.03133830428
0.03160030842
0.03221241837
0.03272963972
0.03315403109
0.03295495496
0.03260774842
0.03275720457
0.03279103429
0.03321805058
0.03402387377
0.0337615563
0.03312487628
0.03352454512
0.03402478519
0.03449016716
0.03472960513
0.03439817594
0.03405941276
0.03415207345
0.03436655545
0.03507570159
0.03507320708
0.03445250906
0.03476282016
0.03541670808
0.03555801349
0.03543180675
0.03522126204
0.03517584144
0.03533914786
0.03556869363
0.03557864896
0.03557593674
0.03572509303
0.03587344867
0.03596502131
0.03601350502
0.03614440932
0.03623977561
0.03592106248
0.03593280017
0.03604613248
0.03627414888
0.03636577585
0.03636266437
0.03626153263
0.03615992136
0.03633675656
0.03640529252
0.03641130802
0.03635599799
0.03642642871
0.03649941083
0.03629533958
0.03621924449
0.03606033143
0.03633397365
0.03657453498
0.03642962686
0.03655617319
0.03636755027
0.03631494053
0.0361347342
)


100
(
0.01785154468
0.0199359331
0.02104632228
0.02175431412
0.02272577556
0.02288966563
0.02387807502
0.02408060299
0.02453273795
0.02533614114
0.02513717626
0.02569644283
0.02667459453
0.02639178402
0.02643364399
0.02737407008
0.02787603465
0.02741895723
0.02756463929
0.02845572351
0.0292188149
0.02872765661
0.02836781581
0.02917016847
0.02977517288
0.03029428056
0.03003324113
0.02967915593
0.03008559024
0.03048392443
0.03128117271
0.03116256832
0.0307748343
0.0308227407
0.03148688144
0.03215207419
0.03249198934
0.03193448094
0.03172473183
0.03222071227
0.03276648702
0.03291529958
0.03329817018
0.0329022589
0.03263532184
0.03266855643
0.033305698
0.03395476786
0.03438566793
0.03373386721
0.03358839855
0.03427005962
0.03426492882
0.03442890957
0.03456061946
0.03441289998
0.0339571245
0.03458575675
0.03513505125
0.03544320495
0.03512295967
0.03482095791
0.03522822635
0.03520479685
0.03540827982
0.03543225768
0.03546206013
0.03561597081
0.03573408718
0.0357785441
0.03568424075
0.03563394479
0.0358167255
0.03586952073
0.03590196274
0.03603247312
0.03616019994
0.03632660691
0.03634181765
0.03606862806
0.03601647859
0.03622009731
0.03650377534
0.03647182829
0.03618752674
0.03610925909
0.03628406083
0.0363992368
0.03637194336
0.03645342255
0.03665222272
0.03676206383
0.03664462002
0.03663242325
0.03692885639
0.03644925694
0.03642630629
0.03635783682
0.03629068522
0.0361347342
)


100
(
0.01785154468
0.01986270132
0.02099020319
0.02189089613
0.02250187855
0.02315940345
0.02353981741
0.02442991005
0.02431421742
0.02507810861
0.02563879281
0.02535625286
0.02613576135
0.02700018627
0.0266591624
0.02671000578
0.0276343984
0.02822598421
0.02781919264
0.02771430424
0.02856291658
0.02928609786
0.02921545906
0.02891512686
0.02925114709
0.0298390631
0.03024959944
0.03035623889
0.03015343745
0.03008662093
0.03054369977
0.03125162817
0.03172966622
0.03131595002
0.03083965778
0.03147609677
0.03213253891
0.03255217474
0.0325924296
0.03246113422
0.03205330919
0.03227997657
0.03255635566
0.03329965992
0.03368501566
0.03321669421
0.0325112351
0.03331091508
0.0339569351
0.03439182345
0.03456448148
0.03401575023
0.03357415987
0.0336329996
0.03437158914
0.03524605794
0.03481854067
0.03423861569
0.03472701654
0.03528302722
0.03526981927
0.03523434572
0.03524310073
0.03540783138
0.03544570513
0.03563590962
0.03559579926
0.03552426684
0.03564247563
0.03577893109
0.03584876697
0.03590290651
0.036016618
0.0360749634
0.03603266263
0.03584154915
0.0360794249
0.03618388486
0.03623680444
0.0362451935
0.03647894952
0.03640162704
0.03638534337
0.03651401193
0.03662953887
0.03665022541
0.03644702314
0.03645028047
0.03642359261
0.03633984594
0.03638605103
0.03642505774
0.03637384216
0.03638682076
0.0365561824
0.03650777337
0.03636175769
0.03641418625
0.03632676757
0.0361347342
)


100
(
0.01785154468
0.01989178077
0.02108579535
0.02194881769
0.02233662723
0.02336219466
0.02346708805
0.02424984658
0.02468651476
0.02469506975
0.02561323028
0.02594420809
0.02566736141
0.0265514859
0.02734524822
0.02696589034
0.02698341943
0.02784490788
0.02859480357
0.02819428148
0.02787569689
0.02870576037
0.02934471776
0.02974182701
0.02950507868
0.02919239157
0.02964550429
0.0301774396
0.03095990189
0.03074682051
0.0301776339
0.0305656715
0.03122628445
0.03190121754
0.03186651442
0.03147451447
0.03143493915
0.03217842195
0.03245611469
0.03265593274
0.03266430866
0.03252164856
0.03215394756
0.03263426361
0.03328816892
0.03404388893
0.03370849727
0.03326514207
0.03326959075
0.03395847962
0.03387787843
0.03424906246
0.03434594972
0.03388556822
0.03362555616
0.03447264661
0.03526549555
0.03531885329
0.03500038567
0.03470912598
0.03489382906
0.0350707342
0.03521602962
0.03526657681
0.0353558521
0.03557006837
0.03572611676
0.03582868896
0.03595371925
0.03586103958
0.03593050247
0.03597165713
0.03591307453
0.03594712091
0.03605670074
0.03618862757
0.03634080356
0.03643312375
0.0360431644
0.03594349344
0.03619369784
0.03643399742
0.03650868183
0.03630575062
0.03624985132
0.03646208467
0.03655399547
0.03646343969
0.03655930376
0.03652721992
0.03643354647
0.03661430619
0.03645082659
0.03677155739
0.03657243016
0.03647103297
0.03630552753
0.03642258177
0.03629235585
0.0361347342
)


100
(
0.01785154468
0.01992742416
0.02115829593
0.02183980835
0.02250819833
0.02313025772
0.02374902363
0.02391614714
0.02481909492
0.02498227952
0.02519585317
0.0261194062
0.02625436639
0.0260314718
0.02690351241
0.02771001099
0.02731198018
0.02721476881
0.02802291302
0.02876206663
0.02868980672
0.02839436839
0.02881571822
0.02942319628
0.02990957746
0.02983181083
0.02961787001
0.02967118571
0.03022619261
0.03103621222
0.03129007139
0.03073854232
0.03053950908
0.03122388492
0.03182881252
0.03226284948
0.0321519546
0.03191924079
0.03187626952
0.03199847072
0.03246590768
0.03326277328
0.0331589157
0.0325947065
0.03257468325
0.0332959318
0.03393852437
0.03419696998
0.0339269691
0.03344929547
0.03315764361
0.03358053289
0.03442398261
0.03512611669
0.03419910549
0.03380048803
0.03461229847
0.03505847615
0.03506477913
0.03502175455
0.0351426462
0.03534685018
0.03530975266
0.0352994306
0.03531712515
0.03525450126
0.03540250013
0.03557437458
0.03570197876
0.03581482585
0.03602777203
0.03611550395
0.03635086256
0.03618964513
0.03603537365
0.0361141981
0.0360880129
0.036084676
0.03637680853
0.03660835583
0.03621662576
0.03609232749
0.03619682403
0.03628277868
0.03637366407
0.0362286636
0.03633793304
0.03638846671