/*--------------------------------*- C++ -*----------------------------------*\
| =========                 |                                                 |
| \\      /  F ield         | OpenFOAM: The Open Source CFD Toolbox           |
|  \\    /   O peration     | Version:  2.3.1                                 |
|   \\  /    A nd           | Web:      www.OpenFOAM.org                      |
|    \\/     M anipulation  |                                                 |
\*---------------------------------------------------------------------------*/
FoamFile
{
    version     2.0;
    format      ascii;
    class       dictionary;
    location    "constant";
    object      GRPSI16;
}
// * * * * * * * * * * * * * * * * * * * * * * * * * * * * * * * * * * * * * //

GRPSI16_table
100
(

100
(
-1.055425979e-09
3.24658183e-09
3.321602299e-09
3.108489396e-09
2.235278285e-09
1.798144425e-09
1.507325172e-09
1.169184938e-09
1.023201465e-09
8.855992197e-10
8.038809116e-10
7.577456346e-10
7.695573626e-10
8.100774253e-10
8.063825697e-10
8.281845931e-10
8.737130646e-10
8.726712054e-10
8.520046657e-10
8.838089193e-10
8.596551794e-10
8.111634321e-10
8.004408627e-10
7.99671053e-10
7.475535841e-10
6.955136633e-10
6.888337039e-10
6.725929433e-10
6.293264147e-10
5.812014798e-10
5.690690974e-10
5.313112895e-10
4.828293734e-10
4.413057639e-10
4.215539175e-10
4.016732672e-10
3.694946887e-10
3.434165476e-10
3.251393168e-10
3.081438534e-10
2.782181583e-10
2.558235738e-10
2.375116889e-10
2.192787802e-10
1.92161536e-10
1.729368977e-10
1.583774805e-10
1.492197675e-10
1.320615109e-10
1.223348909e-10
1.172222247e-10
1.130276555e-10
1.025727554e-10
9.540347777e-11
9.087111241e-11
8.436281857e-11
7.691516699e-11
7.543981493e-11
8.436951827e-11
1.123552694e-10
1.51516036e-10
1.378042502e-10
1.009043131e-10
1.003427204e-10
1.212426408e-10
1.099637284e-10
8.722802156e-11
9.576739098e-11
1.044283447e-10
8.81725448e-11
7.735209388e-11
8.678442403e-11
8.348727758e-11
7.208156422e-11
9.626325522e-11
1.11272674e-10
7.498250026e-11
8.421077615e-11
9.348394751e-11
6.200678791e-11
7.844412707e-11
6.778402666e-11
6.023372775e-11
8.006908888e-11
5.392662663e-11
6.514868011e-11
7.027460583e-11
5.686419813e-11
7.723145669e-11
6.334570761e-11
7.596503949e-11
7.64638049e-11
9.972428341e-11
1.046430972e-10
1.337495542e-10
1.336220781e-10
1.496709107e-10
1.39345644e-10
3.63998439e-11
4.619756836e-12
)


100
(
-1.055718141e-09
2.645989417e-09
2.624411746e-09
2.466962866e-09
2.076535033e-09
1.9605693e-09
1.798070591e-09
1.733016506e-09
1.626035494e-09
1.589725448e-09
1.531008755e-09
1.434180978e-09
1.400639039e-09
1.372517966e-09
1.307214657e-09
1.273402561e-09
1.250097172e-09
1.175716108e-09
1.130334612e-09
1.097452239e-09
1.027809045e-09
9.622153268e-10
9.169679552e-10
8.738920581e-10
8.019630558e-10
7.495946354e-10
7.14103429e-10
6.747748906e-10
6.208513516e-10
5.798005818e-10
5.518456972e-10
5.099221956e-10
4.648187086e-10
4.308059507e-10
4.07931757e-10
3.851380349e-10
3.546610469e-10
3.309455159e-10
3.166430147e-10
3.026737284e-10
2.805982386e-10
2.641743272e-10
2.543029639e-10
2.469021358e-10
2.290934635e-10
2.123904125e-10
1.996255407e-10
1.924843309e-10
1.795299642e-10
1.675970129e-10
1.609434566e-10
1.612439499e-10
1.652740114e-10
1.648224945e-10
1.651888704e-10
1.658009262e-10
1.712353943e-10
1.688389085e-10
1.696847919e-10
1.801382164e-10
2.158631557e-10
2.534950201e-10
2.555532521e-10
2.296474132e-10
2.129092624e-10
2.144364372e-10
2.0871428e-10
1.968549665e-10
1.881719097e-10
1.822866778e-10
1.71676614e-10
1.61494996e-10
1.548953875e-10
1.48058622e-10
1.531325075e-10
1.899560694e-10
2.388486895e-10
2.261357832e-10
2.156640588e-10
2.203533363e-10
2.158688569e-10
2.494887032e-10
2.30836446e-10
2.93724236e-10
2.934217076e-10
2.877589939e-10
3.288308006e-10
3.351856869e-10
3.617340013e-10
4.243335287e-10
4.893256555e-10
5.49264785e-10
6.405923936e-10
8.254066946e-10
8.797141665e-10
9.968005843e-10
1.144234121e-09
7.242082013e-10
2.563040614e-10
6.683762055e-11
)


100
(
-1.056193889e-09
1.354662902e-09
1.423930915e-09
1.469835635e-09
1.738492129e-09
1.936149819e-09
1.962045219e-09
2.098600895e-09
2.066436851e-09
2.054220785e-09
2.034501331e-09
1.887303532e-09
1.784990821e-09
1.682937353e-09
1.553014986e-09
1.455893452e-09
1.371325026e-09
1.252394349e-09
1.175574294e-09
1.104310231e-09
1.017414697e-09
9.484762706e-10
8.874087474e-10
8.302632482e-10
7.655496069e-10
7.212633353e-10
6.772780311e-10
6.414716323e-10
6.010702671e-10
5.725827523e-10
5.391745425e-10
5.153237569e-10
4.908854954e-10
4.734650027e-10
4.57850069e-10
4.509098897e-10
4.437726504e-10
4.324340984e-10
4.220205338e-10
4.152269264e-10
4.194812025e-10
4.26921927e-10
4.313598866e-10
4.41461282e-10
4.563591731e-10
4.84388835e-10
4.903555642e-10
4.958113183e-10
5.001701207e-10
5.246413835e-10
5.225307961e-10
5.23551671e-10
5.237501723e-10
5.373599898e-10
5.302043361e-10
5.185666901e-10
5.104618123e-10
5.195896753e-10
5.030587375e-10
4.681013659e-10
4.435786146e-10
4.679685917e-10
5.033385448e-10
4.969989327e-10
4.590451471e-10
4.361038885e-10
4.278827218e-10
4.090757648e-10
4.01465656e-10
4.289941361e-10
4.612309862e-10
4.949055028e-10
5.506869687e-10
6.219496515e-10
6.192621595e-10
6.637728261e-10
8.422052533e-10
8.141615309e-10
7.794900335e-10
9.844637682e-10
9.893858796e-10
9.986406072e-10
1.12864652e-09
1.127458865e-09
1.189824432e-09
1.312584423e-09
1.479435825e-09
1.693252371e-09
1.860552051e-09
2.169508278e-09
2.516456569e-09
2.848047974e-09
3.289571967e-09
3.679269453e-09
4.30186752e-09
5.036200275e-09
5.594561112e-09
3.002571712e-09
1.314103684e-09
4.816337325e-10
)


100
(
-1.056456441e-09
1.480507377e-10
6.393970476e-10
9.607636325e-10
1.375732487e-09
1.554657467e-09
1.67333742e-09
1.701966823e-09
1.724192972e-09
1.654351354e-09
1.624048609e-09
1.515627745e-09
1.39849826e-09
1.299010953e-09
1.191980388e-09
1.102146479e-09
1.039467808e-09
9.774710292e-10
9.20485731e-10
8.843850397e-10
8.559586461e-10
8.264870494e-10
8.019252193e-10
7.844698094e-10
7.823531191e-10
7.716484529e-10
7.611867021e-10
7.59821628e-10
7.786972356e-10
7.88933477e-10
7.849422424e-10
7.793622161e-10
7.870429654e-10
8.175658317e-10
8.20683601e-10
8.338895519e-10
8.595357009e-10
9.227414519e-10
9.440412131e-10
9.678816737e-10
9.940799756e-10
1.026097117e-09
1.062147997e-09
1.056633991e-09
1.060935696e-09
1.084843455e-09
1.148483925e-09
1.135238654e-09
1.124904846e-09
1.133111635e-09
1.164953668e-09
1.145145122e-09
1.114059198e-09
1.101844031e-09
1.097196412e-09
1.065787147e-09
1.023679592e-09
1.025423944e-09
1.027167453e-09
1.000834314e-09
9.290694964e-10
8.692059543e-10
8.740427721e-10
9.340543543e-10
9.895226943e-10
1.035315229e-09
1.091124371e-09
1.152795906e-09
1.205133813e-09
1.265795284e-09
1.329879716e-09
1.398302254e-09
1.520923612e-09
1.783203667e-09
2.073079452e-09
2.036471242e-09
2.005106359e-09
2.267634813e-09
2.377675512e-09
2.453487904e-09
2.599484052e-09
2.746773925e-09
3.13637141e-09
3.492066343e-09
3.864494026e-09
4.229732652e-09
4.569887766e-09
5.188389441e-09
5.937842817e-09
7.03757234e-09
7.533737763e-09
8.412456857e-09
9.605810142e-09
1.086779884e-08
1.274852163e-08
1.495212451e-08
1.541506884e-08
7.845842246e-09
3.976237919e-09
1.720694786e-09
)


100
(
-1.056497042e-09
-4.080399488e-10
2.221363394e-10
6.670479752e-10
1.027171163e-09
1.240144125e-09
1.369207834e-09
1.403639746e-09
1.430016102e-09
1.409199747e-09
1.369288782e-09
1.315112479e-09
1.239307737e-09
1.168044943e-09
1.104462562e-09
1.052958406e-09
1.021200748e-09
1.015645055e-09
1.01720435e-09
1.015927505e-09
1.024878854e-09
1.059020282e-09
1.091218531e-09
1.110805291e-09
1.146227017e-09
1.21216164e-09
1.276343196e-09
1.309368702e-09
1.35241927e-09
1.419616195e-09
1.510320685e-09
1.537308654e-09
1.566099475e-09
1.601430378e-09
1.694876935e-09
1.688572744e-09
1.691635533e-09
1.708304589e-09
1.847917482e-09
1.861900822e-09
1.867171167e-09
1.868346474e-09
1.924101026e-09
1.930005449e-09
1.875780069e-09
1.814683292e-09
1.857753812e-09
1.907018352e-09
1.844010963e-09
1.777041357e-09
1.781879363e-09
1.792808833e-09
1.763638309e-09
1.722096177e-09
1.715206524e-09
1.719094608e-09
1.713352731e-09
1.741148339e-09
1.828721432e-09
1.959447103e-09
2.089380197e-09
2.172487532e-09
2.218403006e-09
2.296186681e-09
2.403565532e-09
2.5193009e-09
2.617983545e-09
2.699732918e-09
2.765062228e-09
2.817003762e-09
2.919763837e-09
3.086964941e-09
3.305823714e-09
3.562878076e-09
3.943564869e-09
4.349425917e-09
4.344030019e-09
4.607817518e-09
5.015889352e-09
5.435022386e-09
6.087086291e-09
6.771908232e-09
7.371801188e-09
8.07656635e-09
8.969640822e-09
1.000816551e-08
1.085332092e-08
1.186743985e-08
1.399103957e-08
1.522915285e-08
1.634786878e-08
1.878110439e-08
2.076195619e-08
2.400084894e-08
2.761773162e-08
3.209208113e-08
2.750074573e-08
1.560957403e-08
8.870542497e-09
4.182327195e-09
)


100
(
-1.064175079e-09
-5.477544444e-10
-4.239038507e-11
3.902271427e-10
7.618325105e-10
1.016178619e-09
1.152221077e-09
1.235407079e-09
1.278040688e-09
1.296208275e-09
1.303538941e-09
1.294392839e-09
1.277336028e-09
1.254222603e-09
1.23516925e-09
1.235575798e-09
1.243064191e-09
1.279435046e-09
1.360172014e-09
1.440722673e-09
1.492509883e-09
1.562978013e-09
1.675005156e-09
1.799083015e-09
1.864137818e-09
1.972046091e-09
2.131355469e-09
2.253759791e-09
2.300376466e-09
2.355573189e-09
2.463984204e-09
2.618710212e-09
2.634696346e-09
2.628563751e-09
2.689663044e-09
2.796202047e-09
2.731654765e-09
2.640300389e-09
2.670365665e-09
2.781286615e-09
2.731614073e-09
2.670447517e-09
2.642002275e-09
2.688685415e-09
2.669926246e-09
2.564759617e-09
2.520359832e-09
2.575428482e-09
2.653662686e-09
2.593235898e-09
2.575763149e-09
2.619615561e-09
2.717824497e-09
2.833571544e-09
2.93953986e-09
3.097737368e-09
3.27192341e-09
3.424833603e-09
3.570520389e-09
3.72706713e-09
3.924885773e-09
4.112338649e-09
4.273865162e-09
4.442708828e-09
4.538827279e-09
4.630203117e-09
4.776088008e-09
5.045034106e-09
5.454585215e-09
5.803128395e-09
6.151438898e-09
6.512507191e-09
6.850280417e-09
7.04201016e-09
7.187304909e-09
7.759879631e-09
8.561849268e-09
9.29028457e-09
1.020320505e-08
1.116020316e-08
1.209366937e-08
1.307162968e-08
1.431156852e-08
1.57503166e-08
1.717755292e-08
1.867721928e-08
2.056288764e-08
2.2400948e-08
2.498893448e-08
2.713215515e-08
2.925361307e-08
3.19583402e-08
3.552391317e-08
4.028962514e-08
4.642079039e-08
5.308483846e-08
3.979008262e-08
2.615985758e-08
1.658395626e-08
8.101439842e-09
)


100
(
-1.077094449e-09
-7.358259981e-10
-2.987067606e-10
1.60725675e-10
5.632613684e-10
8.140779314e-10
1.019082377e-09
1.122999128e-09
1.226728448e-09
1.291821405e-09
1.351283292e-09
1.399795506e-09
1.452328242e-09
1.495460726e-09
1.53121738e-09
1.591697761e-09
1.672353305e-09
1.7480425e-09
1.885786246e-09
2.073622772e-09
2.265646135e-09
2.37333368e-09
2.509526442e-09
2.699846446e-09
2.931711474e-09
3.00161662e-09
3.117694596e-09
3.320663901e-09
3.4401223e-09
3.46730746e-09
3.445245803e-09
3.644834868e-09
3.734011571e-09
3.676193515e-09
3.558759871e-09
3.686509123e-09
3.75627554e-09
3.636565466e-09
3.433890265e-09
3.513568914e-09
3.610192841e-09
3.534903705e-09
3.405817608e-09
3.406456968e-09
3.481421012e-09
3.503999273e-09
3.458314354e-09
3.502224512e-09
3.718785861e-09
3.985781553e-09
4.208352455e-09
4.387618773e-09
4.631217846e-09
4.889437676e-09
5.194589062e-09
5.519221634e-09
5.710654594e-09
5.857087156e-09
5.976853954e-09
6.079427964e-09
6.23150256e-09
6.361439645e-09
6.60002675e-09
6.940393613e-09
7.446421704e-09
8.073847019e-09
8.680651107e-09
9.215137674e-09
9.785878911e-09
1.047862654e-08
1.11858087e-08
1.173521764e-08
1.226581104e-08
1.296505274e-08
1.383555259e-08
1.47007353e-08
1.580560734e-08
1.698368652e-08
1.817226962e-08
1.918791612e-08
2.05972786e-08
2.219828807e-08
2.383851841e-08
2.562523534e-08
2.753258293e-08
2.970168601e-08
3.218427693e-08
3.459388643e-08
3.671275045e-08
3.989886204e-08
4.349577977e-08
4.760184582e-08
5.33819409e-08
6.039546608e-08
7.036250237e-08
7.852355883e-08
5.382266817e-08
3.82212567e-08
2.652835368e-08
1.377468371e-08
)


100
(
-1.0823396e-09
-9.298072576e-10
-5.096471964e-10
-1.805091161e-11
3.657672286e-10
6.622450602e-10
9.037658678e-10
1.075885771e-09
1.216723055e-09
1.350800269e-09
1.483552185e-09
1.59482894e-09
1.709842848e-09
1.873171625e-09
1.990664706e-09
2.109223873e-09
2.276202533e-09
2.438089151e-09
2.634725252e-09
2.862237285e-09
3.164334997e-09
3.486139307e-09
3.611439869e-09
3.747642546e-09
3.955061257e-09
4.189942784e-09
4.230465809e-09
4.302381237e-09
4.505564384e-09
4.578327181e-09
4.533153014e-09
4.461509035e-09
4.72041091e-09
4.7417895e-09
4.570691264e-09
4.441067191e-09
4.589098814e-09
4.650425498e-09
4.42129739e-09
4.309268171e-09
4.42624949e-09
4.600750682e-09
4.558062839e-09
4.571667881e-09
4.697423607e-09
4.985352369e-09
5.256749945e-09
5.510399541e-09
5.808108728e-09
6.280424191e-09
6.702651062e-09
7.159188302e-09
7.482541346e-09
7.67982237e-09
7.893444459e-09
8.153696856e-09
8.430693211e-09
8.778150085e-09
9.009660783e-09
9.255561255e-09
9.607228583e-09
1.014589553e-08
1.090720205e-08
1.168763036e-08
1.252121257e-08
1.341153967e-08
1.430610055e-08
1.514108319e-08
1.582449523e-08
1.657128707e-08
1.763656922e-08
1.897877073e-08
2.051755657e-08
2.178908522e-08
2.296627777e-08
2.428277254e-08
2.549751387e-08
2.658022715e-08
2.806544613e-08
2.974831148e-08
3.148155027e-08
3.318591566e-08
3.471018308e-08
3.699885955e-08
3.957913196e-08
4.254972866e-08
4.537635673e-08
4.980961171e-08
5.241533388e-08
5.604933326e-08
6.244337115e-08
7.014806832e-08
8.03090727e-08
9.305914893e-08
1.067658885e-07
1.153741849e-07
7.515242442e-08
5.352694896e-08
3.78747622e-08
2.139036282e-08
)


100
(
-1.082332642e-09
-1.110576692e-09
-6.584438383e-10
-2.041054745e-10
1.641650202e-10
5.413055571e-10
7.924368884e-10
1.049663345e-09
1.250331569e-09
1.444277109e-09
1.648384851e-09
1.895128008e-09
2.06878662e-09
2.297991816e-09
2.625884484e-09
2.833406545e-09
3.064903921e-09
3.374220486e-09
3.714063148e-09
3.917265884e-09
4.158440113e-09
4.504348926e-09
4.91312213e-09
4.98671978e-09
5.021261292e-09
5.198145615e-09
5.370730409e-09
5.417340536e-09
5.4315239e-09
5.602748261e-09
5.619102334e-09
5.392762691e-09
5.484013244e-09
5.763543307e-09
5.764938549e-09
5.459891945e-09
5.456216896e-09
5.67343735e-09
5.795933001e-09
5.656541817e-09
5.726815951e-09
6.064401883e-09
6.550140308e-09
6.904315518e-09
7.204648006e-09
7.620237896e-09
8.085567599e-09
8.592198423e-09
9.119101447e-09
9.416898402e-09
9.76779137e-09
1.016121446e-08
1.054138167e-08
1.094675e-08
1.131503148e-08
1.152876444e-08
1.208515157e-08
1.281459378e-08
1.375425576e-08
1.490690001e-08
1.594988367e-08
1.685410334e-08
1.776335449e-08
1.880217387e-08
1.983031512e-08
2.068841155e-08
2.152132099e-08
2.27067394e-08
2.412598817e-08
2.577313049e-08
2.745444754e-08
2.901274234e-08
3.059574199e-08
3.205917097e-08
3.334878071e-08
3.458147651e-08
3.642919919e-08
3.838862478e-08
4.023206685e-08
4.209741009e-08
4.393689695e-08
4.659951745e-08
4.962790551e-08
5.307131718e-08
5.666404803e-08
6.10831546e-08
6.689229413e-08
7.26477715e-08
7.857082716e-08
8.673407712e-08
9.695949215e-08
1.107221454e-07
1.254026426e-07
1.471833419e-07
1.681129725e-07
1.686787991e-07
1.076307389e-07
7.729018422e-08
5.364703659e-08
3.191556924e-08
)


100
(
-1.082146083e-09
-1.201907887e-09
-8.098874819e-10
-4.091259721e-10
8.998628848e-12
3.95433831e-10
7.106212483e-10
1.007549288e-09
1.30102644e-09
1.591351291e-09
1.854120955e-09
2.19864858e-09
2.574863644e-09
2.840953807e-09
3.233450729e-09
3.766918286e-09
4.068303458e-09
4.41273085e-09
4.785522171e-09
5.23782169e-09
5.391040021e-09
5.542625138e-09
5.868387045e-09
6.239768548e-09
6.345375696e-09
6.290152498e-09
6.378518668e-09
6.49539051e-09
6.576464773e-09
6.573516868e-09
6.717615475e-09
6.657305366e-09
6.428640539e-09
6.661304869e-09
7.04951084e-09
7.04020848e-09
6.961631576e-09
7.136930563e-09
7.64910232e-09
8.031690287e-09
8.379289952e-09
8.779396469e-09
9.475723199e-09
1.017694143e-08
1.103401822e-08
1.157487519e-08
1.193446633e-08
1.232293197e-08
1.276928631e-08
1.325211445e-08
1.384570033e-08
1.412557966e-08
1.461343731e-08
1.534227373e-08
1.622849841e-08
1.731460956e-08
1.878597866e-08
1.99399996e-08
2.138761164e-08
2.292247824e-08
2.449797112e-08
2.598509081e-08
2.692992488e-08
2.76957989e-08
2.89006101e-08
3.03395419e-08
3.194692444e-08
3.371068142e-08
3.523995611e-08
3.68463508e-08
3.861830884e-08
4.024791532e-08
4.125296043e-08
4.305926293e-08
4.561559979e-08
4.829760362e-08
5.073487411e-08
5.329855605e-08
5.597520725e-08
5.94451793e-08
6.383914932e-08
6.891012635e-08
7.385958147e-08
7.820991197e-08
8.575360651e-08
9.293552798e-08
1.021386427e-07
1.099148113e-07
1.219883729e-07
1.358534699e-07
1.532235906e-07
1.740137177e-07
2.004805322e-07
2.343808314e-07
2.671886981e-07
2.343518302e-07
1.491378009e-07
1.105532113e-07
7.753756449e-08
4.636892365e-08
)


100
(
-1.05741876e-09
-1.25396942e-09
-9.773196639e-10
-6.022574167e-10
-1.260251998e-10
2.377548607e-10
6.370019172e-10
9.83731169e-10
1.343381339e-09
1.749928254e-09
2.143873308e-09
2.518206122e-09
3.068716084e-09
3.585511904e-09
3.942723836e-09
4.511638152e-09
5.223804849e-09
5.535032439e-09
5.804378437e-09
6.233244653e-09
6.764468094e-09
6.841158726e-09
6.83823539e-09
7.135200641e-09
7.465800137e-09
7.67456007e-09
7.577807118e-09
7.551779703e-09
7.665863853e-09
7.746097368e-09
7.996025956e-09
8.161015946e-09
7.787798325e-09
8.031867014e-09
8.508115318e-09
9.263414864e-09
9.589569581e-09
9.996119678e-09
1.053695516e-08
1.134391214e-08
1.220147586e-08
1.292991751e-08
1.346293798e-08
1.415200721e-08
1.492827075e-08
1.579121621e-08
1.668784389e-08
1.713942807e-08
1.739133121e-08
1.811809594e-08
1.894422657e-08
2.001956672e-08
2.145702821e-08
2.282086397e-08
2.42797267e-08
2.608836736e-08
2.780133039e-08
2.989787917e-08
3.179294386e-08
3.274699279e-08
3.391485348e-08
3.558823056e-08
3.736307405e-08
3.915197706e-08
4.082220307e-08
4.238565995e-08
4.408397062e-08
4.591223932e-08
4.766483473e-08
4.825780932e-08
4.977983765e-08
5.224295614e-08
5.553367144e-08
5.901169897e-08
6.255354622e-08
6.666715111e-08
7.098050021e-08
7.565306076e-08
8.16998689e-08
8.846773688e-08
9.521644907e-08
1.020161223e-07
1.106913293e-07
1.20185775e-07
1.312066929e-07
1.418750176e-07
1.566746429e-07
1.715856851e-07
1.893310808e-07
2.1351141e-07
2.405637381e-07
2.727623894e-07
3.170091618e-07
3.653496036e-07
4.121219445e-07
3.120001872e-07
2.036287389e-07
1.559177813e-07
1.110436167e-07
6.967594634e-08
)


100
(
-1.004750061e-09
-1.319127072e-09
-1.130113365e-09
-7.196825373e-10
-2.981102373e-10
1.033917693e-10
5.321793814e-10
9.649608287e-10
1.398719415e-09
1.869773157e-09
2.46848608e-09
2.949955136e-09
3.486321192e-09
4.253542574e-09
4.87835682e-09
5.258600133e-09
5.925562095e-09
6.721092939e-09
6.996156435e-09
7.13901068e-09
7.55787489e-09
8.044599721e-09
8.172649017e-09
8.109041831e-09
8.297593053e-09
8.623937238e-09
8.991232441e-09
8.966764117e-09
8.887047204e-09
9.095367373e-09
9.326670396e-09
9.919337075e-09
1.03481943e-08
1.046971456e-08
1.104891515e-08
1.205201419e-08
1.311059152e-08
1.424379158e-08
1.486663033e-08
1.557412421e-08
1.637439501e-08
1.734185399e-08
1.844598348e-08
1.910771252e-08
1.951631574e-08
2.031959965e-08
2.143291995e-08
2.270293531e-08
2.41888567e-08
2.543796705e-08
2.67334263e-08
2.853357456e-08
3.048543274e-08
3.273571802e-08
3.558902501e-08
3.710815877e-08
3.815606203e-08
3.978152554e-08
4.154638633e-08
4.343434636e-08
4.540121529e-08
4.673361817e-08
4.864440934e-08
5.087341252e-08
5.327531579e-08
5.573680238e-08
5.66187336e-08
5.786785729e-08
6.008962144e-08
6.302353425e-08
6.657606819e-08
7.049688999e-08
7.54901413e-08
8.067175672e-08
8.565986335e-08
9.114786445e-08
9.95877458e-08
1.097417669e-07
1.189527896e-07
1.274892497e-07
1.371304309e-07
1.493409158e-07
1.636394041e-07
1.784143455e-07
1.925009238e-07
2.134963431e-07
2.339264582e-07
2.556984742e-07
2.879868785e-07
3.269707767e-07
3.699008962e-07
4.158544812e-07
4.758213182e-07
5.448359182e-07
5.940005113e-07
4.099840501e-07
2.91950128e-07
2.214728575e-07
1.602140281e-07
9.263688719e-08
)


100
(
-9.765806078e-10
-1.374305547e-09
-1.207298071e-09
-8.278090986e-10
-4.755738737e-10
-1.298337393e-11
4.176712007e-10
9.096684535e-10
1.471546337e-09
1.993686364e-09
2.642829545e-09
3.45613863e-09
3.985268883e-09
4.666251184e-09
5.598934607e-09
6.238474115e-09
6.54849227e-09
7.232022901e-09
8.042594822e-09
8.320865048e-09
8.29540744e-09
8.704868755e-09
9.178787999e-09
9.44685429e-09
9.380555022e-09
9.472303087e-09
9.879376932e-09
1.036491568e-08
1.076771252e-08
1.090038587e-08
1.121303538e-08
1.187254263e-08
1.314805007e-08
1.41607138e-08
1.494064816e-08
1.575405975e-08
1.694917616e-08
1.818845449e-08
1.977890407e-08
2.0987445e-08
2.148992665e-08
2.2135742e-08
2.3197549e-08
2.439865695e-08
2.586973852e-08
2.68190056e-08
2.789422356e-08
2.976939465e-08
3.216141271e-08
3.456289186e-08
3.753608404e-08
3.968936587e-08
4.120905046e-08
4.286853716e-08
4.502320129e-08
4.726937901e-08
4.960491102e-08
5.005013068e-08
5.142026264e-08
5.384332454e-08
5.61071691e-08
5.895969716e-08
6.161868757e-08
6.308790968e-08
6.487906767e-08
6.782052252e-08
7.130254873e-08
7.473412862e-08
7.88399153e-08
8.475338849e-08
9.063441969e-08
9.651649922e-08
1.01969949e-07
1.083761038e-07
1.166885775e-07
1.273915596e-07
1.391728645e-07
1.516003593e-07
1.638536842e-07
1.762227007e-07
1.935685496e-07
2.128799616e-07
2.308352645e-07
2.516257622e-07
2.771871606e-07
3.053681537e-07
3.299960622e-07
3.680451634e-07
4.198801673e-07
4.67302964e-07
5.293526878e-07
5.958786321e-07
6.876967151e-07
7.781656893e-07
7.994098774e-07
5.529278794e-07
4.242395384e-07
3.242355016e-07
2.390208983e-07
1.547995927e-07
)


100
(
-9.763688148e-10
-1.408267324e-09
-1.252922679e-09
-9.786994281e-10
-6.189353202e-10
-1.61197843e-10
3.110579996e-10
8.263506408e-10
1.450790228e-09
2.161533921e-09
2.762613513e-09
3.635783527e-09
4.565115216e-09
5.120965939e-09
5.876790148e-09
6.907030809e-09
7.519225997e-09
7.725467438e-09
8.381394146e-09
9.182652557e-09
9.540204527e-09
9.482995701e-09
9.811418846e-09
1.032779877e-08
1.088653358e-08
1.090918257e-08
1.101486171e-08
1.163007456e-08
1.244832418e-08
1.348518593e-08
1.424356194e-08
1.493332735e-08
1.604372519e-08
1.755789954e-08
1.908005044e-08
2.075219288e-08
2.176037372e-08
2.268119394e-08
2.41190699e-08
2.584943213e-08
2.76991628e-08
2.875968712e-08
2.925684439e-08
3.077990517e-08
3.274164993e-08
3.504494503e-08
3.779465279e-08
4.020439767e-08
4.229306987e-08
4.487287639e-08
4.735750169e-08
5.032689677e-08
5.315978506e-08
5.371746135e-08
5.367410263e-08
5.583924225e-08
5.836639885e-08
6.109811719e-08
6.405417478e-08
6.574860104e-08
6.759568454e-08
7.021696942e-08
7.423824253e-08
7.851088133e-08
8.030198051e-08
8.385627344e-08
9.025076393e-08
9.764702588e-08
1.054942724e-07
1.126964349e-07
1.196158782e-07
1.276470663e-07
1.368890396e-07
1.473657533e-07
1.598873049e-07
1.73769584e-07
1.86714149e-07
2.006635601e-07
2.19195076e-07
2.429197313e-07
2.671211326e-07
2.89451146e-07
3.13508938e-07
3.466048062e-07
3.836908002e-07
4.170833801e-07
4.561884065e-07
5.098064356e-07
5.645826175e-07
6.328032893e-07
7.101499747e-07
8.047174397e-07
9.348604284e-07
1.060943928e-06
1.049938801e-06
7.632287765e-07
6.015495287e-07
4.722652885e-07
3.568191973e-07
2.118344541e-07
)


100
(
-9.76097914e-10
-1.416544413e-09
-1.331821217e-09
-1.114910265e-09
-7.284208952e-10
-3.318838685e-10
1.834527983e-10
7.561354601e-10
1.362621361e-09
2.189909079e-09
2.997707219e-09
3.677943925e-09
4.750828135e-09
5.730377198e-09
6.241012836e-09
7.018031424e-09
8.096179862e-09
8.72505728e-09
8.848864948e-09
9.456759549e-09
1.028832375e-08
1.085505189e-08
1.083858916e-08
1.112153769e-08
1.179354178e-08
1.258793947e-08
1.318740643e-08
1.367344355e-08
1.452596982e-08
1.592779508e-08
1.757438402e-08
1.954498183e-08
2.067474676e-08
2.169851815e-08
2.328539679e-08
2.520139053e-08
2.754847085e-08
2.910448954e-08
2.984598952e-08
3.108334581e-08
3.329973434e-08
3.577637638e-08
3.846896627e-08
4.032923477e-08
4.23533604e-08
4.519225247e-08
4.820519116e-08
5.121439573e-08
5.531372599e-08
5.708859838e-08
5.79230803e-08
5.94131984e-08
6.174299746e-08
6.407665319e-08
6.609164115e-08
6.714843208e-08
6.904165095e-08
7.276583455e-08
7.586206556e-08
8.068339218e-08
8.398267831e-08
8.543452249e-08
8.889619795e-08
9.473511568e-08
1.018418414e-07
1.097124985e-07
1.176685067e-07
1.263148637e-07
1.355551395e-07
1.449648737e-07
1.539497995e-07
1.645009919e-07
1.799757031e-07
1.972816332e-07
2.136355537e-07
2.293029807e-07
2.474838568e-07
2.682516103e-07
2.941505346e-07
3.239536485e-07
3.517781154e-07
3.821656863e-07
4.245053651e-07
4.68157586e-07
5.08471787e-07
5.578739644e-07
6.218866183e-07
6.898098204e-07
7.62725347e-07
8.389518429e-07
9.478862993e-07
1.05902127e-06
1.212787165e-06
1.370267651e-06
1.32745147e-06
1.030483608e-06
8.245648467e-07
6.62596049e-07
5.123416106e-07
2.605235434e-07
)


100
(
-9.318163828e-10
-1.420560402e-09
-1.404999296e-09
-1.197412262e-09
-8.576863607e-10
-4.819472073e-10
1.869591004e-11
6.436928049e-10
1.318188333e-09
2.073001659e-09
3.126876733e-09
3.960491565e-09
4.728544354e-09
5.908737174e-09
6.881005859e-09
7.308507455e-09
8.077988681e-09
9.20748924e-09
9.926993779e-09
1.004256433e-08
1.060188005e-08
1.153829828e-08
1.249797101e-08
1.265980855e-08
1.297592584e-08
1.403610471e-08
1.531532015e-08
1.695614989e-08
1.80540715e-08
1.928037001e-08
2.115083631e-08
2.334464718e-08
2.604288296e-08
2.808108825e-08
2.916630441e-08
3.021642781e-08
3.243270427e-08
3.509770681e-08
3.813255628e-08
3.964253977e-08
4.106226905e-08
4.388243407e-08
4.759653863e-08
5.126845361e-08
5.540744209e-08
5.8362739e-08
6.031678365e-08
6.258358584e-08
6.51810615e-08
6.820015221e-08
7.105383862e-08
7.07663477e-08
7.12113994e-08
7.455091292e-08
7.840123277e-08
8.145452332e-08
8.614469995e-08
8.889733459e-08
9.159213492e-08
9.643430339e-08
1.022351184e-07
1.087642117e-07
1.119327574e-07
1.183563666e-07
1.290609826e-07
1.399563941e-07
1.508940732e-07
1.608279086e-07
1.712527566e-07
1.840142701e-07
1.996825022e-07
2.1873093e-07
2.371568327e-07
2.567538215e-07
2.765895623e-07
2.975964722e-07
3.239794698e-07
3.559182477e-07
3.900497718e-07
4.252175637e-07
4.619867938e-07
5.070236857e-07
5.579891262e-07
6.091745154e-07
6.686569393e-07
7.550815371e-07
8.38771141e-07
9.186697322e-07
1.022192584e-06
1.12695899e-06
1.262608246e-06
1.485976786e-06
1.618800292e-06
1.805595764e-06
1.639432926e-06
1.330950287e-06
1.092433926e-06
8.934754943e-07
7.050891963e-07
3.779946637e-07
)


100
(
-8.577457249e-10
-1.421172035e-09
-1.451305326e-09
-1.247815185e-09
-1.00024548e-09
-6.071822468e-10
-1.437527061e-10
4.61854082e-10
1.270834731e-09
2.015875923e-09
2.966395126e-09
4.209914481e-09
4.962863687e-09
5.762142786e-09
7.023668062e-09
7.993558186e-09
8.361287244e-09
9.133555295e-09
1.032283069e-08
1.126020776e-08
1.145218956e-08
1.200096399e-08
1.318144942e-08
1.447270565e-08
1.542704244e-08
1.625640036e-08
1.769785822e-08
1.970091035e-08
2.203436145e-08
2.453214628e-08
2.626050366e-08
2.789970207e-08
3.042908911e-08
3.354874229e-08
3.701523833e-08
3.834058131e-08
3.913672501e-08
4.1569511e-08
4.509636531e-08
4.906434734e-08
5.342269975e-08
5.624072147e-08
5.887865431e-08
6.253293893e-08
6.601873477e-08
7.03811781e-08
7.534300491e-08
7.615123057e-08
7.539272201e-08
7.760093893e-08
8.056457783e-08
8.405664973e-08
8.769471549e-08
9.035597343e-08
9.351345534e-08
9.818213895e-08
1.037138825e-07
1.111000895e-07
1.152710343e-07
1.17159407e-07
1.242269882e-07
1.33943543e-07
1.442450658e-07
1.55405147e-07
1.669480788e-07
1.777139307e-07
1.900978836e-07
2.039171379e-07
2.17738724e-07
2.349292576e-07
2.58373703e-07
2.83790108e-07
3.062705443e-07
3.292481083e-07
3.572991278e-07
3.931630321e-07
4.280521462e-07
4.651889823e-07
5.032025393e-07
5.479133405e-07
6.057705704e-07
6.731450468e-07
7.286159154e-07
7.871454286e-07
8.78603135e-07
9.815313412e-07
1.086035947e-06
1.201139756e-06
1.330239636e-06
1.489540848e-06
1.65210937e-06
1.896632845e-06
2.1242662e-06
2.329891597e-06
2.092348953e-06
1.660466786e-06
1.389950418e-06
1.161668138e-06
9.361394571e-07
4.938237939e-07
)


100
(
-8.276851679e-10
-1.40679043e-09
-1.451657166e-09
-1.317503335e-09
-1.11616215e-09
-7.473669427e-10
-2.86899838e-10
2.806366809e-10
1.061777192e-09
2.018847756e-09
2.788929721e-09
3.904401582e-09
5.234355707e-09
5.88582388e-09
6.695903819e-09
8.030602142e-09
9.08108696e-09
9.441019201e-09
1.021208446e-08
1.153555693e-08
1.286441311e-08
1.329023355e-08
1.391390006e-08
1.559192495e-08
1.753055602e-08
1.981587739e-08
2.139574768e-08
2.305998303e-08
2.575349653e-08
2.871698369e-08
3.278143398e-08
3.498111878e-08
3.6492211e-08
3.866959945e-08
4.241061282e-08
4.651997963e-08
5.021348759e-08
5.16019703e-08
5.405868563e-08
5.859330546e-08
6.378866721e-08
6.850957544e-08
7.420163955e-08
7.635272618e-08
7.776377129e-08
7.97747862e-08
8.36522598e-08
8.760526538e-08
9.075865846e-08
9.034146658e-08
9.24859215e-08
9.827793107e-08
1.031981055e-07
1.096697906e-07
1.165503718e-07
1.209281683e-07
1.237829228e-07
1.317691914e-07
1.406454446e-07
1.497734924e-07
1.569675124e-07
1.672425433e-07
1.82445448e-07
1.96892499e-07
2.110068188e-07
2.241668827e-07
2.389573324e-07
2.574683732e-07
2.810910358e-07
3.08511608e-07
3.346189386e-07
3.596484475e-07
3.88224679e-07
4.190980963e-07
4.584372691e-07
5.061575703e-07
5.545185813e-07
6.019607164e-07
6.554806555e-07
7.134197801e-07
7.84896131e-07
8.590675029e-07
9.358832502e-07
1.035882521e-06
1.146476421e-06
1.248656565e-06
1.391029432e-06
1.565403482e-06
1.757053217e-06
1.919293236e-06
2.165420889e-06
2.357646916e-06
2.666522895e-06
2.949577756e-06
2.596215725e-06
2.033619084e-06
1.722963611e-06
1.465845645e-06
1.206733906e-06
6.132734757e-07
)


100
(
-8.274526422e-10
-1.377902857e-09
-1.449139775e-09
-1.38437272e-09
-1.18082146e-09
-8.977078406e-10
-4.482332212e-10
1.376914538e-10
7.856154787e-10
1.765613119e-09
2.752914283e-09
3.489440009e-09
4.761810636e-09
6.102374605e-09
6.686280492e-09
7.50894199e-09
8.940726847e-09
1.016305048e-08
1.062748463e-08
1.142927147e-08
1.29754013e-08