/*--------------------------------*- C++ -*----------------------------------*\
| =========                 |                                                 |
| \\      /  F ield         | OpenFOAM: The Open Source CFD Toolbox           |
|  \\    /   O peration     | Version:  2.3.1                                 |
|   \\  /    A nd           | Web:      www.OpenFOAM.org                      |
|    \\/     M anipulation  |                                                 |
\*---------------------------------------------------------------------------*/
FoamFile
{
    version     2.0;
    format      ascii;
    class       dictionary;
    location    "constant";
    object      GRPSI23;
}
// * * * * * * * * * * * * * * * * * * * * * * * * * * * * * * * * * * * * * //

GRPSI23_table
100
(

100
(
68716.02364
59051.59431
44776.54675
38042.94176
33971.43195
31088.73487
29191.22909
27662.5011
26298.51643
25458.83233
24373.95588
23408.45132
23325.03303
22472.18138
21892.55565
22030.58091
21331.13173
20714.03718
20929.03636
20502.63303
19857.83047
19837.53878
19832.88872
19320.12263
18998.63012
19192.34603
19080.06263
18551.53344
18331.34325
18522.0607
18364.04129
18002.07505
17986.34949
18180.49095
18156.79402
17676.85384
17429.25894
17641.63807
17673.07952
17337.88486
17177.50743
17386.50355
17456.91798
17249.28722
17179.83469
17385.32458
17558.60837
17185.87907
16844.16218
17035.42244
17129.64229
16875.31701
16700.81577
16874.24698
16934.40858
16834.57844
16860.74408
17057.78816
17100.75693
16883.84735
16827.36812
17039.87548
17060.04514
16874.6219
16890.53326
17121.00385
17039.54147
16884.23704
17050.1672
17162.13916
17042.57875
17058.45319
17259.92531
17175.63364
17148.53497
17350.04718
17300.46754
17324.6834
17459.27822
17453.70274
17596.59099
17631.04183
17696.67908
17807.13362
17896.00021
18004.43979
18101.3349
18252.21231
18348.5516
18529.47728
18704.31897
18850.53511
18997.86638
19158.83017
19349.30176
19489.76503
19561.54126
19615.72173
18862.11563
18094.16887
)


100
(
68963.80725
59305.32446
45209.44356
38360.09285
34008.87462
31534.70535
29378.19896
27698.30518
26548.11472
25291.97475
24673.88962
23630.05597
23138.02427
22847.55468
22019.74874
21700.27891
21778.50521
21069.13887
20507.26805
20693.70457
20346.11044
19710.47663
19595.85412
19779.68116
19276.13394
18773.07904
18957.4397
19144.99139
18643.34011
18121.42721
18286.11946
18461.344
18108.92117
17766.95875
17958.11518
18154.38245
18019.25323
17562.28249
17443.13574
17652.20064
17708.8916
17378.3639
17199.14872
17402.92511
17569.36854
17360.32635
17183.51044
17369.9722
17556.86708
17449.57038
17075.75572
16984.35406
17151.36276
17143.74295
16903.28513
16845.7624
17028.84268
17089.48699
16992.80454
16943.13956
17347.59084
17514.56008
16999.61656
16861.36657
17502.88406
17667.76217
16975.3282
17143.40934
17810.55239
17559.48508
17110.72762
17751.52188
18011.63059
17235.94722
17422.79686
18291.21054
17902.97264
17585.97834
18487.12525
18179.49006
18172.32306
18701.66354
18135.94716
18985.21323
19108.7813
18611.74498
19392.30733
19148.97495
19408.84146
19652.31437
19577.22398
19642.33502
19627.24818
19633.22933
19662.08604
19562.5516
18162.70192
10211.08479
3133.772037
3070.4856
)


100
(
69589.5092
59729.95381
45605.44201
38394.33048
34165.67966
31707.96072
29644.08535
27995.75331
26909.74474
25633.90936
24729.94346
24061.29474
23101.91659
22937.2273
22519.08364
21732.36668
21542.22001
21632.74399
20939.46168
20339.36309
20502.51164
20311.10491
19694.36223
19434.02722
19606.70286
19348.25267
18861.69692
18805.75906
18978.0489
18845.61845
18340.13957
18136.96584
18308.69809
18328.74585
17997.7307
17825.03146
18009.08348
18198.15575
18042.56278
17615.0774
17533.94815
17725.63839
17872.52021
17557.73256
17283.57052
17465.16832
17644.10441
17580.7755
17375.89976
17401.15615
17554.72741
17686.32353
17370.01355
17012.04519
17105.01251
17521.2114
17331.42659
16871.43476
17028.87405
17465.90118
17325.60658
17348.64613
17811.42233
17394.30129
17083.76012
17672.60751
18175.49007
17529.05503
17434.74298
18181.22127
18340.66371
17908.23523
17919.64176
18386.95826
18117.54036
17772.32492
18192.98651
18831.05985
18662.61216
18475.37199
18672.03207
18931.25856
18810.70108
18770.13438
19370.48825
19279.94159
19281.06164
19671.5302
19606.48952
19551.35695
19663.3901
19735.18314
19606.83445
19695.05443
19771.89607
19249.75758
14851.68909
4409.536986
-1221.416244
-445.9314847
)


100
(
70101.01923
60250.64854
45528.01677
38414.95987
35051.36516
32003.76936
29914.97938
28361.99764
26897.43614
26077.49029
24895.72498
24497.48044
23600.83501
22690.01701
22789.78919
22309.86283
21551.46621
21431.82699
21577.97414
20892.97621
20220.38622
20368.92949
20374.45107
19778.88533
19333.766
19495.78669
19513.31713
19041.44158
18712.79208
18871.24975
19026.16663
18648.46116
18163.9683
18217.83501
18385.26541
18320.26036
18011.06802
17939.38849
18116.28919
18288.47107
18163.14559
17735.11957
17597.47405
17757.62554
18059.70578
17789.65183
17360.08491
17499.49089
18093.25645
17908.93872
17274.09924
17403.81156
17947.31056
17871.40945
17149.52931
17164.80408
18046.42471
18088.92918
17158.086
17332.06902
18072.60376
17800.76139
17514.25575
17903.13447
17907.77704
17687.70088
17858.99911
18247.64648
18333.55819
18097.97268
17969.22082
18153.21768
18468.04235
18587.63979
18299.94672
18287.00347
18737.17946
18896.88037
18747.06487
18709.23068
18986.64605
19215.2148
19106.49487
19290.00901
19532.86691
19457.4195
19441.23208
19528.11604
19585.38853
19751.63738
19827.08534
19735.66693
19904.2643
20003.63375
19846.13608
19224.09699
11352.69692
9.007050928
-3404.798103
-2776.466011
)


100
(
69601.56291
60174.88903
46028.23322
39185.37137
35328.54823
32302.37097
30227.04457
28785.05987
27319.5116
26493.38374
25395.00631
24289.66563
24156.34893
23251.06902
22528.70108
22671.96015
22188.3977
21454.93472
21343.11003
21473.55341
20912.33811
20250.06311
20277.71229
20416.42184
19937.20444
19369.64477
19425.03352
19570.84361
19284.00375
18831.9037
18809.2721
18946.06963
18997.76008
18515.96787
18122.97956
18272.69263
18669.50386
18405.32094
17888.56877
18036.29316
18262.64515
18518.64719
18080.98033
17593.66112
17926.46094
18743.39948
18273.29851
17320.73569
17749.70704
18622.62157
18275.49138
17346.51235
17677.97033
18368.12129
18088.14917
17324.77339
17813.56639
18616.28762
18380.67416
17815.72406
17855.10381
18189.41327
18137.61023
17865.95968
17804.45023
17979.72048
18266.16352
18261.73135
18107.57793
18247.50874
18445.70284
18495.7441
18331.95903
18461.48898
18770.21684
18954.78443
19081.46445
18881.84808
18972.70992
19401.57749
19346.46729
19128.60976
19215.31469
19449.24821
19507.50896
19613.2442
19806.83411
19690.5518
19684.57637
19795.33098
20014.09692
20039.87808
20113.90154
20333.26249
20172.94748
18583.35896
7738.367783
-3423.286167
-4830.444065
-4412.809921
)


100
(
69314.81852
60156.55571
46465.33561
39892.87623
35584.91334
32712.41286
30596.83089
28965.13661
27778.45748
26462.39714
25930.33766
24824.75106
24039.80544
23842.30303
22988.54438
22437.32205
22563.31441
22126.12675
21412.33929
21252.96627
21365.79848
20986.24191
20345.51082
20205.0471
20334.73956
20138.31251
19590.77537
19338.02799
19429.88572
19501.13525
19085.94899
18714.8938
18829.08519
19257.36187
18843.61792
18114.23855
18230.91489
19175.65978
18959.40605
17897.76715
17998.13002
18704.91437
18973.25064
18053.17404
17580.57101
18523.95882
19491.20331
18392.9454
17429.12664
18279.47329
18993.80126
18418.53961
17790.57852
18143.31185
18529.00748
18329.10972
18143.05355
18209.64288
18264.94491
18450.0539
18460.67257
18157.8373
18008.97831
18223.14154
18504.72105
18452.73124
18197.09034
18265.24785
18504.54348
18622.01671
18552.99126
18458.92194
18530.18134
18760.3564
19011.30178
18891.49741
19051.55404
19395.37635
19351.31416
19214.87383
19265.86321
19671.93973
19675.36091
19584.04812
19766.18579
19778.33562
19677.65058
19925.1651
19999.01896
19883.56666
20245.72943
20309.87753
20460.80784
20673.95601
20538.36165
16489.24126
4286.085693
-5067.8268
-5855.427552
-5474.676679
)


100
(
69340.35267
60298.89697
46967.67449
40028.97702
35773.16479
33128.65986
30982.90014
29223.9851
28251.61475
26924.14866
25902.67728
25375.42491
24346.35669
23861.99292
23593.03622
22782.73884
22332.80203
22442.75315
22097.03727
21396.53992
21145.76765
21251.33739
21109.00052
20519.34474
20196.31232
20328.70001
20080.9558
19485.98974
19253.34906
19508.25277
19838.74348
19284.21575
18655.43344
19003.10045
19617.30672
18977.25299
18070.49092
18641.05956
19696.14537
19092.43945
17921.16455
18307.41516
19160.51486
19097.40628
18017.88262
18170.16325
19149.5809
19471.1233
18544.3716
18123.13786
18773.9523
18893.23838
18742.19407
18322.60459
18159.07327
18281.05199
18493.93496
18582.39388
18335.43862
18224.60462
18451.71893
18725.89131
18885.844
18605.81291
18351.84682
18482.69045
18631.84351
18836.86106
18756.6164
18543.7723
18659.82152
18965.37811
19002.23102
18820.72021
18875.6784
19105.56828
19311.00343
19265.22388
19297.20576
19620.44892
19618.15361
19652.51793
19879.12701
19892.50038
19863.28751
19919.3308
19990.91969
20026.4364
20201.26638
20326.50202
20285.4286
20541.20849
20887.78758
21027.469
20912.28652
14537.0157
1443.791005
-5862.812772
-6384.843511
-6522.835495
)


100
(
69736.6354
60609.34976
47024.38188
40073.21739
36361.57066
33427.05743
31351.11918
29617.92292
28158.78868
27406.83709
26180.24966
25601.41735
24905.30229
23939.42549
23680.32183
23398.60247
22623.89339
22210.27985
22306.19011
22112.42439
21464.85812
21115.4021
21230.60554
21333.77082
20714.16406
20116.73567
20240.73156
19906.53501
19323.08488
19168.73124
19952.36935
20217.94511
19135.74618
18572.37908
19427.89197
20023.04517
18881.89362
18132.67346
19146.63521
20090.7671
19142.89413
18106.28934
18752.55901
19465.68937
19099.56714
18520.46389
18781.42472
19238.5078
19267.21934
19005.57043
18596.67242
18473.9391
18589.3865
18824.50409
19043.05975
18652.48793
18260.25935
18451.04604
18710.42369
18878.59102
18625.15523
18460.34772
18676.54443
18829.59117
18982.05085
19021.98916
18790.90047
18642.88596
18961.36099
19304.13329
19160.73504
18919.8599
18969.56966
19137.56476
19269.31962
19183.37786
19266.07264
19619.99262
19607.62225
19626.20629
19813.2868
19830.13663
19840.29914
19912.02822
20194.2715
20281.10203
20041.13238
20084.27195
20431.83303
20634.33696
20771.96014
20870.70334
21068.75371
21411.47026
21205.47758
12594.84174
-718.6221951
-6150.412214
-6601.528972
-6656.518599
)


100
(
69862.61076
60668.07825
47019.79995
40401.3178
36705.19368
33712.20542
31545.9503
30038.94147
28512.6794
27703.15707
26676.29532
25533.62276
25313.50901
24517.65282
23606.18854
23499.67692
23260.04682
22541.64499
22159.09114
22275.01575
22250.97315
21564.3764
21008.08205
21119.00881
21314.53571
20910.68756
20233.49728
20155.43417
19752.59687
19173.203
19303.96949
20410.3433
20407.56755
19002.60986
18874.3442
19867.93462
20073.21127
18792.61096
18635.02122
19677.66643
20042.79087
19195.65427
18686.91114
19216.22239
19390.40983
19353.88618
18977.66982
18777.09106
18913.53213
19012.60154
19245.45471
19216.99119
18737.60387
18536.92634
18803.92038
19096.0836
19214.08766
18925.48723
18599.24724
18635.8225
18787.26872
19034.12377
19093.79945
18883.06033
18784.37877
19037.06476
19341.92951
19294.87338
19049.08257
19045.55699
19263.85924
19503.93503
19445.49914
19160.24587
19325.34106
19690.15301
19625.1696
19637.70153
19813.09599
19809.04388
19802.04139
19788.82125
20115.83198
20359.59635
20185.77234
20097.36144
20332.85418
20603.73825
20641.59505
20826.28631
20847.85408
21211.1611
21707.14439
21618.92536
20954.82681
10783.92674
-2234.769758
-6204.005403
-6826.874551
-6924.67722
)


100
(
69380.81057
60519.98128
47303.95957
41007.96277
36924.98823
34002.07899
31860.53753
30296.33658
28956.47939
27591.82882
27200.02842
26059.06291
25067.63158
25040.76092
24210.8348
23374.19213
23414.28598
23311.87092
22575.61652
22049.11813
22138.78152
22328.92627
21679.8597
20925.08672
21016.05767
21223.25244
21151.99476
20474.19868
20076.43091
19618.33254
19023.56108
19768.88581
20899.85243
20309.17749
18933.07646
19330.6592
20297.33992
20020.85735
19137.57908
19181.98079
19820.41071
19934.62562
19632.20339
19113.29822
19003.30164
19123.18628
19352.65341
19567.07078
19198.50949
18841.92107
18976.01954
19209.25884
19401.8453
19335.06346
18927.8263
18803.6296
19030.07724
19158.00125
19315.70254
19317.84079
19002.23929
18800.79454
19068.89856
19441.6905
19396.40863
19060.24056
19070.82672
19299.04852
19506.50023
19639.23222
19441.5877
19346.52634
19668.795
19847.40288
19665.66739
19723.99965
19903.62898
19861.67933
19826.04392
19813.0509
20059.09854
20285.11266
20182.55686
20075.37579
20219.58246
20579.76497
20697.35105
20627.15177
20864.85162
20970.12165
21339.99839
21527.60411
21706.19371
22486.81602
20468.11274
8244.302086
-3564.969173
-6119.169806
-7016.539926
-7249.01652
)


100
(
68990.1359
60372.8208
47615.71455
41193.15398
37098.21142
34347.67884
32216.77007
30431.93822
29431.54962
28061.90382
27029.39406
26611.59703
25544.54866
24822.22751
24889.46514
24109.04644
23255.83891
23286.65428
23311.26798
22593.04537
21930.37053
22020.01938
22222.19374
21838.5485
21089.86089
20931.32571
21142.17279
21350.53565
20763.56373
20091.31587
19494.93125
19257.62844
20273.62332
21046.2509
20223.70168
19402.57534
19828.50343
20242.38471
20107.31145
19641.78815
19415.97395
19519.60349
19631.54013
19895.90488
19737.80783
19201.1589
19091.04188
19334.14784
19637.63859
19799.39781
19340.7777
18947.38566
19176.14537
19317.00759
19406.66056
19626.32129
19413.36936
19079.55588
19147.45657
19395.66666
19698.94772
19514.0502
19117.5579
19178.33708
19383.15927
19516.22087
19665.23031
19475.83544
19302.30784
19707.19341
20130.00708
19833.32352
19656.37986
20004.65177
20122.0162
20040.37209
19970.92358
19914.2858
20017.95741
20232.34918
20272.47063
20202.4689
20122.62353
20412.06556
20792.67544
20616.98649
20691.52595
21119.01491
21120.35227
21406.51029
21621.19103
21839.8969
22596.51537
22495.91239
18354.7511
5313.281114
-4596.682104
-5978.328717
-6941.182599
-7103.630461
)


100
(
68772.47621
60341.83168
47886.95155
41247.22902
37367.36515
34590.81045
32567.85262
30799.02271
29393.49364
28557.4383
27292.68937
26648.0927
26157.37949
25210.51187
24686.58644
24764.01029
23974.3732
23105.87986
23137.49018
23339.15687
22650.568
21827.37988
21923.15412
22118.93614
22025.26222
21298.13768
20861.4341
21064.30416
21248.61885
21081.96268
20434.14693
19371.69596
19721.7202
20805.30626
20970.5493
20446.53376
19897.59362
19905.46049
19937.52357
20158.31703
20061.79722
19609.02836
19475.56086
19607.73288
19891.927
20140.95114
19791.3752
19260.75616
19335.93252
19609.94959
19703.1245
19751.25727
19608.0253
19381.7153
19343.5807
19421.41175
19782.3553
20067.80597
19559.06215
19170.38865
19471.70908
19695.83897
19711.66206
19717.6867
19560.56501
19400.33923
19723.38598
20178.42513
19802.90045
19533.81597
19932.35057
20259.48499
20341.27794
20219.22121
20187.35585
20113.99092
20021.82554
20257.98283
20448.65924
20367.17778
20306.2665
20389.8374
20725.61825
20751.04467
20547.6878
20731.50264
21169.8974
21175.00805
21438.55843
21780.51074
22030.60144
22523.38263
22699.40464
22507.01115
16051.74738
2108.652988
-5192.977882
-5709.470481
-6939.174364
-7182.811375
)


100
(
68843.7214
60434.74286
47692.711
41245.08558
37772.53263
34843.66364
32641.5007
31184.54878
29670.92832
28843.93744
27790.93729
26644.16049
26384.90145
25852.65693
24901.32027
24458.2986
24579.8645
23885.7594
23009.95522
23004.47903
23194.58972
22714.58985
21921.32041
21818.67784
22004.99802
22148.96048
21538.18957
20873.1219
20976.30743
21137.38062
21216.42232
20778.90138
20014.07219
20220.61911
20706.23803
20661.22797
20691.22279
20238.79772
19772.49749
19875.92043
20121.27065
20455.54183
20146.27135
19585.27249
19593.17876
19873.6026
20072.68421
20144.49721
19875.59358
19509.15597
19549.25155
19684.13963
19840.38503
20230.52859
19951.94758
19366.86453
19495.02475
19845.9418
20068.11301
20043.31603
19701.6414
19525.79641
19638.71792
19907.77476
20314.62253
19933.92683
19565.62366
19941.22084
20188.692
20393.91455
20434.81475
20227.82256
20158.15084
20141.66266
20073.34103
20359.98653
20674.98145
20661.03051
20599.49062
20448.77853
20575.96632
20819.80654
20836.89554
20700.23961
20955.52246
21216.99522
21054.29606
21437.69723
22034.13509
22324.83171
22238.55389
22323.83986
22826.87803
22930.22763
13529.43587
-640.1601048
-5125.993757
-5580.256504
-6671.893053
-6919.125788
)


100
(
68589.57632
60176.4635
47634.84435
41612.83553
37875.48254
35067.56508
32889.47223
31399.40374
30051.69843
28708.39648
28333.96903
27211.07983
26143.50892
26085.34031
25523.15232
24594.90066
24220.29917
24379.59671
23832.50902
22950.63907
22848.96451
23031.70458
22809.28667
22041.19131
21694.28928
21873.6044
21995.96449
21796.33245
21158.3236
20865.60604
21009.13554
21075.2451
21197.58529
20787.21443
20324.15021
20404.38511
20481.11859
20772.12289
20754.26519
20117.72836
19804.44545
20069.69901
20386.32099
20535.02539
20142.4036
19695.69186
19808.1654
19951.6997
20054.59849
20330.57219
20199.01592
19698.95513
19569.29996
19867.28859
20280.63125
20463.86994
19911.74886
19548.51632
19804.88932
19907.61751
20178.08445
20318.06144
19911.48501
19667.38252
20105.96922
20484.06707
20286.47728
20216.09116
20383.13207
20388.45918
20380.65939
20310.72674
20218.30349
20288.80338
20714.99403
20971.80604
20737.14919
20475.08854
20438.34334
20844.76964
21091.15901
21010.40065
20883.95678
21056.1675
21291.44883
21162.14059
21577.15087
22281.9241
22102.7861
22190.5717
22502.88335
23092.99615
23827.75986
22058.90539
10657.80811
-2005.244366
-4775.879729
-5312.788184
-6509.592239
-6964.430503
)


100
(
67997.41823
59868.87148
47739.15941
41773.26544
37943.3729
35229.27713
33148.99831
31374.97008
30437.93164
29098.75303
28093.13262
27776.33453
26671.5382
25779.96743
25786.56982
25252.49242
24321.49717
24001.79231
24166.08152
23787.06407
22928.50397
22676.97721
22851.23342
22935.7743
22192.09954
21549.43417
21724.77713
21827.4473
21886.26993
21455.24317
20909.55823
20923.23478
21054.91249
21195.97499
21258.81446
20730.02979
20289.40908
20379.26451
20687.54078
20986.94977
20621.90279
19989.84961
20001.14691
20297.51139
20392.73685
20455.68122
20315.99094
20020.1076
19917.58346
19952.55103
20311.43222
20748.69178
20163.2588
19538.09774
19898.62598
20258.98363
20291.737
20441.7815
20162.90425
19721.23816
19777.83114
20321.35412
20841.8958
20264.59425
19897.46187
20312.87574
20622.04172
20697.73749
20557.0062
20480.06073
20484.03078
20384.82712
20450.79062
20717.09113
20805.61217
20776.03563
20689.71128
20674.12336
21073.85346
21370.18405
21098.06513
20822.81416
21164.51164
21512.32363
21444.07084
21598.24739
21855.98354
21799.38239
22277.70577
22664.93303
22910.07589
23827.14379
24291.80277
21455.95917
8932.094803
-2605.536359
-4351.95101
-4939.470351
-6094.189564
-6532.916503
)


100
(
67420.94593
59545.55398
47866.61303
41716.70681
38000.84556
35326.30444
33400.00473
31635.67458
30294.34413
29540.21781
28358.13616
27631.83402
27218.70312
26184.83817
25426.47733
25488.92796
25044.4086
24114.95822
23785.31206
23945.92262
23778.58572
22948.98226
22497.6554
22664.47686
22750.16015
22371.65866
21737.4446
21567.50881
21650.49803
21724.70318
21865.86321
21381.78597
20843.18343
20907.19236
21083.02447
21420.52151
21161.5732
20461.57349
20295.80001
20596.12743
20848.80739
20919.02185
20531.55554
20116.68977
20192.92766
20314.63013
20416.90195
20881.75069
20601.54643
19851.26232
19882.70418
20301.27828
20663.20053
20643.0342
20146.43924
19871.46007
20084.66346
20090.14952
20642.66803
20744.71648
19934.92724
19964.9341
20508.05596
20677.20084
20815.89367
20831.31359
20600.88084
20518.82008
20515.86618
20430.56283
20313.99085
20701.68513
21070.03818
20997.26928
20951.25654
20880.19534
20812.71419
21055.70837
21246.07301
21184.27736
21048.16944
21302.5035
21698.7288
21510.07005
21539.52307
21900.95184
22246.08507
22578.75523
22227.78892
22498.13249
23079.648
23246.30184
23899.20036
21489.91583
8793.08097
-2660.597395
-3942.314311
-4511.964686
-5684.090883
-6098.923273
)


100
(
67009.90803
59327.28609
47718.00011
41614.24003
38207.44203
35441.80153
33323.62196
31920.75475
30455.8938
29686.06465
28806.2936
27646.64574
27181.54198
26751.79925
25752.82176
25090.56166
25200.9644
24901.42362
23975.35866
23570.66608
23725.10267
23808.14532
23018.33327
22326.25275
22476.39334
22542.71493
22581.52302
21978.13683
21455.95123
21595.20101
21652.37287
21889.12305
21750.01451
21063.00077
20766.06956
20975.73234
21299.734
21480.57171
20950.53383
20349.64314
20496.64592
20703.66369
20750.34396
20939.41646
20788.80835
20322.9781
20195.84049
20373.72931
20826.52109
21123.90161
20386.41721
19868.29544
20289.70436
20490.04673
20487.9799
20718.61488
20420.03697
19890.82329
20181.78667
20795.69627
21089.95731
20416.79218
20138.30394
20717.28366
20900.22389
20832.44319
20731.40074
20652.79098
20622.80828
20668.55835
21079.21134
21185.13388
20909.8038
20849.73529
20805.01448
20925.92368
21240.0195
21476.43236
21521.27938
21226.61417
21276.95431
21517.68218
21585.71641
21729.4905
22496.27292
22755.92997
21941.49237
22100.31162
22791.79001
23161.3663
24274.19602
24180.02938
24208.64171
19648.7386
6292.524231
-2494.648778
-3552.623554
-4212.746992
-5351.560692
-5792.719283
)


100
(
66758.12539
59090.54374
47447.29644
41619.46523
38182.61471
35558.49808
33459.80411
32066.85646
30785.32595
29550.71595
29167.80704
28105.41427
26959.01483
26780.37773
26373.54411
25384.54098
24810.80336
24924.54648
24785.72265
23902.02114
23361.98585
23510.8338
23569.81117
23127.85266
22468.71334
22293.44536
22338.29952
22433.31278
22395.50173
21847.46426
21444.44395
21479.35479
21754.26817
22100.62953
21444.253
20682.85574
20874.87313
21186.64767
21317.31126
21373.95307
20896.46292
20474.24272
20602.08432
20662.15668
20933.87811
21419.95933
20842.73448
20058.94789
20358.49997
20795.90434
20976.6066
20902.69946
20487.31644
20209.06235
20247.80146
20527.16493
21186.65868
20837.70376
19941.62179
20350.10174
20921.15793
21010.90464
21126.13028
21105.92332
20853.25526
20648.30499
20649.90248
20551.57191
20604.11767
21020.05654
21241.94894
21200.24888
21173.74063
21101.31903
21325.42187
21504.33659
21294.87372
21200.32336
21264.39142
21449.8175
21938.99959
22007.98613
21566.45499
22055.24062
22479.1202
22200.21235
22478.27077
22657.64869
22971.83925
23282.77329
23754.02743
24773.95881
24241.24159
18777.82207
5942.757711
-2729.113622
-3108.082104
-3883.849426
-4981.3097
-5320.753751
)


100
(
66120.61164
58632.91954
47359.50687
41810.87457
38170.13302
35530.9748
33612.79371
31943.38885
31136.73551
29904.53656
28809.43431
28572.94964
27502.17865
26426.17192
26396.22314
26077.46864
25102.28414
24541.36581
24657.01856
24720.03916
23886.70024
23165.08827
23296.31815
23333.7374
23280.98056
22652.60048
22170.30942
22271.72013
22296.20115
22645.23142
22201.03605
21360.16367
21314.69627
21624.68292
21964.04296
21864.74451
21119.77132
20763.35356
21073.52973
21151.24324
21202.7497
21507.53099
21110.77829
20469.44405
20509.24143
20910.62739
21406.51579
21387.79923
20603.76676
20333.65147
20741.89729
20730.23477
20922.23942
21096.65076
20575.14668
20090.49978
20646.83412
21297.87572
21242.92999
20686.88449
20632.76262
21012.11772
21024.41127
20997.34636
20912.24387
20842.76456
20810.42936
21032.67233
21484.35118
21446.55174
21098.98524
20973.47243
20961.95618
21195.56378
21493.834
21664.60599
21769.62849
21710.38883
21562.79379
21569.3773
21682.08491
21872.98977
22320.22886
22520.71882
22184.00279
22350.29274
23026.43799
23603.37675
23116.57142
23177.51639
24030.07701
23999.06068
25048.73323
18415.08791
3766.231388
-2858.459664
-2642.898975
-3552.666542
-4622.819281
-4889.774474
)


100
(
65435.75793
58175.4397
47322.58606
41675.63192
38147.17716
35552.151
33773.14053
32123.31754
30939.81157
30258.30639
29064.91138
28224.56588
27989.67283
26985.65086
26006.40402
26028.30071
25854.10414
24897.21587
24280.25926
24401.28276
24440.56965
23910.40454
23229.53839
23083.65972
23101.21749
23161.23666
22993.98005
22421.39102
22084.57763
22140.49057
22475.56618
22544.72213
21726.15858
21170.09371
21493.87881
21795.32104
21839.06027
21585.24251
21111.55668
20972.28623
21042.24874
21050.47274
21560.46776
21712.52701
20850.32504
20428.2089
20896.24656
21316.42686
21353.77027
21217.26974
20778.8452
20479.47681
20464.9191
21007.43961
21717.08169
21020.6069
20291.59977
20772.42087
21153.39351
21312.37791
21363.90532
21253.06753
21195.62952
21004.86822
20822.16447
20705.07221
20939.02158
21350.76243
21380.76248
21361.81988
21377.84507
21321.94858
21551.75597
21890.08838
21672.50776
21296.73183
21447.2571
21719.88233
21907.03789
22289.92357
22072.34406
22009.61402
22540.66018
22521.39748
22531.57043
23049.21684
23064.18883
23135.17621
23541.35855
24137.59283
24088.84318
25041.19494
24609.97306
15913.49828
2847.163885
-2773.974647
-2201.612984
-3209.336505
-4217.97222
-4414.262132
)


100
(
64747.12549
57724.61588
47208.76177
41528.1021
38199.94983
35575.26664
33560.20617
32321.41673
31026.40622
30240.18853
29431.07353
28304.19637
27716.82255
27496.82611
26509.5999
25640.29299
25672.82491
25666.8279
24765.70429
24026.06254
24144.2188
24161.85342
23978.0562
23325.74638
22912.48531
22978.04973
23024.22771
23274.21423
22672.80877
21884.08347
21979.3846
22298.97317
22562.55993
22130.80801
21393.49952
21354.11826
21613.61928
21639.41167
21765.41164
21697.63308
21186.59255
20870.46983
20983.9109
21499.59229
21937.22357
21373.80771
20696.91155
20872.25047
21112.82418
21020.1832
21476.04124
21401.80892
20551.83751
20473.91141
21136.13801
21654.99419
21442.45591
21065.61975
21081.09398
21226.32171
21226.70021
21194.8253
21097.55522
21022.02425
20973.98548
21321.16951
21760.88761
21790.30782
21468.13919
21126.37243
21100.24223
21377.57837
21712.04063
21820.08338
21944.98374
21982.36339
22035.39767
21957.56117
21700.50084
21902.72727
22295.67979
22670.10814
22699.97157
22251.66838
22739.10182
23296.12076
23592.10681
23597.95018
23564.73091
23839.25003
24137.39166
24774.08089
24822.67802
15829.17171
1743.130115
-2506.316392
-1768.509824
-2868.661035
-3967.577295
-4221.365495
)


100
(
64321.7112
57405.77826
46860.82044
41377.48553
38101.51914
35600.41487
33607.81539
32359.19003
31236.16795
30079.67398
29587.13601
28703.35352
27596.09522
27233.38366
27088.33486
26122.67173
25290.15828
25332.73623
25335.67359
24690.80956
23982.20393
23891.29738
23884.58118
23899.75361
23560.70938
22977.9512
22758.65707
22831.3316
23159.96702
22957.94552
22108.47306
21815.33194
22122.46771
22341.41728
22370.6726
21877.87539
21390.51177
21431.42976
21454.68295
21659.89856
22206.87233
21700.46355
20778.31941
20936.44649
21445.2559
21739.63166
21770.52525
21323.20369
20824.41656
20785.10736
20797.10923
21559.76363
22063.45675
20963.27574
20583.35842
21248.39501
21502.74952
21618.2546
21591.04667
21494.72093
21473.6519
21257.86259
21023.82347
20890.28792
21196.18896
21608.93629
21576.42033
21555.51649
21531.0462
21449.96947
21601.82474
22130.60053
22085.78601
21610.47294
21627.13138
21880.11298
22026.49448
22340.66152
22671.30181
22290.2282
22523.06076
22949.3694
22427.34195
22710.40388
23442.34691
23202.10063
22959.51105
23667.75971
23912.97794
24414.5018
25249.35398
25373.63217
23864.59838
13964.17194
1197.671249
-2157.256675
-1331.477255
-2459.040328
-3501.01719
-3721.26699
)


100
(
63768.35162
56894.09846
46572.29871
41435.85841
38010.22013
35510.16445
33659.08354
32152.61034
31456.45192
30297.58883
29216.19696
28961.78432
28071.83808
26988.8013
26772.13867
26732.58038
25820.21488
24982.46327
25008.06111
25002.34585
24671.83076
24001.921
23650.98859
23680.77684
23737.11765
23771.49933
23148.84496
22532.18725
22635.63965
22949.40408
23164.01
22464.1564
21763.39001
21945.89101
22129.01528
22133.73103
22366.98573
21925.00006
21256.27145
21263.50329
21555.05513
22086.20208
22255.00919
21348.35732
20869.29211
21388.91862
21472.19532
21368.49817
21875.06591
21492.26813
20566.49533
20895.90256
21657.18852
22084.4221
21522.98912
21144.17075
21410.05316
21477.95935
21462.05044
21406.30053
21319.18135
21261.33327
21216.2307
21558.72286
22004.91888
22056.93646
21695.28087
21331.35206
21298.54314
21480.41252
21783.75091
21873.07267
22009.33991
22148.09948
22108.31211
22388.68373
22299.7853
21945.2751
22249.24313
22784.33005
23035.74399
22702.90206
22375.88373
22905.90803
23264.8288
23603.34111
23835.10576
23585.085
24003.04585
24373.40511
24269.03422
24549.21774
24544.90119
14827.5056
1219.49165
-1836.244714
-920.2343709
-2014.969711
-3133.670344
-3449.698042
)


100
(
63058.29031
56362.55624
46374.83366
41247.87467
37915.85274
35410.01369
33724.87607
32233.9779
31150.62186
30522.50184
29446.86837
28567.3778
28371.0753
27514.34528
26491.04662
26335.80801
26301.27499
25592.94382
24828.09671
24701.50212
24681.53467
24624.67215
24110.86422
23548.48217
23450.98944
23504.30397
23815.93199
23364.66412
22495.74162
22443.63323
22740.61038
22919.09848
22861.45363
22192.74608
21749.46133
21912.20452
21907.18024
22222.39628
22480.47438
21740.45436
21070.3567
21454.9824
21964.89193
22108.71083
21940.95255
21439.81142
21104.50761
21071.48556
21332.93894
22135.01042
22018.55452
20850.07143
20996.84433
21761.41066
21870.48815
21897.87706
21849.53487
21787.20556
21547.11264
21274.5498
21203.08217
21097.54938
21377.68268
21750.84158
21735.5412
21756.29346
21802.70476
21760.85215
21813.1321
22343.98503
22281.99383
21667.88049
21649.91474
21837.58497
22089.7234
22352.10198
22754.37812
22845.65952
22614.45767
22828.65464
22854.58586
22396.87247
22969.98141
23698.55367
23276.91251
22891.60823
23675.09556
23795.84091
24066.26244
24653.11748
25443.36346
25922.34827
23262.05618
13438.32098
1472.416737
-1488.647331
-563.4890738
-1633.986614
-2829.152934
-3166.689479
)


100
(
62359.59286
55834.84832
46174.06189
41022.42593
37840.589
35354.12885
33494.28811
32326.15919
31136.05607
30350.9691
29693.7189
28674.34649
27982.41456
27814.11025
27025.0549
26099.2012
25924.62522
25883.14407
25442.61115
24737.24502
24406.54053
24397.18388
24409.49293
24265.5644
23659.34842
23198.96183
23277.03879