/*--------------------------------*- C++ -*----------------------------------*\
| =========                 |                                                 |
| \\      /  F ield         | OpenFOAM: The Open Source CFD Toolbox           |
|  \\    /   O peration     | Version:  2.3.1                                 |
|   \\  /    A nd           | Web:      www.OpenFOAM.org                      |
|    \\/     M anipulation  |                                                 |
\*---------------------------------------------------------------------------*/
FoamFile
{
    version     2.0;
    format      ascii;
    class       dictionary;
    location    "constant";
    object      GRPSI34;
}
// * * * * * * * * * * * * * * * * * * * * * * * * * * * * * * * * * * * * * //

GRPSI34_table
100
(

100
(
0.0830387461
0.06370988743
0.03515979231
0.02169258233
0.01354956273
0.007784168559
0.003989156995
0.0009317010173
-0.001796268318
-0.003475636517
-0.005645389416
-0.007576398537
-0.007743235114
-0.009448938414
-0.01060818989
-0.01033213936
-0.01173103773
-0.01296522682
-0.01253522846
-0.01338803513
-0.01467764025
-0.01471822362
-0.01472752374
-0.01575305592
-0.01639604093
-0.01600860913
-0.01623317593
-0.0172902343
-0.01773061469
-0.01734917978
-0.0176652186
-0.01838915107
-0.01842060221
-0.01803231929
-0.01807971314
-0.0190395935
-0.01953478329
-0.01911002504
-0.01904714214
-0.01971753145
-0.02003828633
-0.01962029409
-0.01947946523
-0.01989472675
-0.0200336318
-0.01962265203
-0.01927608445
-0.02002154305
-0.02070497683
-0.0203224563
-0.0201340166
-0.02064266716
-0.02099166964
-0.02064480723
-0.02052448402
-0.0207241443
-0.02067181301
-0.02027772485
-0.02019178732
-0.02062560648
-0.02073856493
-0.02031355022
-0.02027321091
-0.02064405737
-0.02061223466
-0.02015129349
-0.02031421825
-0.0206248271
-0.02029296678
-0.02006902286
-0.02030814368
-0.02027639481
-0.01987345056
-0.0200420339
-0.02009623125
-0.01969320682
-0.0197923661
-0.01974393438
-0.01947474474
-0.0194858957
-0.01920011921
-0.01913121753
-0.01899994302
-0.01877903395
-0.01860130077
-0.0183844216
-0.01819063138
-0.01788887657
-0.01769619798
-0.01733434663
-0.01698466325
-0.01669223096
-0.01639756842
-0.01607564085
-0.01569469766
-0.01541377112
-0.01527021866
-0.01516185773
-0.01666906991
-0.01820496344
)


100
(
0.08442412069
0.06529887715
0.03685858044
0.02316919416
0.01517207133
0.009290037777
0.005307878766
0.002297610756
-0.0003807684318
-0.002345322305
-0.004193053006
-0.006106199815
-0.006965599481
-0.007978635548
-0.009244462402
-0.009707622226
-0.01017889255
-0.0113246584
-0.01196388899
-0.01215381313
-0.01293164894
-0.01374819086
-0.01400470735
-0.01417341239
-0.01492330695
-0.01546163629
-0.01538141169
-0.01539899453
-0.01616441956
-0.01682045551
-0.01674229194
-0.01674921272
-0.0172170666
-0.01757062478
-0.01737131301
-0.01718337991
-0.01746816314
-0.01816562388
-0.01836389401
-0.01810976368
-0.01808485184
-0.0185818515
-0.01884536469
-0.01857868349
-0.01837888708
-0.01866413499
-0.0188827052
-0.01859948985
-0.01831166546
-0.01850395617
-0.01918148388
-0.01937750835
-0.01909087965
-0.0191019061
-0.01953820278
-0.01966249
-0.01934542514
-0.01921778796
-0.01933515596
-0.01952973183
-0.01876395965
-0.01816131256
-0.01934947551
-0.01990228818
-0.01837016145
-0.01768020891
-0.01962122559
-0.0193708189
-0.01748791671
-0.01814598541
-0.01931841861
-0.01793970717
-0.01698561479
-0.01911904412
-0.01882636466
-0.01630731772
-0.01770630505
-0.01852152303
-0.01595007767
-0.01717868457
-0.01725464769
-0.01558360762
-0.01727786583
-0.01541113976
-0.01511588808
-0.01632158013
-0.01435550535
-0.01516080273
-0.01458779337
-0.01400707332
-0.01425971854
-0.0141053597
-0.01414100577
-0.01408613269
-0.01402630117
-0.01411947792
-0.01704486874
-0.03306458742
-0.04715996218
-0.04719195404
)


100
(
0.08538368149
0.0666065996
0.03846158362
0.02472094408
0.01670422255
0.01076074612
0.006650309031
0.003555697423
0.0009942715182
-0.001140853901
-0.002921543642
-0.004677892719
-0.005953359142
-0.006836832342
-0.007851466744
-0.008742284422
-0.009271520813
-0.009781216343
-0.01066757943
-0.01140411221
-0.01171457601
-0.01223064901
-0.01296667897
-0.01342595338
-0.01358890442
-0.01403174134
-0.01457702178
-0.01476212273
-0.01475724461
-0.01505017967
-0.01572451482
-0.0160840232
-0.01603678145
-0.01611135709
-0.01648213627
-0.01668074683
-0.01651045744
-0.01629931291
-0.01654734728
-0.01719963518
-0.01737462923
-0.01712790964
-0.01692784066
-0.01740568118
-0.01784160054
-0.01760661039
-0.01735508409
-0.01742861724
-0.01772263036
-0.01769608176
-0.01743329422
-0.01716300955
-0.01779311148
-0.01852718875
-0.01836508434
-0.01751730657
-0.01788478541
-0.01881047032
-0.01849064778
-0.01762232058
-0.01795950178
-0.017896074
-0.01686083444
-0.01765107547
-0.01847440299
-0.01727932219
-0.01601773532
-0.01755282852
-0.01776200783
-0.01609623298
-0.01577380991
-0.01677553483
-0.01677610347
-0.01553304906
-0.01605477488
-0.01764076307
-0.01642308865
-0.01424201122
-0.01538439571
-0.01556136168
-0.01524084435
-0.01441253469
-0.01502257839
-0.01549375179
-0.01328954075
-0.01410476071
-0.01414043951
-0.01300453209
-0.01344459423
-0.01357146652
-0.01319925462
-0.01300758301
-0.01336899715
-0.01314044533
-0.01290859571
-0.01412256523
-0.02290870861
-0.04366234071
-0.05493731165
-0.05347355655
)


100
(
0.08603024566
0.06764701174
0.04009738225
0.02623129742
0.01798699965
0.0121799764
0.007996928057
0.004799320827
0.002301818811
0.0001105484387
-0.001723599203
-0.003329036001
-0.004756375055
-0.005862017053
-0.006646672062
-0.007508475954
-0.008336310495
-0.008857934285
-0.009249650052
-0.01010191631
-0.01091504011
-0.01119214039
-0.01150709134
-0.0122357688
-0.01284273043
-0.01297015297
-0.01316481814
-0.01371052145
-0.01412487576
-0.01411963443
-0.01408658198
-0.0146192999
-0.01527755983
-0.01535067529
-0.01526073143
-0.01536925032
-0.01571996922
-0.01583653897
-0.0156352162
-0.01537675941
-0.01556421341
-0.01628920542
-0.0165936278
-0.01635762487
-0.01585646701
-0.01631513449
-0.01705284345
-0.01681956739
-0.01585437659
-0.0161340105
-0.01716223505
-0.01693305335
-0.01601693378
-0.01625864807
-0.01759458832
-0.01748876675
-0.01576513268
-0.01570021686
-0.01749864493
-0.01717804726
-0.0157600514
-0.01629977282
-0.01677786351
-0.01604822318
-0.01602692022
-0.01648092639
-0.01614203132
-0.01527484923
-0.01512963126
-0.01570324531
-0.01599509947
-0.01556383254
-0.01499599843
-0.01452558924
-0.01489441946
-0.01597782751
-0.01467313595
-0.01278525439
-0.01506046873
-0.01523429304
-0.01288959996
-0.01375325524
-0.01388073336
-0.01284054941
-0.01283747133
-0.01309492883
-0.01311077262
-0.01282495031
-0.01264746996
-0.01240385989
-0.01223789197
-0.01232957518
-0.01194512314
-0.01183481138
-0.01225573447
-0.01330123102
-0.02927538011
-0.05194192583
-0.05854400618
-0.05744538635
)


100
(
0.08664034456
0.0686168649
0.04144866918
0.02749112866
0.01935257804
0.01355113272
0.009267164749
0.00603803058
0.003495079118
0.001366058106
-0.0005335221161
-0.002152315337
-0.003500376857
-0.004731001661
-0.005696559966
-0.006354310897
-0.007139198786
-0.007939536807
-0.008426077517
-0.008790371845
-0.009557622157
-0.01034320208
-0.01065402641
-0.01085807626
-0.01150599519
-0.01219582116
-0.01237447976
-0.01243707848
-0.01282781974
-0.01335277264
-0.01350801297
-0.01346202631
-0.01349791651
-0.01418595752
-0.01478788619
-0.01469880593
-0.01427247112
-0.01457429525
-0.01521900929
-0.015076191
-0.01469894293
-0.01446565627
-0.01524472978
-0.01592341245
-0.01532776896
-0.0140158954
-0.01484304599
-0.01640663945
-0.01567734288
-0.01429126474
-0.01484628277
-0.01629388547
-0.01581201954
-0.01473360958
-0.01525168645
-0.01652604033
-0.01555824427
-0.01410746679
-0.01452630949
-0.01557321308
-0.0155477043
-0.01485454615
-0.01497090809
-0.01558649983
-0.01572289145
-0.01539422522
-0.01480638435
-0.01476623525
-0.01504554461
-0.01475554985
-0.01437220054
-0.01407478466
-0.01455514874
-0.01515797421
-0.01374797812
-0.01222792138
-0.01353848729
-0.01416666653
-0.01286722263
-0.01221775564
-0.01239430431
-0.01317093539
-0.01317591109
-0.01241780551
-0.01239261674
-0.01198177975
-0.01158112748
-0.01186717899
-0.01221250489
-0.01179191477
-0.01076888925
-0.01119353672
-0.01109077791
-0.01059472598
-0.01099401082
-0.01393137256
-0.0358211825
-0.05832185326
-0.06094465291
-0.06011047778
)


100
(
0.08696412706
0.06933977017
0.04263634449
0.02870104988
0.0206784934
0.01485452076
0.01049681198
0.007281159916
0.004662813824
0.002565296076
0.0006763835838
-0.0009909199687
-0.002374387662
-0.003544047213
-0.004625555171
-0.005452673731
-0.00602866402
-0.006748753913
-0.00751816576
-0.008009884921
-0.008357204297
-0.008974740317
-0.009718278783
-0.01012493597
-0.01034077171
-0.01079003018
-0.0114669926
-0.01186862798
-0.0119403142
-0.01200546375
-0.01252504546
-0.01299761615
-0.01293856916
-0.0126176858
-0.01325584734
-0.01414245355
-0.01401942119
-0.01290163887
-0.01316257872
-0.01447958221
-0.0143829538
-0.01352154423
-0.01329598544
-0.01457048353
-0.01519510802
-0.0136911404
-0.01225516099
-0.01398447174
-0.01547549004
-0.01416564559
-0.01307711287
-0.01392379915
-0.01490223428
-0.01445357593
-0.01385547472
-0.01414397766
-0.01429467364
-0.01422691272
-0.0142861075
-0.01389087053
-0.01381581277
-0.01451013317
-0.01488088898
-0.01433377084
-0.0136636846
-0.01377999058
-0.01438125335
-0.01421404531
-0.01367763167
-0.0133129627
-0.01360714967
-0.0140438333
-0.01379340096
-0.0129606062
-0.01326050562
-0.01312299923
-0.01202750641
-0.0117508948
-0.01193527485
-0.01278055878
-0.01261046238
-0.01109934804
-0.0111872429
-0.01173899797
-0.01127548261
-0.0114372935
-0.01139791248
-0.01089003399
-0.01050590012
-0.01072409782
-0.01046705001
-0.01006206552
-0.00975665526
-0.009384592976
-0.009895449431
-0.01796949494
-0.04202706497
-0.06085679845
-0.06247083508
-0.06168830667
)


100
(
0.08755898513
0.0701147185
0.0436755979
0.03002831653
0.02195442857
0.01603540642
0.01169689422
0.008447910341
0.005817927596
0.003669040589
0.001849816395
0.0001754753151
-0.001264902533
-0.002453945149
-0.003486071804
-0.004441581175
-0.005167349783
-0.005684006645
-0.006323667688
-0.007071736606
-0.007591153249
-0.007901520035
-0.008335237254
-0.009051597466
-0.009608274451
-0.009869713313
-0.01038328094
-0.01109687546
-0.01140364702
-0.01121213515
-0.01100835283
-0.01168211208
-0.01239181833
-0.01209498146
-0.01161026272
-0.01245985856
-0.01348187815
-0.012781029
-0.01154585312
-0.01228408698
-0.01369485129
-0.01331965458
-0.01234154634
-0.01247189252
-0.01388899781
-0.01357412885
-0.01208985209
-0.01164550308
-0.01303070973
-0.01368275957
-0.01272839658
-0.01247057235
-0.01276006309
-0.01359844128
-0.01393146567
-0.01372364221
-0.01337243291
-0.01319284181
-0.01353711813
-0.01372102241
-0.01330546453
-0.01274330235
-0.01235673164
-0.01300097055
-0.0135297629
-0.01305312598
-0.01289026726
-0.01259015709
-0.01280658771
-0.01340742456
-0.01308523924
-0.0122419314
-0.01211530377
-0.01256074128
-0.01220192952
-0.0120104493
-0.01188928788
-0.01185460806
-0.01175677849
-0.01087245183
-0.01084630558
-0.0110098148
-0.01060079235
-0.0105255012
-0.01049096871
-0.01016678016
-0.01027569182
-0.0104364718
-0.009800837747
-0.009342840394
-0.009518984017
-0.009201955391
-0.008522079385
-0.008173010546
-0.008289927827
-0.02129938131
-0.04753762905
-0.06189981582
-0.06298462395
-0.06320543159
)


100
(
0.08818331903
0.07084961757
0.04471922912
0.0312633755
0.0230535991
0.01720618132
0.01286929228
0.009546532478
0.007011292466
0.00476679387
0.002936899616
0.001317778377
-0.0001485038253
-0.00139924434
-0.002427443953
-0.003334638563
-0.004191882068
-0.004852023267
-0.005317195209
-0.005861258394
-0.006587903421
-0.007143254678
-0.007411331115
-0.007665385602
-0.008364758298
-0.009088538503
-0.009428133767
-0.01006099449
-0.01074491355
-0.01087286976
-0.01015607685
-0.01000046724
-0.01112666216
-0.01175538784
-0.01103222384
-0.01059118653
-0.01184693176
-0.01264860596
-0.01145047358
-0.01039007341
-0.01148506844
-0.01271000591
-0.01211865748
-0.01132881563
-0.01175676055
-0.01240554628
-0.01196132571
-0.0112915422
-0.01122580348
-0.01175875563
-0.01252460343
-0.01276345851
-0.01260233561
-0.01214004528
-0.01166668233
-0.01240895427
-0.01316801544
-0.01280283685
-0.0123475001
-0.01207858719
-0.01245331852
-0.01259662298
-0.0121052007
-0.01198233544
-0.01181920738
-0.01174299127
-0.01236422248
-0.0127298061
-0.01177537919
-0.01078277052
-0.01125178359
-0.01174947436
-0.01170026398
-0.01165609403
-0.01127928505
-0.01159627599
-0.01138007668
-0.01018789794
-0.01015741709
-0.01062076453
-0.01050006146
-0.01020160228
-0.009973659031
-0.009646814474
-0.009272936681
-0.009253354606
-0.00939463934
-0.009512778007
-0.008911766567
-0.008041883176
-0.00818819091
-0.008109692667
-0.007531591523
-0.006957642716
-0.007384743332
-0.02488382223
-0.05137657915
-0.06199764135
-0.06287547722
-0.06290510378
)


100
(
0.08854073258
0.0714471426
0.04572009817
0.03231214833
0.02413751897
0.01832669183
0.01400315584
0.01063254224
0.008060161341
0.00586201961
0.003970760508
0.002408156092
0.0009714501722
-0.0003214764393
-0.001420929069
-0.002308781684
-0.003098706727
-0.003884917321
-0.004508269574
-0.004927249921
-0.005365221298
-0.0060762313
-0.00669219618
-0.006937293045
-0.00710938809
-0.007667217384
-0.008458559082
-0.008992067037
-0.009729090163
-0.01035569952
-0.01011324653
-0.009088222044
-0.009175765823
-0.01054307697
-0.01079245881
-0.009956952143
-0.009861681011
-0.01121312146
-0.01133587142
-0.0101383344
-0.009731795466
-0.01066021039
-0.01137288886
-0.01093313536
-0.0106609491
-0.01073924472
-0.0112206224
-0.01147513
-0.01134656713
-0.01115801258
-0.01087574095
-0.01099983794
-0.01172293703
-0.01208905109
-0.01157982249
-0.01099994942
-0.01078675004
-0.01128611342
-0.01187786307
-0.01172635847
-0.01167954096
-0.0115152604
-0.01122441483
-0.01146269115
-0.01160105421
-0.01110877233
-0.0105108032
-0.01060730158
-0.01109837794
-0.01086874846
-0.01064757832
-0.01031555783
-0.01043600339
-0.01133262356
-0.01058741379
-0.00936923066
-0.009649431147
-0.01018485525
-0.01003912931
-0.009739553856
-0.009558708967
-0.009304077422
-0.008997851559
-0.008934920043
-0.008965931795
-0.008711466212
-0.008379578511
-0.008073939237
-0.007942124675
-0.007894274105
-0.007443964049
-0.006697443393
-0.005913540539
-0.005790172983
-0.007225905289
-0.02782520711
-0.05393389736
-0.06164818525
-0.06280898815
-0.06294956573
)


100
(
0.08880205482
0.0719452434
0.04649482468
0.03314479541
0.02522494024
0.01939731681
0.01503713991
0.01172970894
0.009069825881
0.006976838681
0.005001712043
0.003389975811
0.002042612408
0.0007819537106
-0.0003678564964
-0.001345757869
-0.002109873965
-0.002790050493
-0.003535697725
-0.004162115638
-0.004550330083
-0.004875589731
-0.005554920948
-0.006240547166
-0.006489214516
-0.006626205891
-0.006962887166
-0.007757512106
-0.008524154354
-0.009333250632
-0.009888412873
-0.009077177149
-0.008028500273
-0.008584759852
-0.009887489217
-0.009711398558
-0.008924930189
-0.009216312352
-0.01009551204
-0.01000489469
-0.009300671256
-0.009108644828
-0.009603491033
-0.01044633714
-0.01066587332
-0.01052731802
-0.01021116073
-0.009914385153
-0.01033944449
-0.01079330751
-0.01065673766
-0.01037655417
-0.01012728662
-0.01021220745
-0.01083920653
-0.01094045707
-0.01046221159
-0.01035996168
-0.01021982018
-0.01028095566
-0.01094603657
-0.0113071521
-0.01066414422
-0.009876605752
-0.009932153429
-0.01045111333
-0.01033985074
-0.01007802027
-0.009961136416
-0.009642010996
-0.01000903958
-0.01015308501
-0.009264407771
-0.008720762319
-0.009230883993
-0.009625390305
-0.009345154774
-0.009151049255
-0.009062051188
-0.008828571056
-0.008527460542
-0.008629204958
-0.00876056108
-0.00841319625
-0.008026508592
-0.007656098243
-0.007059334968
-0.007081912698
-0.007133302203
-0.006670813982
-0.006235534726
-0.005866259862
-0.005138238648
-0.00502461879
-0.007912484753
-0.03154226632
-0.05628959619
-0.0610097763
-0.06270469221
-0.0631367948
)


100
(
0.08879878123
0.07223366808
0.04712866179
0.03405786909
0.0262407729
0.02038006561
0.01602619992
0.01278915695
0.01007814602
0.007924139602
0.006089327463
0.004377777872
0.002994533564
0.001816026825
0.000723576795
-0.0003099187801
-0.001193360241
-0.00186229825
-0.002451727465
-0.003180046844
-0.003831736495
-0.004194876591
-0.004480901876
-0.005023656855
-0.005698164246
-0.006052764721
-0.006166160236
-0.006311310868
-0.007023970363
-0.007923957216
-0.008829291086
-0.00905337309
-0.007996178168
-0.007260697337
-0.00798259627
-0.008833266869
-0.008633222452
-0.008293210713
-0.008434689331
-0.008912388456
-0.009244029922
-0.009233021504
-0.009083689034
-0.008813082747
-0.009083786494
-0.009795861435
-0.009999638115
-0.009644660294
-0.009198359182
-0.009041165785
-0.009586851446
-0.01006912121
-0.009854724536
-0.009619572928
-0.009488539482
-0.009326159067
-0.009691711492
-0.01014243616
-0.00998443658
-0.009538476438
-0.009020124297
-0.009345954023
-0.01008645642
-0.009821319565
-0.009179277331
-0.009290015816
-0.009376066514
-0.00964887243
-0.009947042469
-0.00883431897
-0.007720846298
-0.008398817539
-0.008908023815
-0.008582193819
-0.008410407033
-0.008393209798
-0.008455458371
-0.008225073198
-0.008062443714
-0.008229862974
-0.008232559302
-0.00796640154
-0.007730146087
-0.007400029391
-0.007011773751
-0.007065447428
-0.006915148157
-0.006305830035
-0.005949990025
-0.005587134472
-0.005108342132
-0.004479382522
-0.003938826074
-0.003487022946
-0.01092187392
-0.03770421191
-0.05771455153
-0.06028324264
-0.06216469043
-0.06241248397
)


100
(
0.08885441786
0.07248245735
0.04766398941
0.03493071626
0.02715031775
0.02133397646
0.01697473008
0.01371081262
0.01117989877
0.008881670556
0.007049388447
0.005398866997
0.003938677275
0.002753299789
0.001717670359
0.0007565432805
-0.000186693056
-0.0009991240595
-0.001600508312
-0.002116401588
-0.002824043089
-0.003498534787
-0.003848036155
-0.004100594913
-0.004485064191
-0.005135636505
-0.005612775563
-0.005730244916
-0.005849482193
-0.006270634723
-0.007129622776
-0.008237801383
-0.00792640675
-0.006869936891
-0.006667414098
-0.007157478955
-0.007794196879
-0.008022668364
-0.008096903881
-0.007948808101
-0.008066091524
-0.008510448902
-0.008705619913
-0.008579490439
-0.008260377157
-0.008005973841
-0.008462865299
-0.009184562536
-0.009074919033
-0.008647713517
-0.008489449033
-0.008367141482
-0.008745633196
-0.009284092858
-0.009324386263
-0.009140270696
-0.008491535726
-0.008017757478
-0.008773580377
-0.009331057196
-0.008872121957
-0.00842001021
-0.008290192583
-0.008583568861
-0.009145776141
-0.009311168823
-0.008525472345
-0.007592554291
-0.008405473954
-0.008613475453
-0.007596361785
-0.007547216143
-0.007637255631
-0.007602548455
-0.007456207842
-0.007355301383
-0.007632782314
-0.007880518429
-0.007702137006
-0.007373973752
-0.007064690928
-0.006747789461
-0.006588868769
-0.006781137826
-0.006682089778
-0.00634361002
-0.005650826157
-0.005321598034
-0.005062559097
-0.004246331763
-0.003927348477
-0.003354752718
-0.002645381641
-0.002156296379
-0.01599755714
-0.04495383288
-0.05823072293
-0.05904857681
-0.06179956929
-0.06216965342
)


100
(
0.0889814173
0.07272281756
0.04831585212
0.03570319135
0.02787696401
0.02221782066
0.01796398661
0.01460107873
0.01210190445
0.00987629875
0.007952368873
0.006389364486
0.004912984726
0.00365345517
0.00261563139
0.001692789032
0.0008350295944
-2.466547307e-05
-0.0007810827129
-0.001340699192
-0.001826623985
-0.002457227187
-0.003109339707
-0.003500581907
-0.003729770386
-0.00398049571
-0.004551106718
-0.005117823619
-0.005300264054
-0.005400177529
-0.00560128725
-0.006207764989
-0.006921085432
-0.00678620416
-0.006377677875
-0.006427095681
-0.006550456635
-0.007084031783
-0.007594852141
-0.00758899824
-0.007386353014
-0.00712576835
-0.007437723226
-0.00798488519
-0.008034592448
-0.007754206292
-0.007504286527
-0.007399916302
-0.007715790372
-0.008124726167
-0.008310597189
-0.008356699466
-0.00804373559
-0.00739267594
-0.007758973124
-0.008632158497
-0.008422655957
-0.007792784304
-0.007371035663
-0.007279764768
-0.007896286839
-0.008599768308
-0.00856099164
-0.007846863038
-0.006922153229
-0.007684177348
-0.008345285533
-0.007433164766
-0.0068760925
-0.006962222851
-0.007222145309
-0.007313580528
-0.007208514218
-0.007088921563
-0.007034980897
-0.006764175135
-0.006368889206
-0.006362361698
-0.00641783272
-0.006217920466
-0.006352283058
-0.006429231546
-0.006068940736
-0.005641762525
-0.005210797361
-0.005366866116
-0.005307591645
-0.00434039994
-0.003541477847
-0.003079885284
-0.002840397728
-0.002249982778
-0.00132062418
-0.002481165302
-0.02197002828
-0.04923704104
-0.05771420031
-0.05854383821
-0.06067760349
-0.06115022573
)


100
(
0.08888740894
0.07290944489
0.04883737997
0.03623852998
0.02866132807
0.02304035779
0.01879778085
0.01550126335
0.01293871319
0.0109168204
0.008871578531
0.007247655378
0.005900226261
0.004574582249
0.003469070959
0.002544716472
0.001712121394
0.0009415011666
0.0001658530656
-0.0005460321561
-0.001087283242
-0.001537760584
-0.002068338313
-0.002696300167
-0.003147239026
-0.003372292926
-0.003587111526
-0.003946133318
-0.004487380137
-0.004849105807
-0.004956564682
-0.005083580994
-0.00524733439
-0.00571423471
-0.006117767286
-0.006124055059
-0.00607575083
-0.005927925425
-0.006074169293
-0.006697239145
-0.007060599711
-0.006856236214
-0.006566910513
-0.006485900898
-0.006864066272
-0.007272605522
-0.007191431075
-0.007016327353
-0.006994352478
-0.006848917239
-0.00704799597
-0.00764538437
-0.007819033322
-0.007324656742
-0.006646402115
-0.006398951802
-0.007192759726
-0.007600751226
-0.0071840311
-0.007354893827
-0.007084388269
-0.006725299645
-0.007423612984
-0.007757635211
-0.006759468204
-0.005924774862
-0.006103036959
-0.006661391719
-0.006837724569
-0.006628792266
-0.006467005355
-0.006511264147
-0.00649323985
-0.006248535755
-0.00593782368
-0.005608678858
-0.005674266508
-0.005808465084
-0.005844518534
-0.005789475341
-0.005411023912
-0.00497151684
-0.004577913642
-0.004950107867
-0.005233212966
-0.004423100435
-0.003602695427
-0.00308511753
-0.00295208886
-0.002625995212
-0.001917646661
-0.0009813849731
-0.0005848321346
-0.003157263244
-0.02550117393
-0.05125313486
-0.05650277298
-0.05767600006
-0.06000911469
-0.06072795326
)


100
(
0.08863631811
0.07294540343
0.04920068767
0.03676657834
0.02936206995
0.02380033083
0.01957261439
0.01642927261
0.01375163625
0.01170845209
0.009927109545
0.008126714694
0.00670545713
0.005507893841
0.004343270603
0.003357364467
0.002522278069
0.001766091583
0.001073408291
0.0003803002274
-0.0002958840004
-0.0008308316934
-0.001244343927
-0.001664741539
-0.002258527824
-0.002774374859
-0.003013537082
-0.003198595777
-0.003396002633
-0.003808757598
-0.004273176428
-0.004523491263
-0.004650833253
-0.004679970477
-0.004753314499
-0.005201259731
-0.005606188225
-0.00561394771
-0.005436025981
-0.005291883641
-0.005660446682
-0.006267552614
-0.006312217349
-0.006048808802
-0.005940661436
-0.005870595856
-0.006156935468
-0.006600064636
-0.006697085058
-0.006579215094
-0.006185416181
-0.005809773543
-0.006470127529
-0.007167965947
-0.006647363728
-0.006050937209
-0.005871436448
-0.005953166852
-0.006684212177
-0.007227335303
-0.007024353298
-0.006034802534
-0.005133552922
-0.006086289318
-0.006489208074
-0.005755231323
-0.005667002133
-0.005623249493
-0.005673707661
-0.005697660663
-0.005499656597
-0.005397244873
-0.005678114589
-0.005831024032
-0.005570201276
-0.005292694665
-0.005058165861
-0.004836118751
-0.004554029356
-0.004231738559
-0.004548692401
-0.004742182884
-0.00441925138
-0.00395931393
-0.003199244536
-0.00326851174
-0.003340282793
-0.002785259318
-0.002104238122
-0.001457512413
-0.0008514225341
-0.0001163012817
0.000913027541
-0.002884267407
-0.02840293919
-0.05247942822
-0.05532295406
-0.05646400154
-0.05868847729
-0.059543621
)


100
(
0.08816280839
0.0728062493
0.04944960175
0.03733966777
0.02997865692
0.02448507241
0.0202953842
0.01716053766
0.01470740399
0.0124928482
0.01075094189
0.009099596945
0.007524838207
0.006287131029
0.005226409043
0.004193585563
0.003303632049
0.002542002069
0.001852858162
0.001229451223
0.0006146607347
-3.028155975e-05
-0.0005669912766
-0.0009520990468
-0.001321741651
-0.00178992072
-0.002293443099
-0.002623059755
-0.002797428289
-0.002950197787
-0.003136245414
-0.003601738501
-0.004051976895
-0.004177899477
-0.004150943992
-0.004028216915
-0.004306422989
-0.0048865317
-0.005112901772
-0.004966903647
-0.004808898609
-0.00478979387
-0.005152908927
-0.005511736471
-0.005565742485
-0.005607524042
-0.005516637402
-0.005118258411
-0.005375431779
-0.006037724231
-0.006028660791
-0.005623701502
-0.005264750152
-0.005290717205
-0.005752105154
-0.006039502249
-0.00598915913
-0.005921513814
-0.005286607658
-0.00528222691
-0.006187628502
-0.005983445821
-0.005015029532
-0.004535251687
-0.004629182415
-0.00503836709
-0.005292028298
-0.005249927875
-0.005106190111
-0.005150329004
-0.005139116179
-0.004827508108
-0.0045142116
-0.0044329188
-0.004364993749
-0.00414707327
-0.004336877774
-0.004536684459
-0.004271105632
-0.003900425467
-0.003552129663
-0.00328960398
-0.003070305028
-0.003217334831
-0.002924991132
-0.002245471712
-0.001995392674
-0.001734592425
-0.001615865254
-0.0007149118834
0.000544436059
0.001054303517
0.001689941968
-0.004706110111
-0.03008838341
-0.05177286721
-0.05423515905
-0.05506365938
-0.05734379835
-0.05811126282
)


100
(
0.08775262113
0.07264378232
0.04973065388
0.03782411301
0.03045244801
0.02508749469
0.02108642108
0.01784739627
0.01547504104
0.01334603369
0.01148589317
0.009954976083
0.008428876343
0.00705104291
0.005972143771
0.005028513662
0.004109290328
0.003300482987
0.002600227794
0.001968631437
0.00140358317
0.0008624265333
0.0002576895656
-0.0002802601346
-0.0006530976619
-0.0009741983844
-0.001291046769
-0.001752271351
-0.002192087879
-0.002412363028
-0.002538876176
-0.002598785814
-0.002870443596
-0.003392101226
-0.003716152383
-0.003687435626
-0.003537608654
-0.003523296873
-0.003968864106
-0.004462240845
-0.004473131133
-0.004346465471
-0.004288353576
-0.004283006049
-0.004546347127
-0.004967020391
-0.005116312126
-0.004914565186
-0.004479810642
-0.004256328562
-0.004907411739
-0.005387905931
-0.005063669998
-0.004825238163
-0.004928333251
-0.004851690418
-0.005088795272
-0.005532217577
-0.005155550245
-0.004455644271
-0.004102144834
-0.004760212548
-0.004918978843
-0.004448117107
-0.004386385728
-0.004277792733
-0.004370310773
-0.004416174514
-0.004260223716
-0.004035889776
-0.003822397859
-0.003976108144
-0.004121094888
-0.003966358074
-0.003898897612
-0.003814141046
-0.003654063062
-0.003195170537
-0.002679985331
-0.002875081061
-0.003303939623
-0.003305095444
-0.002486172873
-0.001519842921
-0.001136827395
-0.001354622001
-0.00157080808
-0.001012951232
-0.0005563916483
-8.423637048e-05
0.001258612573
0.002161718034
0.00228282183
-0.006783598216
-0.03169011505
-0.05018989613
-0.05301308798
-0.05426326188
-0.05618359391
-0.05689265002
)


100
(
0.08729262655
0.07244700586
0.04999908685
0.03819270958
0.03097423819
0.02561803115
0.02166964569
0.0185404669
0.01613416842
0.0142380113
0.01222848399
0.0106347844
0.009311446083
0.007896925586
0.006681342014
0.005738309594
0.004895792692
0.00407926351
0.003341004408
0.002691197172
0.002108500759
0.001586529342
0.001099892154
0.0005782551486
6.675428878e-05
-0.0003284879865
-0.0006140355896
-0.00088167837
-0.001195890122
-0.001624724007
-0.001981598684
-0.002127514302
-0.002145791624
-0.002185180072
-0.002670469527
-0.003208690941
-0.003242976084
-0.00310262842
-0.003049949626
-0.003088909896
-0.003470097389
-0.003908098142
-0.00403051607
-0.004007529049
-0.003725522613
-0.003346521302
-0.003864529583
-0.004559646865
-0.004346357849
-0.003930864148
-0.003725790977
-0.003771947282
-0.004273464456
-0.004755815119
-0.004756732741
-0.004365498353
-0.003673992306
-0.003950675993
-0.004711587248
-0.004315033017
-0.003650310262
-0.00350018136
-0.003582120314
-0.003702759498
-0.003849327962
-0.003910185573
-0.003781066094
-0.003825777144
-0.003822678231
-0.003512605813
-0.003200795922
-0.003093552214
-0.003043678631
-0.00286773436
-0.002620800578
-0.002897233912
-0.003246249401
-0.002984241363
-0.002502004866
-0.002095597496
-0.001714004859
-0.00172768403
-0.001914836008
-0.001335804847
-0.0006563707324
-0.0004129849356
-0.0002857760678
8.329921713e-05
0.0005481969666
0.0009194496857
0.001849793846
0.003095325928
0.00352919472
-0.007600497845
-0.03444131627
-0.05095965578
-0.05147902118
-0.05302233268
-0.05517708823
-0.05558837203
)


100
(
0.0867187868
0.0721795452
0.05013257357
0.03842989654
0.03141127505
0.02615231907
0.02218062639
0.01927043484
0.01675540542
0.01485666417
0.01315000273
0.01131208514
0.009926569878
0.008766988943
0.007486193871
0.006398573895
0.00556778934
0.004820517997
0.004091973789
0.003412935492
0.002813729797
0.002277268813
0.001782768644
0.001354871089
0.000933917314
0.0004635417707
3.378822464e-05
-0.0002609998698
-0.000481675909
-0.0006368543268
-0.001026741278
-0.001516623049
-0.001733944348
-0.001742850296
-0.001737906562
-0.001945927978
-0.002463667727
-0.002754499052
-0.002665849433
-0.002616460271
-0.002654744927
-0.002666359077
-0.003044912928
-0.003517281704
-0.003524342595
-0.003149652557
-0.002724160831
-0.002778223172
-0.003459358261
-0.003729319556
-0.003394330739
-0.003506778646
-0.003455152104
-0.003264462334
-0.003765691083
-0.004198133495
-0.00356709579
-0.002840031303
-0.002792972002
-0.003249202632
-0.003477713252
-0.003246296328
-0.003099526757
-0.003059066135
-0.00318403446
-0.003229012362
-0.003059264345
-0.002793368727
-0.002581329379
-0.00264132057
-0.002747748375
-0.002667897568
-0.002594785928
-0.002439071217
-0.002125597064
-0.001917314996
-0.001814350239
-0.00166978155
-0.001764890028
-0.001742533151
-0.001372234479
-0.001006930659
-0.0004871104248
-0.0002411490706
-0.0003160832256
0.0001349171169
0.000914439309
0.001449124257
0.00136518558
0.001986179113
0.0029066421
0.003642467156
0.00393388282
-0.009673347752
-0.03723471781
-0.05096050588
-0.05010538832