/*--------------------------------*- C++ -*----------------------------------*\
| =========                 |                                                 |
| \\      /  F ield         | OpenFOAM: The Open Source CFD Toolbox           |
|  \\    /   O peration     | Version:  2.3.1                                 |
|   \\  /    A nd           | Web:      www.OpenFOAM.org                      |
|    \\/     M anipulation  |                                                 |
\*---------------------------------------------------------------------------*/
FoamFile
{
    version     2.0;
    format      ascii;
    class       dictionary;
    location    "constant";
    object      GRPSI37;
}
// * * * * * * * * * * * * * * * * * * * * * * * * * * * * * * * * * * * * * //

GRPSI37_table
100
(

100
(
0.0001084219974
9.362820029e-05
6.757376582e-05
5.003450861e-05
3.730812337e-05
2.726913337e-05
2.023272818e-05
1.456054448e-05
9.499734416e-06
6.223417255e-06
2.373873214e-06
-1.074881566e-06
-1.708215336e-06
-4.155918808e-06
-5.908107808e-06
-5.860467987e-06
-7.551072828e-06
-9.042954761e-06
-8.750313934e-06
-9.487667333e-06
-1.057769042e-05
-1.064809219e-05
-1.064164087e-05
-1.133428785e-05
-1.176493706e-05
-1.14864194e-05
-1.151042392e-05
-1.1950854e-05
-1.209098521e-05
-1.182796849e-05
-1.172948687e-05
-1.17295082e-05
-1.157641818e-05
-1.132954322e-05
-1.126455172e-05
-1.157328115e-05
-1.169197589e-05
-1.143536083e-05
-1.120706085e-05
-1.103400826e-05
-1.08415324e-05
-1.060088163e-05
-1.036190511e-05
-1.012127204e-05
-9.894991382e-06
-9.687660279e-06
-9.49500583e-06
-9.402850072e-06
-9.311698433e-06
-9.136739173e-06
-8.934428274e-06
-8.603366768e-06
-8.318804475e-06
-8.167709953e-06
-7.925670161e-06
-7.603298784e-06
-7.308189114e-06
-6.934545368e-06
-6.585766648e-06
-6.568773444e-06
-6.433839888e-06
-5.984562829e-06
-5.794547176e-06
-5.858564577e-06
-5.667282761e-06
-5.237737269e-06
-5.134060444e-06
-5.120065487e-06
-4.774785788e-06
-4.476862215e-06
-4.459506098e-06
-4.278805796e-06
-3.890168271e-06
-3.852172251e-06
-3.738556806e-06
-3.34619097e-06
-3.302774176e-06
-3.152182151e-06
-2.850187767e-06
-2.759048414e-06
-2.463420539e-06
-2.325515894e-06
-2.164885458e-06
-1.943610933e-06
-1.781702258e-06
-1.595345209e-06
-1.455574755e-06
-1.287521934e-06
-1.222718201e-06
-1.108338604e-06
-9.839219315e-07
-8.498884536e-07
-7.463874072e-07
-6.470192221e-07
-5.284350601e-07
-3.898323085e-07
-2.94910666e-07
-3.358938066e-07
-4.913840228e-07
-5.980652401e-07
)


100
(
0.0001029311243
9.036485525e-05
6.730016036e-05
5.088626704e-05
3.923421552e-05
2.907202843e-05
2.190182411e-05
1.640342924e-05
1.141548008e-05
7.874203376e-06
4.259622082e-06
8.7070516e-07
-9.087988673e-07
-2.76769945e-06
-4.52146248e-06
-5.357781199e-06
-6.384909055e-06
-7.66328725e-06
-8.292289212e-06
-8.763043943e-06
-9.458992653e-06
-9.987950713e-06
-1.023072001e-05
-1.047136819e-05
-1.086975609e-05
-1.111767e-05
-1.11411409e-05
-1.114141938e-05
-1.13689811e-05
-1.155547229e-05
-1.142412279e-05
-1.121436269e-05
-1.116315711e-05
-1.116282946e-05
-1.100870399e-05
-1.08222399e-05
-1.077255306e-05
-1.092520119e-05
-1.089833452e-05
-1.057044527e-05
-1.022063152e-05
-1.018735521e-05
-1.022427907e-05
-1.003171807e-05
-9.698557441e-06
-9.526573514e-06
-9.456673468e-06
-9.21002025e-06
-8.76902805e-06
-8.308259785e-06
-8.083497472e-06
-7.948350066e-06
-7.811124995e-06
-7.662834049e-06
-7.707358401e-06
-7.679184107e-06
-6.81873098e-06
-4.127716748e-06
2.317488764e-06
1.012827198e-05
2.335520671e-06
-1.448900333e-05
-1.118954042e-05
3.366526782e-06
2.71105644e-07
-1.202174719e-05
-5.93166351e-06
3.496430816e-06
-4.246543271e-06
-1.023740738e-05
-1.866474033e-06
5.192772678e-07
-7.044545874e-06
2.882228594e-06
1.266865276e-05
-8.869061596e-06
-1.027649336e-05
6.73056256e-06
-9.49533855e-06
-6.259159946e-06
2.212662544e-06
-8.248838184e-06
3.871775289e-06
-3.10250471e-06
-6.589207822e-06
6.281806681e-06
-4.40152625e-06
1.019813233e-06
1.461799878e-06
-2.175634211e-06
2.788218475e-06
5.083732994e-06
6.354918765e-06
6.179753995e-06
4.395966072e-06
2.387840502e-07
-1.065287407e-06
-2.605470399e-05
-3.981575488e-05
-3.327807934e-05
)


100
(
9.740359006e-05
8.683389018e-05
6.653366083e-05
5.168097474e-05
4.072734964e-05
3.081372009e-05
2.346801215e-05
1.789992928e-05
1.311314881e-05
9.324250424e-06
5.993040659e-06
2.63179128e-06
3.896634029e-07
-1.51496289e-06
-3.213773215e-06
-4.349886694e-06
-5.305056704e-06
-6.301312169e-06
-7.155026486e-06
-7.836196096e-06
-8.382389541e-06
-8.841424619e-06
-9.312886277e-06
-9.695408023e-06
-9.850873527e-06
-9.991376561e-06
-1.024910311e-05
-1.048583157e-05
-1.054582176e-05
-1.050565928e-05
-1.059841757e-05
-1.059541099e-05
-1.034227061e-05
-1.007343109e-05
-1.012744136e-05
-1.034150736e-05
-1.033091551e-05
-9.899705368e-06
-9.442857153e-06
-9.375631175e-06
-9.135919453e-06
-8.517779361e-06
-7.68612407e-06
-7.953154946e-06
-8.932667912e-06
-9.05081234e-06
-8.388983834e-06
-8.064201736e-06
-8.543593179e-06
-8.161649118e-06
-6.066629957e-06
-2.777715143e-06
-2.0792856e-06
-3.088687347e-06
-2.679630453e-06
-8.412044683e-07
-1.426307933e-06
-2.660827913e-06
7.675087308e-07
1.054708143e-05
1.901008423e-05
1.026757074e-05
-7.429254161e-06
-1.252610697e-05
-3.876127601e-06
-7.529597681e-07
-5.819782991e-06
-6.603244751e-06
-4.44589679e-06
-5.651107976e-06
-7.697558721e-06
-6.182205924e-06
-5.256535482e-06
-2.014259579e-06
1.462295678e-05
3.099102826e-05
1.243108814e-05
-8.397442759e-06
-3.037660511e-06
-1.463609646e-06
1.087841989e-05
2.957307549e-06
1.120586602e-05
1.928596718e-05
-6.392530401e-06
6.108194156e-06
9.737445555e-06
3.09499366e-06
1.74386147e-05
2.547938831e-05
2.140245201e-05
2.257806239e-05
4.463003263e-05
3.093824375e-05
9.060016101e-06
2.003044887e-05
-4.37730282e-05
-0.0001327168615
-0.0001317522356
-0.000106793395
)


100
(
9.219704438e-05
8.313801868e-05
6.581033039e-05
5.215199969e-05
4.128384122e-05
3.232782007e-05
2.50176901e-05
1.933515014e-05
1.499140341e-05
1.086988648e-05
7.641224708e-06
4.405477921e-06
1.856202773e-06
-1.861735302e-08
-1.755440106e-06
-3.043096234e-06
-4.035838104e-06
-4.933576847e-06
-5.61579306e-06
-6.353882357e-06
-7.106807589e-06
-7.533706313e-06
-7.739439962e-06
-8.241134449e-06
-8.775639083e-06
-8.707493362e-06
-8.295928148e-06
-8.471630288e-06
-9.180504502e-06
-9.497034839e-06
-8.901223328e-06
-8.406665168e-06
-8.446212813e-06
-8.082694809e-06
-7.252063039e-06
-6.658724675e-06
-7.33508314e-06
-8.115417489e-06
-7.63330664e-06
-5.674252113e-06
-3.726927266e-06
-3.444245076e-06
-2.648394223e-06
-7.166292647e-07
2.108361575e-06
1.29427667e-06
-1.173002581e-06
-8.159225297e-07
2.403092639e-06
1.860862609e-06
-1.076724151e-06
-3.724492872e-07
1.715227005e-06
6.803175146e-07
-3.07568907e-06
-3.128691646e-06
5.647617705e-07
3.010245067e-07
-4.616197512e-06
-3.664622522e-06
2.954075055e-06
7.802811261e-06
3.718393272e-06
-5.253923427e-06
-9.834468586e-06
-8.263926681e-06
-5.73586756e-06
-2.825163424e-06
5.027744049e-06
1.231525082e-05
1.653537775e-05
2.265198636e-05
2.870339176e-05
1.472773706e-05
1.026842478e-05
4.940807655e-05
2.850119079e-05
-2.117234821e-05
2.953029599e-05
4.084189132e-05
-3.529665439e-06
1.743357035e-05
1.947863854e-05
2.884038122e-06
2.262202656e-05
4.15522344e-05
5.103546942e-05
4.752868558e-05
5.741947463e-05
7.614767918e-05
6.857977544e-05
7.449083574e-05
6.70494835e-05
6.776884123e-05
8.9510851e-05
5.69650465e-05
-0.0001864668054
-0.0003717331487
-0.0002922385584
-0.0002390496623
)


100
(
8.807422973e-05
7.98984989e-05
6.427666394e-05
5.171219635e-05
4.210706185e-05
3.367922148e-05
2.651870062e-05
2.079739316e-05
1.647256132e-05
1.257888412e-05
9.237934268e-06
6.417225614e-06
3.632508458e-06
1.55401579e-06
-6.265319088e-08
-1.336333677e-06
-2.298931011e-06
-3.196466919e-06
-3.90134377e-06
-4.182457066e-06
-4.676380439e-06
-5.397507547e-06
-5.660201798e-06
-5.327372065e-06
-5.623159059e-06
-6.341243074e-06
-5.827804228e-06
-4.194500463e-06
-3.601822379e-06
-4.855671897e-06
-5.702724629e-06
-4.753808723e-06
-1.992166122e-06
-1.696647524e-06
-2.313999476e-06
-4.290054782e-07
3.69410089e-06
3.828832214e-06
1.407640869e-06
2.426378339e-06
3.890459787e-06
5.741944695e-06
3.328054873e-06
6.861913284e-07
3.025007104e-06
8.811893018e-06
5.734298092e-06
-9.969900036e-07
1.100441372e-06
5.65096863e-06
3.831848196e-06
-1.17814735e-06
-2.27716981e-07
1.780821015e-06
-3.700257061e-07
-3.948932552e-06
-5.650337805e-07
3.843818977e-06
1.975579819e-06
-3.123488665e-06
-4.298925764e-06
1.72604544e-06
1.0680656e-05
1.632960755e-05
1.870168918e-05
1.992481957e-05
1.86040366e-05
1.682788976e-05
1.803342002e-05
1.874564134e-05
1.742067719e-05
2.638717258e-05
5.97740949e-05
8.935155847e-05
4.268308218e-05
-7.305783212e-06
3.276767948e-05
4.748113415e-05
1.878143788e-05
2.046954515e-05
3.35037825e-05
6.760347099e-05
9.739643156e-05
8.678142794e-05
7.183404022e-05
6.74131682e-05
9.22648913e-05
0.0001328595036
0.0001884805826
0.0001486502376
9.407068457e-05
0.0001572912581
0.0001805067419
0.0001894930111
0.0002101775789
7.4677329e-05
-0.0005078941165
-0.0008028917446
-0.0005576589127
-0.0004659788751
)


100
(
8.403669833e-05
7.661563224e-05
6.247154287e-05
5.105357278e-05
4.273688673e-05
3.479803124e-05
2.790667539e-05
2.247920229e-05
1.800844793e-05
1.455028295e-05
1.107334217e-05
8.232602596e-06
5.790346429e-06
3.63197329e-06
1.970333475e-06
7.782611297e-07
2.321976822e-07
-2.187536425e-07
-9.503451367e-07
-1.325394469e-06
-8.062399385e-07
-4.784435475e-07
-1.005847204e-06
-1.007067484e-06
2.394158774e-07
1.134810959e-06
4.972789629e-07
8.181970469e-07
3.302331018e-06
6.266032109e-06
5.193204367e-06
2.938129674e-06
3.938067473e-06
8.509044907e-06
7.128586092e-06
2.747931975e-06
4.033940294e-06
1.237476441e-05
1.238475187e-05
5.095803325e-06
5.704140152e-06
9.517223106e-06
1.045348287e-05
3.835986058e-06
4.429077085e-07
6.868588267e-06
1.35589293e-05
5.567740783e-06
-1.75223044e-06
3.027709305e-06
7.389533917e-06
5.087858257e-06
1.979753186e-06
3.099402771e-06
4.622826799e-06
4.562314766e-06
9.677963972e-06
2.030925239e-05
2.911945416e-05
3.398264454e-05
3.211480882e-05
2.574452133e-05
2.305779942e-05
2.373516531e-05
2.378352599e-05
2.376493816e-05
2.255452755e-05
1.999651065e-05
1.905108622e-05
2.665678034e-05
4.41996891e-05
6.233666724e-05
7.355803251e-05
8.083451751e-05
9.362178936e-05
6.593706465e-05
3.690476438e-05
5.934380592e-05
0.0001027153155
0.0001362672589
0.0001371187561
0.0001287351233
0.0001242111713
0.0001458321671
0.0001889369946
0.0001876054931
0.0001806527611
0.0002825020515
0.0002919782272
0.0002081349547
0.0002847610421
0.0003259075414
0.0003323786423
0.0003825238849
0.0003659719179
-9.164784376e-05
-0.001032703236
-0.001319388945
-0.0009851725698
-0.0008652398374
)


100
(
7.88473118e-05
7.263044218e-05
6.038299023e-05
5.07043795e-05
4.313918332e-05
3.563761278e-05
2.922944436e-05
2.408473685e-05
1.968738502e-05
1.627095629e-05
1.333636553e-05
1.049507081e-05
8.178313697e-06
6.301149194e-06
4.942278286e-06
3.882573691e-06
3.523455984e-06
4.271644751e-06
4.765863031e-06
4.243130166e-06
4.323384134e-06
6.095916068e-06
8.110068479e-06
7.684214399e-06
7.594895584e-06
1.024166147e-05
1.084428747e-05
8.422420019e-06
8.019933967e-06
1.15985926e-05
1.635248683e-05
1.335299136e-05
8.468060256e-06
1.113929372e-05
1.637528866e-05
1.159567223e-05
4.446755161e-06
9.267453915e-06
1.818500695e-05
1.425620412e-05
5.543408902e-06
7.613935948e-06
1.220718478e-05
1.118592273e-05
3.441281992e-06
5.040211008e-06
1.262760718e-05
1.642260807e-05
1.064028654e-05
7.300974044e-06
1.303937647e-05
1.855583731e-05
2.630207092e-05
3.022321681e-05
3.310922363e-05
3.613080665e-05
3.739719457e-05
3.747599533e-05
3.663665133e-05
3.773175981e-05
3.850570552e-05
3.747433018e-05
4.027800082e-05
3.884093782e-05
3.415777829e-05
3.932520032e-05
5.721468055e-05
8.220578674e-05
9.044165246e-05
8.605202411e-05
8.552601896e-05
8.623416285e-05
8.729111714e-05
8.598287331e-05
9.513987594e-05
0.0001313949687
0.0001700644888
0.000185244064
0.0001853659507
0.000182114703
0.0001859766601
0.0002283458886
0.000283905564
0.0002910910637
0.0002803514195
0.0003060321536
0.0003356838799
0.0003767315346
0.0004026598159
0.0003608792003
0.0003532078128
0.0004084314191
0.0004594786882
0.0004966716283
0.0004872576429
-0.000258096864
-0.001403121041
-0.001692554764
-0.001569851419
-0.001584900026
)


100
(
7.30810435e-05
6.822244805e-05
5.834341817e-05
5.010524291e-05
4.300675088e-05
3.640308351e-05
3.050819816e-05
2.558309332e-05
2.179428376e-05
1.828991174e-05
1.561380925e-05
1.339508512e-05
1.142320013e-05
9.736700301e-06
8.864735561e-06
8.686315552e-06
8.595485492e-06
9.710342929e-06
1.202569338e-05
1.376394703e-05
1.332688684e-05
1.338296784e-05
1.617960923e-05
1.99334873e-05
1.833016064e-05
1.597961185e-05
1.884031969e-05
1.785568218e-05
1.383298506e-05
1.285627627e-05
2.044072699e-05
2.398638365e-05
1.531298171e-05
1.033301831e-05
1.688234728e-05
2.158871986e-05
1.215263565e-05
5.846673484e-06
1.435964547e-05
2.256253313e-05
1.571593551e-05
7.443161078e-06
1.131346279e-05
1.674856888e-05
1.590395195e-05
1.426563689e-05
1.991814733e-05
2.919046939e-05
3.843060048e-05
4.468356755e-05
4.433559548e-05
4.459994597e-05
4.734513039e-05
5.174934879e-05
5.66546191e-05
5.024931206e-05
4.294708039e-05
4.375599595e-05
4.47742876e-05
5.026978144e-05
5.23757767e-05
5.410866202e-05
6.689277225e-05
9.056313987e-05
0.000115867264
0.0001239722289
0.000116831447
0.0001135374671
0.0001222898349
0.0001343091715
0.0001351324093
0.0001346024216
0.0001572310016
0.0001962540898
0.0002211882456
0.0002209300821
0.0002244885789
0.0002421076733
0.0002519369376
0.0002828771211
0.0003234964561
0.0003332861991
0.0003331666886
0.0003459661154
0.0003761238284
0.0003895698704
0.0003747520448
0.0003797792566
0.0004066640117
0.000417329835
0.0004373182835
0.00047185123
0.0005118053256
0.0005694450494
0.0005406508253
-0.0004345834009
-0.001541646225
-0.00169150457
-0.002031023141
-0.002412646766
)


100
(
6.797583108e-05
6.413378814e-05
5.616311866e-05
4.900222229e-05
4.282066044e-05
3.698480675e-05
3.173275368e-05
2.715853261e-05
2.367754919e-05
2.081972519e-05
1.838610025e-05
1.664118485e-05
1.583468792e-05
1.487612847e-05
1.395427785e-05
1.458368341e-05
1.563826107e-05
1.742139444e-05
1.986766034e-05
2.262585227e-05
2.583577085e-05
2.435253174e-05
2.258953339e-05
2.512958319e-05
2.858979169e-05
2.703065524e-05
2.3037234e-05
2.405079293e-05
2.158426646e-05
1.648200818e-05
1.740507073e-05
2.735885927e-05
2.801961556e-05
1.595616621e-05
1.420452346e-05
2.187498894e-05
2.371819116e-05
1.314926049e-05
1.243931518e-05
2.253967233e-05
2.804076007e-05
2.36037203e-05
2.062707496e-05
2.732016819e-05
3.49832177e-05
4.514548519e-05
5.119869684e-05
5.591108297e-05
6.260200458e-05
6.688930117e-05
7.093136786e-05
6.99374781e-05
6.198154673e-05
5.840067106e-05
6.246905595e-05
6.760692823e-05
7.474534557e-05
7.507883856e-05
7.100134112e-05
8.04751104e-05
0.0001029069959
0.0001313742862
0.0001493355504
0.0001526039175
0.0001562948926
0.0001636678923
0.0001714116428
0.0001754366125
0.0001758692797
0.0001958636479
0.0002362695961
0.0002738871953
0.0002756260858
0.0002545656361
0.000264197357
0.0002867724462
0.0002885763777
0.000302888952
0.0003281672186
0.0003331515103
0.00032787005
0.0003263980844
0.0003575705225
0.0003829944519
0.0003822963998
0.0003827472133
0.0004187091806
0.0004306120298
0.000414493095
0.0004535098623
0.0005026698342
0.0005663904843
0.0006345444844
0.0006499447396
0.0005544619106
-0.0006285653509
-0.001730540806
-0.001678126256
-0.00222842217
-0.002836567537
)


100
(
6.37521961e-05
6.041534541e-05
5.355137511e-05
4.741619686e-05
4.256294677e-05
3.740130218e-05
3.269874985e-05
2.893587191e-05
2.579329649e-05
2.362189219e-05
2.210066694e-05
2.08033143e-05
2.032199897e-05
2.174444896e-05
2.180420933e-05
2.164143772e-05
2.432045778e-05
2.815107644e-05
2.897562734e-05
2.918979786e-05
3.228800472e-05
3.653555072e-05
3.383018331e-05
2.936063091e-05
3.101662566e-05
3.346222784e-05
3.371378293e-05
2.911147354e-05
2.705173265e-05
2.35100202e-05
1.774638329e-05
2.418548828e-05
3.445381423e-05
2.982620532e-05
1.775119948e-05
2.07853229e-05
3.000571601e-05
2.99025358e-05
2.468287629e-05
2.903907969e-05
4.098417553e-05
5.152361805e-05
5.790810984e-05
5.74349175e-05
6.044899344e-05
6.686513111e-05
7.586338633e-05
8.535611859e-05
8.263823015e-05
7.888738788e-05
8.203008788e-05
8.376241901e-05
8.752473869e-05
9.233855425e-05
8.979102398e-05
9.468378237e-05
0.0001144754072
0.0001388009555
0.0001669463169
0.0001810340609
0.0001738138665
0.0001711714169
0.000188353504
0.0002099823949
0.0002174161989
0.0002127445987
0.0002227258788
0.000249633044
0.0002831832233
0.0003085895687
0.00030247128
0.0002941844283
0.0003037399939
0.0003071839645
0.0002956080115
0.0003033807555
0.000324413994
0.000324789224
0.0003180124593
0.000320352257
0.0003484824699
0.0003743402183
0.0003829548301
0.0003908129612
0.0004151728745
0.0004595174777
0.0004809273549
0.0004796579354
0.0005090169196
0.0005521644161
0.0006135610033
0.0006580385578
0.0007143721085
0.0007507348532
0.0005089904342
-0.0009266502488
-0.001957360055
-0.001740069578
-0.002330076833
-0.002950697354
)


100
(
5.987321026e-05
5.68623602e-05
5.080669334e-05
4.597558669e-05
4.207536755e-05
3.759573052e-05
3.35742458e-05
3.063938101e-05
2.835936662e-05
2.668879165e-05
2.603218544e-05
2.631998966e-05
2.634093651e-05
2.757016981e-05
3.150130547e-05
3.218377827e-05
3.192840831e-05
3.576704813e-05
4.044211091e-05
3.935830255e-05
3.706503982e-05
3.94013651e-05
4.27438703e-05
4.110790257e-05
3.58384184e-05
3.484348947e-05
3.668348969e-05
3.899846979e-05
3.492767521e-05
3.015781257e-05
2.547944025e-05
2.32357679e-05
3.305445751e-05
4.190141139e-05
3.628999782e-05
3.042292542e-05
3.734173574e-05
4.735885861e-05
5.491776852e-05
5.972655066e-05
6.582706285e-05
7.492602443e-05
8.406079466e-05
9.635107614e-05
9.778635811e-05
8.869305964e-05
8.783209986e-05
9.459634486e-05
0.0001036686312
0.0001134050364
0.0001105320073
0.0001075317172
0.0001199678811
0.0001357033437
0.0001584786097
0.0001921634306
0.0002046119177
0.0002056755336
0.0002199620636
0.0002358898461
0.000252634144
0.0002470462189
0.0002292214528
0.0002397753544
0.0002664353035
0.0002868150416
0.0003049272288
0.0003000629911
0.0002892331253
0.0003110109957
0.0003307062771
0.0003075131785
0.0002950264934
0.0003200220008
0.0003390168114
0.0003366441419
0.0003288771162
0.0003352453034
0.0003581066202
0.0003875574975
0.0004085178997
0.0004133807275
0.0004121758177
0.0004592746958
0.0005040603036
0.0005129456735
0.0005300253567
0.0005641452799
0.0006013640854
0.0006534656068
0.0007168705227
0.0007854337284
0.0008584695776
0.0008642586354
0.0002953672089
-0.001370325498
-0.002137001014
-0.001800085721
-0.002408060861
-0.003002393884
)


100
(
5.549419742e-05
5.303738486e-05
4.80256947e-05
4.444759326e-05
4.1307272e-05
3.765400801e-05
3.444877663e-05
3.216990009e-05
3.116160871e-05
3.049001269e-05
3.040162805e-05
3.185737368e-05
3.395059781e-05
3.51294356e-05
3.787953901e-05
4.337552141e-05
4.344010299e-05
4.192642269e-05
4.535591478e-05
5.009308423e-05
4.744176822e-05
4.263192455e-05
4.428497596e-05
4.693542695e-05
4.730944823e-05
4.188761528e-05
3.831660538e-05
4.010651957e-05
4.254047824e-05
4.312413798e-05
3.896825664e-05
2.777452797e-05
3.579688795e-05
5.319389394e-05
5.971399434e-05
6.158738817e-05
6.276650088e-05
7.030940317e-05
7.944478209e-05
9.387154706e-05
0.0001024219331
0.0001014124164
0.000104364715
0.0001108720535
0.0001197555451
0.00013032087
0.0001269780358
0.0001166701771
0.0001248078589
0.0001423991369
0.0001599629865
0.0001854908413
0.0002028536739
0.0002114121806
0.0002268559295
0.000243256808
0.0002728817023
0.0002977496813
0.0002753671596
0.0002560432708
0.0002718331431
0.0002868468543
0.0002970839573
0.0003019852214
0.0002931257718
0.0002862079256
0.0003017757611
0.0003193416436
0.0002922012524
0.0002832162894
0.0003167326336
0.0003441427191
0.0003602459588
0.0003607292807
0.0003663620373
0.0003770760893
0.0003837906901
0.0004066253419
0.0004348341663
0.000442986361
0.0004501916381
0.0004794899802
0.0005167532818
0.0005375683521
0.0005447131578
0.000588346954
0.0006372282499
0.0006462209559
0.0007086774047
0.0007809723543
0.0008351994872
0.0009174288616
0.0009718061971
0.0009573296608
-5.91639746e-05
-0.001889963579
-0.002255913405
-0.001858574321
-0.002493953249
-0.00305026374
)


100
(
5.057765955e-05
4.892089863e-05
4.549877296e-05
4.272061622e-05
4.017984904e-05
3.751044108e-05
3.530064594e-05
3.380024591e-05
3.36603515e-05
3.476798108e-05
3.56296895e-05
3.712811088e-05
4.10223615e-05
4.42016075e-05
4.54230749e-05
4.840867477e-05
5.399037714e-05
5.322348481e-05
5.004331126e-05
5.222115419e-05
5.575564439e-05
5.369701501e-05
4.843918568e-05
4.822527601e-05
5.065182159e-05
5.32697165e-05
4.92663466e-05
4.428135777e-05
4.634413548e-05
5.047286881e-05
5.632239115e-05
5.765881012e-05
5.464982442e-05
6.493096662e-05
8.120655681e-05
9.138356144e-05
0.0001040740879
0.0001048151654
0.0001025590731
0.0001115836869
0.0001238656623
0.0001395930137
0.000139838861
0.0001321718309
0.0001376499561
0.000151278444
0.0001669095029
0.0001862206824
0.0001962987767
0.0002021728122
0.0002197668582
0.0002412246467
0.0002686629781
0.0003093596265
0.000304158309
0.0002727967795
0.0002812315184
0.0003006213386
0.0003130853567
0.0003166047283
0.0002984600648
0.000283450037
0.0002899992143
0.0003084619767
0.0003308172466
0.0003029109764
0.0002783089009
0.0003015362347
0.0003251346495
0.0003509017896
0.0003685843066
0.000376213226
0.0003874140746
0.0003948567408
0.0004023342655
0.000443030275
0.0004925097101
0.000498015411
0.0004872652213
0.000497053541
0.0005316710972
0.0005701440463
0.0005857157319
0.0005940259817
0.000649572776
0.0006960861766
0.0006924582192
0.0007576793158
0.0008580056604
0.0009145876154
0.0009413715779
0.0009988196406
0.00107619229
0.0009744671678
-0.0004781220436
-0.002248248566
-0.002307024826
-0.001981308659
-0.002612316543
-0.003185645531
)


100
(
4.637961914e-05
4.528335078e-05
4.279572505e-05
4.059995899e-05
3.906087094e-05
3.721147536e-05
3.578845664e-05
3.557468109e-05
3.623230749e-05
3.82221375e-05
4.167252951e-05
4.359730904e-05
4.604395296e-05
5.159374366e-05
5.45683792e-05
5.475371936e-05
5.704005509e-05
6.193129683e-05
6.087490538e-05
5.636113028e-05
5.707555069e-05
6.006487221e-05
5.977087798e-05
5.467341852e-05
5.278986451e-05
5.579674724e-05
5.94872389e-05
6.139850196e-05
5.90372068e-05
6.046815697e-05
6.871438365e-05
7.942404451e-05
9.431184917e-05
9.999776681e-05
0.0001020433096
0.000113232119
0.0001251466706
0.0001420682883
0.0001509311389
0.0001415772141
0.0001382613329
0.0001519650418
0.0001698077141
0.0001870118195
0.0001896253175
0.0001898406663
0.0002104843191
0.0002368817985
0.0002615797357
0.0002947299728
0.0003046656079
0.0002882978156
0.0002869873046
0.0003076946358
0.0003318944983
0.0003389800473
0.0003033222367
0.0002830693747
0.0002999876171
0.0003006439676
0.000315380424
0.0003282044628
0.0003050735206
0.0002911449253
0.000316437901
0.0003421402514
0.0003462509797
0.0003538689706
0.0003746629899
0.0003949173929
0.0004088072472
0.0004123873157
0.0004199002561
0.000445883841
0.0004926968479
0.0005329947617
0.0005437593249
0.0005444109166
0.0005441822693
0.0005826070653
0.0006327802701
0.0006442967455
0.0006568308091
0.0006972316035
0.0007376714252
0.0007510357202
0.0008051284092
0.0009099016244
0.0009467580517
0.0009863087068
0.001050830371
0.00113892544
0.001183204704
0.0008942277581
-0.0008250544381
-0.002461627942
-0.002312179561
-0.002069532894
-0.002735054192
-0.003322026723
)


100
(
4.2842978e-05
4.195809895e-05
3.997637034e-05
3.848686433e-05
3.773281819e-05
3.672095649e-05
3.612269443e-05
3.696123267e-05
3.90951241e-05
4.169240575e-05
4.559299492e-05
5.054422311e-05
5.283369618e-05
5.555663955e-05
6.138130092e-05
6.347538134e-05
6.215638106e-05
6.361088306e-05
6.765868706e-05
6.702933591e-05
6.204244856e-05
6.142832139e-05
6.452761232e-05
6.734227712e-05
6.339543713e-05
6.05027221e-05
6.577739855e-05
7.267813688e-05
8.204781349e-05
8.68702931e-05
8.969571694e-05
9.999193485e-05
0.0001143207682
0.0001318979342
0.0001487748162
0.0001483583807
0.000146070589
0.0001561584524
0.0001728397193
0.0001920413604
0.0001925562487
0.0001816786341
0.0001932740642
0.0002192816411
0.0002430015538
0.0002717055191
0.0002873049494
0.0002894404426
0.0003002260813
0.0003135284573
0.000336265918
0.0003566743056
0.0003199845978
0.0002815034462
0.0002989189874
0.0003160821328
0.0003190906068
0.000325747225
0.0003097466761
0.0002937443372
0.0003022518704
0.0003339747257
0.0003653939463
0.0003375176085
0.0003302228783
0.000370495385
0.0004016190012
0.0004259181671
0.0004327760363
0.0004360030845
0.0004505268164
0.0004680136181
0.000487742769
0.0005169420057
0.0005464296007
0.0005653579913
0.0005817032375
0.0006101746754
0.0006594828446
0.0006963642528
0.0006913802312
0.0006871288112
0.0007400625788
0.000804712932
0.0008281128698
0.0008415388012
0.0008888232543
0.000947574067
0.001028312868
0.001101380435
0.001155263568
0.001251842948
0.001295975606
0.0008641396528
-0.001071416428
-0.002588733829
-0.002312680537
-0.002118687367
-0.002908929841
-0.003614926423
)


100
(
3.973879891e-05
3.891208423e-05
3.719963356e-05
3.645445635e-05
3.622925199e-05
3.595904504e-05
3.640910804e-05
3.800806756e-05
4.135578741e-05
4.54817782e-05
4.954750725e-05
5.468186162e-05
5.981481653e-05
6.159994078e-05
6.380982654e-05
6.918453441e-05
7.068047397e-05
6.818278677e-05
6.876891569e-05
7.235359673e-05
7.320007099e-05
6.85344024e-05
6.695068599e-05
7.119470624e-05
7.614508923e-05
7.843402814e-05
7.907734115e-05
8.564312432e-05
9.756829915e-05
0.0001120342606
0.0001299401782
0.0001350822241
0.0001369324168
0.0001502943484
0.0001675114932
0.0001907450192
0.000196718507
0.000186373088
0.000190167602
0.0002105711543
0.0002336031305
0.0002561930729
0.0002612120657
0.0002639734437
0.000284586907
0.0003047804819
0.0003259224705
0.0003639918471
0.0003554817163
0.0003154928677
0.0003116378939
0.0003214771127
0.0003276271078
0.0003206650234
0.0002999633119
0.0002933525265
0.0003073232213
0.0003153706969
0.0003476854059
0.0003551539508
0.0003209856205
0.0003304139729
0.0003688396572
0.0003964883779
0.0004220220279
0.0004365805721
0.0004423655481
0.0004551495488
0.0004682831175
0.0004721148936
0.0004826688233
0.0005313674314
0.0005818108084
0.0005964238256
0.000603956178
0.0006232730518
0.0006445019029
0.0006828846178
0.0007245157218
0.0007397064281
0.0007512332558
0.0008026368373
0.0008606776648
0.0008657989369
0.0008839961532
0.0009452927533
0.001006495239
0.00106140371
0.001071003205
0.001150491677
0.001258856224
0.001294054346
0.001320696703
0.0007752827079
-0.001186360545
-0.002579817336
-0.002293737798
-0.002135459927
-0.003073694656
-0.003904414942
)


100
(
3.623093105e-05
3.571761017e-05
3.463778052e-05
3.435587618e-05
3.45309121e-05
3.497430578e-05
3.64572033e-05
3.900329217e-05
4.30723244e-05
4.872515544e-05
5.378767196e-05
5.810544591e-05
6.37004706e-05
6.813756974e-05
6.88541364e-05
7.037017137e-05
7.52599167e-05
7.690758145e-05
7.375636976e-05
7.357400481e-05
7.741108974e-05
8.11418718e-05
7.804151038e-05
7.640615025e-05
8.353616819e-05
9.27268031e-05
0.0001053541851
0.0001114285648
0.0001175096745
0.0001331434568
0.0001501419178
0.0001725156069
0.0001853151642
0.000181212404
0.0001840617991
0.0002023233989
0.00022712989
0.0002504996273
0.0002486975742
0.0002412855783
0.0002624082477
0.0002904945624
0.0003148928995
0.0003425065183
0.0003485241873
0.0003343766193
0.0003318459701
0.0003407156088
0.0003573576745
0.0003608459925
0.0003164367017
0.0002854064358
0.0002997317578
0.0003106420174
0.0003159590911
0.0003369004771
0.000338178525
0.0003249286957
0.000343801269
0.0003747445461
0.000396706043
0.0003786372544
0.0003856958365
0.0004335028129
0.0004636141281
0.0004830471997
0.0004889271824
0.0004948439189
0.0005115461436
0.0005389216992
0.000584145033
0.0006099623171
0.0006172503216
0.0006318018294
0.0006426935756
0.0006725645312
0.0007253455736
0.0007746779742
0.0008063302076
0.0008073087118
0.0008232644131
0.0008661178772
0.0009097765277
0.0009570108037
0.00103995842
0.001076747747
0.001048199582
0.001097008311
0.001168467507
0.001230749022
0.001387869787
0.001399755356
0.001327939598
0.0005631218663
-0.001396102055
-0.002499760808
-0.002232831128
-0.002138801361
-0.003211879802
-0.004171817135
)


100
(
3.265624499e-05
3.255983367e-05
3.218334941e-05
3.218514882e-05
3.284921151e-05
3.385861269e-05
3.602554021e-05
3.987375646e-05
4.465521959e-05
5.0583946e-05
5.777485661e-05
6.224725819e-05
6.572554646e-05
7.147902844e-05
7.506071477e-05
7.475395678e-05
7.593906711e-05
8.046853371e-05
8.295653213e-05
8.000879234e-05
7.955179725e-05
8.486676303e-05
9.099258553e-05
9.435750835e-05
9.69073991e-05
0.0001061072976
0.000120908279
0.0001388858067
0.0001571116923
0.0001648921383
0.0001722029605
0.0001880067248
0.0002108471195
0.0002375455511
0.0002335983023
0.000222534324
0.0002432647481
0.0002727683022
0.000298852029
0.0003254078754
0.000325980501
0.0003201360355
0.0003347969845
0.0003479338013
0.0003708126259
0.0003968379135
0.0003595165017
0.0003098341867
0.000314376366
0.0003246454897
0.0003273428548
0.0003271447583
0.0003148648511
0.0003086588251
0.0003215128207
0.0003481389244
0.000390384965
0.0003846875514
0.0003522930754
0.0003787358126
0.0004195359045
0.0004453310126
0.0004715698641
0.0004908353104
0.0004980515256
0.000505141073
0.0005212773548
0.0005306245614
0.0005523054031
0.0006027454217
0.0006458388984
0.0006639567695
0.0006758740317
0.000695623047
0.0007384652579
0.0007681515972
0.0007769068722
0.000797723033
0.0008298327701
0.0008832420223
0.0009509230286
0.0009698669138
0.0009522271542
0.001018840834
0.001100517397
0.00112085989
0.001153668421
0.001194008805
0.001242902495
0.001290867476
0.001377433136
0.001460102905
0.001378082096
0.0004411626835
-0.001537848414
-0.002498138783
-0.002132719491
-0.002087144126
-0.003341368368
-0.004449705898
)


100
(
2.971661574e-05
2.978282848e-05
2.971929746e-05
2.996739417e-05
3.106472269e-05
3.267385621e-05
3.538686972e-05
4.000359018e-05