/*--------------------------------*- C++ -*----------------------------------*\
| =========                 |                                                 |
| \\      /  F ield         | OpenFOAM: The Open Source CFD Toolbox           |
|  \\    /   O peration     | Version:  2.3.1                                 |
|   \\  /    A nd           | Web:      www.OpenFOAM.org                      |
|    \\/     M anipulation  |                                                 |
\*---------------------------------------------------------------------------*/
FoamFile
{
    version     2.0;
    format      ascii;
    class       dictionary;
    location    "constant";
    object      GRPSI9;
}
// * * * * * * * * * * * * * * * * * * * * * * * * * * * * * * * * * * * * * //

GRPSI9_table
100
(

100
(
0.0001343483615
0.0001542976492
0.000140452752
0.0001392465096
0.0001340216457
0.0001221329982
0.0001293612248
0.0001180293837
0.0001194881626
0.0001111813282
0.0001086239539
0.0001036303382
0.0001006996001
0.0001001817205
9.712098634e-05
9.436374891e-05
9.307256577e-05
9.099861094e-05
8.685951423e-05
8.458264793e-05
8.195783361e-05
7.79308537e-05
7.460300877e-05
7.204294103e-05
6.904370577e-05
6.489401127e-05
6.229588624e-05
5.996468823e-05
5.748180479e-05
5.372091631e-05
5.122057673e-05
4.865727183e-05
4.610025585e-05
4.315553686e-05
4.099268111e-05
3.900828775e-05
3.70890402e-05
3.496054862e-05
3.281718967e-05
3.098314822e-05
2.916092393e-05
2.742366276e-05
2.554783281e-05
2.386981803e-05
2.21870221e-05
2.07379976e-05
1.925974855e-05
1.799532776e-05
1.679335558e-05
1.587425503e-05
1.498831069e-05
1.406420453e-05
1.313875847e-05
1.237174054e-05
1.165075453e-05
1.08523579e-05
1.017128157e-05
9.884443891e-06
1.022600035e-05
1.149004308e-05
1.301929235e-05
1.260645621e-05
1.102982184e-05
1.07682381e-05
1.166609794e-05
1.136371174e-05
1.036656094e-05
1.070936837e-05
1.141177525e-05
1.073631188e-05
1.019764457e-05
1.091709239e-05
1.111720828e-05
1.070036395e-05
1.250834562e-05
1.374675345e-05
1.191540669e-05
1.269052826e-05
1.360547021e-05
1.174538514e-05
1.324519697e-05
1.282597654e-05
1.263282909e-05
1.46715156e-05
1.279737074e-05
1.433464498e-05
1.516090154e-05
1.456704039e-05
1.702800995e-05
1.638489563e-05
1.832201915e-05
1.930512556e-05
2.243079466e-05
2.385046777e-05
2.750340888e-05
2.861487228e-05
3.101343662e-05
2.963821784e-05
1.219434974e-05
4.09234407e-06
)


100
(
0.0001343558624
0.0001568381158
0.0001435856998
0.0001390773709
0.0001295647899
0.0001216370567
0.0001181195049
0.0001136164698
0.0001088836142
0.0001041538601
9.989483999e-05
9.32815356e-05
8.955669814e-05
8.663181236e-05
8.274549331e-05
7.979603391e-05
7.717654309e-05
7.340527525e-05
7.074588153e-05
6.773848e-05
6.428050204e-05
6.118695295e-05
5.839229075e-05
5.551765215e-05
5.230505194e-05
4.966971212e-05
4.723786417e-05
4.484226674e-05
4.237030197e-05
4.023746101e-05
3.827613714e-05
3.602747584e-05
3.387194096e-05
3.203331777e-05
3.046778683e-05
2.890612873e-05
2.734051915e-05
2.597702826e-05
2.487600224e-05
2.375083821e-05
2.247735327e-05
2.13848795e-05
2.051119053e-05
1.977538702e-05
1.874615722e-05
1.777372826e-05
1.694675227e-05
1.631795099e-05
1.560868339e-05
1.492325209e-05
1.442573173e-05
1.419501168e-05
1.416893201e-05
1.392007149e-05
1.369847825e-05
1.35672904e-05
1.375947437e-05
1.359706388e-05
1.359831598e-05
1.408774691e-05
1.554709786e-05
1.678009079e-05
1.707241907e-05
1.647042801e-05
1.60033056e-05
1.605288601e-05
1.608889416e-05
1.594461936e-05
1.56866043e-05
1.566544452e-05
1.553089096e-05
1.541077953e-05
1.528413087e-05
1.531417443e-05
1.601186916e-05
1.778631317e-05
1.970110011e-05
1.97667919e-05
1.97850341e-05
2.04426441e-05
2.072133038e-05
2.200511765e-05
2.244241249e-05
2.470219531e-05
2.54281344e-05
2.624728929e-05
2.81958551e-05
2.941316642e-05
3.138334678e-05
3.428589667e-05
3.731562791e-05
4.030312803e-05
4.43599712e-05
4.978180316e-05
5.364140121e-05
5.865891502e-05
6.417834477e-05
4.897935476e-05
2.671416735e-05
1.262616712e-05
)


100
(
0.0001343626426
0.0001584139732
0.0001480787505
0.0001337011372
0.0001252843733
0.0001197524477
0.0001055157463
0.0001046055117
9.448851366e-05
8.953439845e-05
8.497257338e-05
7.610469053e-05
7.155109864e-05
6.595514694e-05
6.041476166e-05
5.721862684e-05
5.374066814e-05
4.890903773e-05
4.652242522e-05
4.433302103e-05
4.076428829e-05
3.838360397e-05
3.652022254e-05
3.458424532e-05
3.19741288e-05
3.060193564e-05
2.908642081e-05
2.762906578e-05
2.586740656e-05
2.511845718e-05
2.414209757e-05
2.329547521e-05
2.218617986e-05
2.15321564e-05
2.087463358e-05
2.046365293e-05
2.000376979e-05
1.967384467e-05
1.955394483e-05
1.947171669e-05
1.960685504e-05
1.977679861e-05
1.992068504e-05
2.014820752e-05
2.051629588e-05
2.12893328e-05
2.155883923e-05
2.17979822e-05
2.20492712e-05
2.291307082e-05
2.306925013e-05
2.33269689e-05
2.359769234e-05
2.431835884e-05
2.441158972e-05
2.433227007e-05
2.440781305e-05
2.505082381e-05
2.467366036e-05
2.351247259e-05
2.28786484e-05
2.38913536e-05
2.51712066e-05
2.535877454e-05
2.450233642e-05
2.415599523e-05
2.428854924e-05
2.405126985e-05
2.399520977e-05
2.513733144e-05
2.632427167e-05
2.719948428e-05
2.862444278e-05
3.055786978e-05
3.094021871e-05
3.186062782e-05
3.522163465e-05
3.603040359e-05
3.667981391e-05
4.052741151e-05
4.112091586e-05
4.287642029e-05
4.589048374e-05
4.626729846e-05
4.95079158e-05
5.197481971e-05
5.537146963e-05
5.983118262e-05
6.269497166e-05
6.806418486e-05
7.306515336e-05
7.861385146e-05
8.348751346e-05
9.066879398e-05
9.82305857e-05
0.0001081602484
0.0001171674034
8.033403502e-05
5.521703262e-05
3.201020509e-05
)


100
(
0.0001343532943
0.0001524908624
0.0001459863797
0.0001302457692
0.0001264666758
0.0001138840864
0.0001038001335
9.47649721e-05
8.869323577e-05
7.914552304e-05
7.550127454e-05
6.706848878e-05
6.082352647e-05
5.632580652e-05
5.045063296e-05
4.64608633e-05
4.409471448e-05
4.090424402e-05
3.780809301e-05
3.63840611e-05
3.50637983e-05
3.315648896e-05
3.177545557e-05
3.100601127e-05
3.055364224e-05
2.965578156e-05
2.906551026e-05
2.869230565e-05
2.862600175e-05
2.830220182e-05
2.799537245e-05
2.792241008e-05
2.805777544e-05
2.849738239e-05
2.826877353e-05
2.834418889e-05
2.869525803e-05
2.985246799e-05
3.019040088e-05
3.073682575e-05
3.145534129e-05
3.230559645e-05
3.318934154e-05
3.313208875e-05
3.340884805e-05
3.423069821e-05
3.59344514e-05
3.589156139e-05
3.590279105e-05
3.649373092e-05
3.763713564e-05
3.743835596e-05
3.684742899e-05
3.69688019e-05
3.734686358e-05
3.692287439e-05
3.601427009e-05
3.646746389e-05
3.687602668e-05
3.631333985e-05
3.437817161e-05
3.302678e-05
3.310275799e-05
3.435479079e-05
3.54532002e-05
3.618994387e-05
3.711768168e-05
3.853319653e-05
3.983859516e-05
4.103475771e-05
4.251127471e-05
4.424817525e-05
4.652840781e-05
4.930777382e-05
5.153612298e-05
5.15682268e-05
5.17175988e-05
5.466642912e-05
5.668510265e-05
5.848000196e-05
6.132431212e-05
6.314826313e-05
6.63586814e-05
6.836719913e-05
7.227132137e-05
7.58002528e-05
7.883161537e-05
8.346263497e-05
8.764539189e-05
9.125565223e-05
9.462322939e-05
0.0001002592326
0.0001041863638
0.0001098460668
0.0001189316543
0.0001294574506
0.0001325189484
9.399657972e-05
7.514122002e-05
4.894111134e-05
)


100
(
0.0001343318853
0.0001484989303
0.0001443781983
0.0001345748259
0.0001275685482
0.0001105125743
0.0001037036718
9.028547702e-05
8.550693172e-05
7.666919811e-05
7.034742714e-05
6.518661652e-05
5.791723495e-05
5.366158905e-05
4.967942593e-05
4.53788146e-05
4.297874511e-05
4.170861923e-05
4.004177586e-05
3.828280469e-05
3.775096257e-05
3.766887759e-05
3.7213726e-05
3.659603835e-05
3.686097259e-05
3.780303901e-05
3.869896259e-05
3.893510755e-05
3.934077878e-05
3.994884606e-05
4.093535607e-05
4.089820493e-05
4.126078268e-05
4.179178254e-05
4.320819417e-05
4.284706481e-05
4.265386238e-05
4.285767776e-05
4.521904485e-05
4.544930231e-05
4.541554214e-05
4.550805476e-05
4.675829387e-05
4.708269564e-05
4.618327366e-05
4.506768047e-05
4.62233391e-05
4.748320226e-05
4.651971492e-05
4.522460668e-05
4.570588507e-05
4.627503414e-05
4.586619055e-05
4.499489692e-05
4.515521364e-05
4.564509203e-05
4.574474818e-05
4.574327857e-05
4.6707914e-05
4.838728402e-05
4.977620625e-05
5.023899259e-05
5.041621341e-05
5.118856719e-05
5.283815321e-05
5.480648568e-05
5.632915525e-05
5.737184693e-05
5.828038065e-05
5.886267613e-05
5.97159569e-05
6.035108507e-05
6.1064378e-05
6.211575555e-05
6.45512168e-05
6.643230046e-05
6.644718439e-05
6.842130193e-05
7.10197676e-05
7.184232253e-05
7.418713455e-05
7.703089123e-05
7.957896309e-05
8.283173863e-05
8.563753303e-05
8.755156765e-05
8.897167917e-05
9.037909131e-05
9.428745563e-05
9.604348449e-05
9.624071815e-05
9.965188677e-05
0.0001024780563
0.0001077638113
0.0001139557735
0.0001239294558
0.0001049394943
8.796349447e-05
7.948398504e-05
5.57732932e-05
)


100
(
0.0001319471166
0.0001502736531
0.0001481971842
0.0001393348285
0.0001255857197
0.0001137268304
0.0001031412568
9.296964574e-05
8.423723414e-05
7.883479169e-05
7.075754812e-05
6.660869056e-05
6.174059791e-05
5.651548399e-05
5.353064781e-05
5.084391572e-05
4.803068211e-05
4.693864577e-05
4.708842973e-05
4.688069982e-05
4.601573649e-05
4.621796119e-05
4.7172261e-05
4.806918409e-05
4.786446441e-05
4.894130259e-05
5.111072083e-05
5.282316028e-05
5.319018144e-05
5.357558899e-05
5.457036265e-05
5.622720148e-05
5.589003845e-05
5.530974126e-05
5.608448277e-05
5.749152263e-05
5.630590556e-05
5.451750871e-05
5.489370457e-05
5.646753341e-05
5.561227116e-05
5.44896014e-05
5.397550498e-05
5.491857886e-05
5.476441537e-05
5.306844352e-05
5.213869244e-05
5.333152093e-05
5.467299787e-05
5.361098266e-05
5.29729589e-05
5.369561573e-05
5.492051664e-05
5.561736382e-05
5.578108637e-05
5.691396349e-05
5.842846268e-05
5.930693443e-05
6.007575668e-05
6.115563616e-05
6.293700809e-05
6.467520054e-05
6.613694309e-05
6.750319755e-05
6.804990957e-05
6.859332722e-05
6.927571331e-05
6.998418794e-05
7.150027468e-05
7.236444589e-05
7.302414551e-05
7.382499414e-05
7.456456827e-05
7.432857136e-05
7.400838976e-05
7.537215463e-05
7.648978828e-05
7.710325194e-05
7.851396979e-05
7.994614009e-05
8.116168334e-05
8.235313336e-05
8.362943257e-05
8.439742575e-05
8.485235135e-05
8.561830312e-05
8.639650813e-05
8.671106106e-05
8.938081627e-05
9.133860749e-05
9.112927902e-05
9.191584328e-05
9.681593509e-05
0.0001028304611
0.0001124756358
0.0001220579318
8.158454738e-05
7.489619897e-05
7.221879516e-05
5.492681857e-05
)


100
(
0.0001280251148
0.0001515359951
0.0001517523057
0.0001412556618
0.000125962096
0.0001183222657
0.0001044819455
9.767730544e-05
8.724030659e-05
8.207298176e-05
7.663661137e-05
7.093205543e-05
6.81897901e-05
6.430010158e-05
6.073359879e-05
5.911228754e-05
5.774198699e-05
5.603645153e-05
5.622810041e-05
5.761162687e-05
5.87691218e-05
5.843130362e-05
5.900740072e-05
6.054637936e-05
6.243126958e-05
6.187966677e-05
6.237098347e-05
6.474032431e-05
6.63556743e-05
6.657946283e-05
6.574816439e-05
6.778673784e-05
6.828553615e-05
6.687442237e-05
6.461597716e-05
6.605325687e-05
6.671510304e-05
6.478410295e-05
6.132010202e-05
6.221458308e-05
6.336825557e-05
6.211739449e-05
5.992398098e-05
5.977407683e-05
6.084984556e-05
6.097014514e-05
5.961380322e-05
5.932335692e-05
6.159547005e-05
6.372852717e-05
6.444330287e-05
6.45824918e-05
6.586146749e-05
6.733678172e-05
6.910827357e-05
7.097845716e-05
7.172574318e-05
7.193428703e-05
7.22391386e-05
7.241229625e-05
7.255102284e-05
7.24397124e-05
7.349414011e-05
7.479481973e-05
7.588892725e-05
7.705415791e-05
7.831718557e-05
7.918836709e-05
8.00375691e-05
8.164473286e-05
8.306085854e-05
8.369551731e-05
8.398757652e-05
8.374957504e-05
8.271153595e-05
8.199956923e-05
8.194407286e-05
8.190787804e-05
8.168569308e-05
8.150454572e-05
8.191338096e-05
8.19762683e-05
8.128114568e-05
8.184738394e-05
8.282465264e-05
8.479096308e-05
8.724324054e-05
9.008667932e-05
9.272634908e-05
9.66381154e-05
0.0001019787222
0.0001094352689
0.0001203604529
0.0001333176131
0.0001521854799
0.0001625129268
0.0001021335559
7.842223414e-05
6.646073747e-05
5.245328216e-05
)


100
(
0.0001264698492
0.0001508302975
0.0001527325144
0.0001415515048
0.0001315318672
0.0001214884036
0.0001101650787
0.000101663253
9.429192675e-05
8.685537067e-05
8.433211023e-05
7.92839085e-05
7.571926028e-05
7.46767142e-05
7.180380465e-05
6.964085825e-05
6.931971532e-05
6.886838691e-05
6.850088152e-05
6.931120283e-05
7.159139589e-05
7.390212418e-05
7.342134471e-05
7.337596928e-05
7.456458024e-05
7.584289761e-05
7.451625657e-05
7.406577413e-05
7.608856108e-05
7.698682152e-05
7.625659742e-05
7.467821977e-05
7.704878326e-05
7.651641007e-05
7.360526845e-05
7.120292707e-05
7.26214934e-05
7.291881642e-05
6.950499106e-05
6.730778011e-05
6.840019541e-05
6.991715284e-05
6.861398992e-05
6.766625471e-05
6.820068504e-05
7.030968383e-05
7.097686225e-05
7.097825035e-05
7.133168676e-05
7.392326516e-05
7.55682973e-05
7.736333291e-05
7.814641115e-05
7.825781046e-05
7.886887154e-05
7.990948198e-05
8.090756328e-05
8.178422908e-05
8.165321163e-05
8.16666282e-05
8.172890021e-05
8.163914153e-05
8.194895046e-05
8.220133636e-05
8.307975742e-05
8.396654991e-05
8.486137226e-05
8.559272019e-05
8.544209011e-05
8.575276495e-05
8.673614015e-05
8.734109483e-05
8.755418312e-05
8.719014911e-05
8.657765133e-05
8.606065144e-05
8.585891258e-05
8.554265533e-05
8.626864926e-05
8.715414258e-05
8.790644988e-05
8.900402761e-05
9.042863618e-05
9.428989337e-05
9.881033877e-05
0.000104483389
0.000110172226
0.0001196085989
0.000123418142
0.0001298111103
0.0001434180447
0.0001590118549
0.0001785357656
0.0002017812369
0.0002243795328
0.0002326797501
0.0001528690035
0.0001118439668
8.129684079e-05
5.522141063e-05
)


100
(
0.0001264497126
0.000147469947
0.000151397691
0.0001444330586
0.0001376197434
0.0001244987547
0.0001176521774
0.0001067992117
0.0001025616766
9.537553922e-05
9.144250797e-05
9.06509168e-05
8.633636698e-05
8.484841128e-05
8.573374954e-05
8.380560428e-05
8.288512381e-05
8.386669593e-05
8.497663953e-05
8.423063577e-05
8.454766148e-05
8.669088508e-05
8.947450595e-05
8.806525406e-05
8.634005145e-05
8.671541774e-05
8.670065478e-05
8.496919796e-05
8.342308068e-05
8.457639166e-05
8.455206485e-05
8.155488519e-05
8.185810459e-05
8.413429259e-05
8.319578718e-05
7.867659364e-05
7.762174364e-05
7.932494788e-05
7.967667511e-05
7.679300553e-05
7.587317694e-05
7.793262797e-05
8.062833971e-05
8.10687546e-05
8.084218591e-05
8.182399805e-05
8.303567144e-05
8.400107072e-05
8.502416867e-05
8.479181938e-05
8.528296409e-05
8.636581625e-05
8.732410304e-05
8.816516382e-05
8.813657975e-05
8.706480558e-05
8.817877632e-05
8.954120934e-05
9.059184107e-05
9.159427424e-05
9.176472431e-05
9.162246835e-05
9.110663406e-05
9.096700842e-05
9.101012565e-05
9.048069666e-05
9.00009673e-05
9.0777204e-05
9.162650465e-05
9.187075599e-05
9.19480772e-05
9.234836088e-05
9.280854288e-05
9.337234361e-05
9.425374533e-05
9.559026386e-05
9.852387458e-05
0.00010152449
0.0001043094324
0.0001073555737
0.0001110780561
0.0001168457368
0.0001233189278
0.0001304399467
0.0001377769982
0.0001466038005
0.0001578856569
0.0001675545545
0.0001768852296
0.0001909018016
0.0002087830676
0.0002313421426
0.0002540066384
0.0002878696731
0.0003160220366
0.0003051177162
0.0002095963973
0.0001626677294
0.0001190210557
6.855170424e-05
)


100
(
0.0001264121181
0.0001454885281
0.0001517066049
0.0001493094434
0.0001410909044
0.0001305636461
0.0001238794631
0.0001156682751
0.0001096469419
0.0001064837375
0.0001007380204
0.0001003542966
0.0001006604378
9.765787617e-05
9.815152523e-05
0.0001009387261
9.974186259e-05
9.956186456e-05
0.0001003305688
0.0001021093381
0.0001003586171
9.907057588e-05
0.0001003600224
0.0001020829279
0.0001008130375
9.787908978e-05
9.678697313e-05
9.567813757e-05
9.381311415e-05
9.153818246e-05
9.201849354e-05
9.097736355e-05
8.761380759e-05
8.905017597e-05
9.170982579e-05
9.008074265e-05
8.744298827e-05
8.723231703e-05
9.007074386e-05
9.052454756e-05
9.000903948e-05
8.966577856e-05
9.198147737e-05
9.37688377e-05
9.607274432e-05
9.642294455e-05
9.595727851e-05
9.598268914e-05
9.624316656e-05
9.656217852e-05
9.708507739e-05
9.579150038e-05
9.557854321e-05
9.652615262e-05
9.743664674e-05
9.792020303e-05
9.87698371e-05
9.831557362e-05
9.915998914e-05
0.0001000755647
0.0001008204909
0.0001014048008
0.0001005245708
9.937336903e-05
9.959635034e-05
0.0001002946587
0.0001008321963
0.0001015784669
0.0001023030157
0.0001033103831
0.0001045793384
0.000106455033
0.000107970966
0.0001117996275
0.0001173815132
0.000123248286
0.0001285546509
0.0001338681809
0.0001395283459
0.0001467658155
0.0001557273149
0.000165607632
0.0001744585973
0.0001811681202
0.0001939588787
0.0002045015716
0.000219086167
0.0002284662742
0.000246586608
0.000267022622
0.0002914810413
0.0003197671708
0.000354720185
0.0003989755043
0.0004356427246
0.0003745213073
0.0002625348937
0.0002135645535
0.0001647271375
9.475310283e-05
)


100
(
0.000122189096
0.0001457927371
0.0001539114318
0.0001534645361
0.0001436398469
0.0001382945958
0.0001291750949
0.0001260146144
0.0001181335046
0.0001165770917
0.0001141098899
0.0001107287096
0.0001135426878
0.0001148717707
0.0001126670463
0.0001145952573
0.0001185575684
0.000116861156
0.0001150701059
0.0001156720453
0.0001176068306
0.0001145964372
0.0001111083709
0.0001115628651
0.0001122995014
0.0001117539259
0.0001082184596
0.000105521147
0.0001040101235
0.0001017579438
0.0001016442588
0.0001010992094
9.663228666e-05
9.697246166e-05
9.921018107e-05
0.0001031480348
0.000102401865
0.0001017572602
0.0001019808986
0.0001038675469
0.000104940981
0.0001050695031
0.000104321284
0.0001051672186
0.0001067189557
0.0001084087132
0.000109842158
0.0001087564102
0.0001066810375
0.0001068657121
0.0001069762624
0.0001073284138
0.0001080967561
0.0001078789449
0.0001078414878
0.0001089436471
0.0001090508123
0.0001098059422
0.0001103453572
0.0001091761544
0.0001090676209
0.0001105752924
0.000112341523
0.0001139601909
0.0001153476658
0.0001169157871
0.0001188622144
0.0001207839488
0.0001229539467
0.000123657775
0.0001269505307
0.0001324395989
0.0001397276219
0.0001474340559
0.0001547488374
0.0001626560355
0.0001708874315
0.0001796363907
0.000190467975
0.0002020043224
0.000212570419
0.0002224657893
0.0002351821263
0.0002480793438
0.0002633827472
0.0002768796284
0.0002966191525
0.0003145677449
0.0003370981058
0.0003676662586
0.0004000033816
0.0004361995214
0.0004881408961
0.0005393779082
0.0005820866003
0.0004437896114
0.000321627883
0.0002693915163
0.0002128421545
0.0001408454106
)


100
(
0.0001131862508
0.0001452652267
0.0001557881209
0.000154102225
0.0001486426739
0.0001446724805
0.0001367691266
0.0001336412302
0.0001301199367
0.0001260087029
0.0001279233932
0.0001257967812
0.0001251936815
0.0001299824945
0.0001317066379
0.0001291655866
0.0001312429715
0.0001351557667
0.0001326382416
0.0001287510421
0.000128420325
0.0001290187337
0.0001262036505
0.0001218507861
0.0001205525438
0.0001206764689
0.0001211663781
0.0001179909574
0.0001142876629
0.0001132087264
0.0001113945035
0.0001125464185
0.0001128136939
0.000110297983
0.0001109666872
0.0001143708106
0.0001170039652
0.0001188187447
0.0001176131366
0.0001170542063
0.0001171931499
0.0001180375506
0.000119251516
0.0001184632606
0.0001165283155
0.0001166646329
0.0001178446676
0.0001189413961
0.0001198526707
0.0001193262352
0.0001184928442
0.0001191332347
0.0001195115902
0.0001201025498
0.0001218838986
0.0001210463243
0.0001196940373
0.0001202840241
0.0001212723584
0.0001229856451
0.0001255592287
0.0001273871632
0.0001307922494
0.0001348358129
0.0001388077795
0.0001428370758
0.0001441837189
0.0001465777741
0.0001508692168
0.0001567112487
0.0001639127002
0.0001715435869
0.00018070211
0.0001896410424
0.000197713325
0.000206355796
0.000220092157
0.0002364388432
0.000249802895
0.0002607462727
0.0002730717967
0.000289238802
0.0003079837303
0.0003263333012
0.0003416985083
0.000367503933
0.0003894883756
0.0004131771994
0.0004504420782
0.0004938744256
0.0005383773739
0.0005828765034
0.0006412421492
0.0007030431747
0.0007383838759
0.0005257857983
0.0004135863142
0.000343089473
0.0002740218845
0.0001850957103
)


100
(
0.0001083680792
0.0001428273725
0.0001550054104
0.0001545597691
0.0001546281241
0.0001486965943
0.0001460911922
0.0001402024168
0.0001421848491
0.0001384817097
0.0001384021336
0.0001427628141
0.0001403414684
0.0001414194492
0.000147245483
0.0001482559568
0.0001442701865
0.0001455859803
0.0001487577219
0.0001458224004
0.0001395426079
0.0001384204851
0.0001381612465
0.0001362232649
0.0001315175004
0.0001286218325
0.0001287328097
0.0001293335415
0.0001289738327
0.0001259991525
0.0001238342645
0.0001239487737
0.00012759672
0.0001279663162
0.0001272089712
0.0001266319661
0.0001284593262
0.0001300632952
0.0001329171015
0.0001336948565
0.0001312503044
0.0001296443667
0.0001295432778
0.000129477523
0.0001298857499
0.0001282860624
0.0001270044341
0.0001283642204
0.0001306167986
0.0001316349595
0.0001333509382
0.0001330600741
0.0001317023043
0.0001314953305
0.0001324560959
0.0001339063287
0.0001364220024
0.0001359830892
0.0001382954538
0.0001433012332
0.0001477796545
0.0001533587822
0.0001585058892
0.0001612119043
0.0001644817054
0.0001696307561
0.0001758413607
0.0001823442303
0.0001897797477
0.0002000607789
0.0002093902119
0.0002180497698
0.0002254833185
0.0002343679744
0.0002463965241
0.0002616209917
0.0002774714411
0.0002936083267
0.0003086553559
0.0003232791652
0.0003447715238
0.00036803375
0.0003868162687
0.000409517666
0.0004372565796
0.0004666656409
0.0004868127465
0.0005260925294
0.0005801851318
0.0006242351994
0.0006819059802
0.0007402521381
0.0008206544155
0.0008919892007
0.0008882567819
0.0006451632142
0.0005439806989
0.0004512679908
0.0003654539915
0.000295258437
)


100
(
0.0001083320684
0.0001392033233
0.0001531119214
0.0001576456679
0.000158690807
0.0001537217445
0.0001537016593
0.0001500153277
0.0001500277238
0.0001531895605
0.000150059431
0.0001535029353
0.000158062346
0.0001557299985
0.000157216913
0.0001631413562
0.0001630407239
0.0001573736517
0.0001575242833
0.000159640418
0.0001570351079
0.0001501406842
0.0001474447152
0.0001467939216
0.000146760058
0.0001420967801
0.0001382063656
0.0001386891334
0.0001401467977
0.0001422640142
0.0001414666893
0.0001394607503
0.0001394659514
0.0001413055572
0.0001421185866
0.0001437479357
0.0001428859081
0.0001418383923
0.0001433013059
0.0001451096863
0.0001465741644
0.0001447266996
0.0001409452422
0.000140691796
0.000141326431
0.0001421863196
0.0001436395289
0.0001438652569
0.0001433945193
0.0001444952539
0.000145372873
0.0001473367522
0.0001495422204
0.0001481134251
0.0001463076511
0.000149956572
0.0001548575539
0.0001606904053
0.0001672208937
0.000170946945
0.0001745015006
0.0001790907233
0.0001858942215
0.0001928524181
0.0001951675294
0.0002009177913
0.0002118628535
0.0002239744316
0.0002362381198
0.0002463968105
0.000255196945
0.0002654867221
0.0002775815061
0.0002910593703
0.0003069486322
0.0003238587134
0.0003378322276
0.0003524853899
0.000373990472
0.0004018883442
0.0004279059144
0.0004498223633
0.0004731511637
0.0005069969778
0.0005429320222
0.0005698342447
0.000603143176
0.0006536378845
0.0007004651773
0.0007564414039
0.0008193103674
0.000893031797
0.001003002882
0.001092577285
0.001054933559
0.0008165692546
0.0007017830913
0.0005929379536
0.0004886292337
0.0003966125496
)


100
(
0.0001082868835
0.0001366519422
0.0001527306366
0.0001605736715
0.0001601025733
0.000160696568
0.0001585866563
0.0001612684546
0.0001581421887
0.0001634419625
0.0001661946032
0.0001639235117
0.000169889209
0.0001740735513
0.0001707380705
0.0001717434625
0.0001770538651
0.000176394305
0.0001693668444
0.0001681527229
0.0001696410505
0.0001684857432
0.0001615653782
0.0001575690763
0.0001570725258
0.0001574118714
0.0001558692408
0.0001530505349
0.0001523885028
0.0001548288201
0.0001574967716
0.0001605493512
0.000158487318
0.0001557071276
0.0001560921815
0.0001574882046
0.0001600421727
0.0001595257879
0.0001561507812
0.0001548300741
0.0001564317899
0.0001579827496
0.0001592930499
0.0001581459873
0.0001573206775
0.0001586383685
0.0001598455759
0.0001607304022
0.0001639988547
0.0001636224427
0.0001622708434
0.0001631687614
0.0001660912389
0.0001698404177
0.0001741793673
0.0001772813622
0.0001819788333
0.0001897896761
0.0001954441472
0.0002035025302
0.0002082364396
0.0002091311228
0.0002136609241
0.0002224096331
0.0002333467012
0.0002453244391
0.0002568422348
0.0002687610781
0.0002811718381
0.0002931574906
0.0003037862412
0.000316461704
0.0003359206922
0.0003569581055
0.0003747904938
0.0003902799833
0.0004088769486
0.0004303342437
0.0004569560511
0.0004874467797
0.000512862897
0.0005401430583
0.0005814654693
0.0006197394795
0.000651013499
0.000691178316
0.0007467703294
0.0008013439355
0.000855575171
0.0009106586834
0.0009923715035
0.001070410034
0.001183116396
0.001287633183
0.001228466309
0.001017034144
0.0008790991621
0.000753948853
0.0006310203384
0.0004770978845
)


100
(
0.000100942153
0.0001347254905
0.0001526548781
0.000161088752
0.0001622670733
0.0001666373237
0.0001646433026
0.0001686846262
0.0001707963819
0.0001713902399
0.0001799354317
0.0001815822023
0.0001805759552
0.0001868595666
0.0001899232931
0.0001850502478
0.0001850652672
0.0001896896617
0.0001891939014
0.000181655805
0.0001790337458
0.0001804066971
0.0001818470142
0.0001754698531
0.0001701601165
0.0001708232965
0.0001721527411
0.0001746656876
0.0001726946205
0.0001708171208
0.0001724850478
0.0001749257581
0.0001785339483
0.0001787046579
0.000175023196
0.0001714200111
0.0001720795562
0.000173496374
0.0001754309079
0.0001728497459
0.0001702980915
0.0001718068481
0.0001751629759
0.0001775040854
0.0001804115123
0.0001809950526
0.000180097143
0.0001808027789
0.0001824018341
0.0001853440107
0.0001893040617
0.0001884535164
0.0001898676505
0.0001974244227
0.0002058981362
0.000212036238
0.0002206862534
0.0002246289735
0.0002277709316
0.0002343752653
0.0002419196308
0.0002506127647
0.0002534129977
0.0002619193877
0.0002777296095
0.0002928165966
0.0003070278044
0.0003187670955
0.0003305930717
0.0003458853896
0.0003651223082
0.0003876102791
0.0004074599907
0.0004275912319
0.0004469262108
0.0004670639772
0.0004934055147
0.0005248034341
0.000555600967
0.0005856373755
0.0006178913416
0.0006569759715
0.0007002161099
0.0007377985647
0.0007826221298
0.0008548944851
0.000920977838
0.0009775209999
0.001052304664
0.001122186791
0.001216386395
0.001392342794
0.001454150791
0.001566032605
0.001418473507
0.001221133647
0.001070059299
0.0009285784991
0.0007875623383
0.0006590721534
)


100
(
8.865794094e-05
0.0001314842388
0.0001516457198
0.0001599351942
0.000165958526
0.0001688704001
0.0001728697614
0.0001738248664
0.00018295434
0.0001840816068
0.0001885417171
0.0001990890635
0.0001981057611
0.0001969858712
0.0002032036159
0.0002052297393
0.0001990956286
0.0001981148528
0.0002019919628
0.0002028314723
0.0001954491182
0.0001915096043
0.0001932762346
0.0001952325546
0.0001933366986
0.0001895384598
0.0001892921846
0.0001913481243
0.0001936021431
0.0001955310499
0.0001936264731
0.0001914284287
0.000193168781
0.000195878311
0.0001985814045
0.0001939554172
0.000187927471
0.0001873121737
0.0001893411809
0.000191950363
0.0001953419464
0.0001954050535
0.000195165391
0.0001975742797
0.0001994705855
0.0002034775864
0.0002096574719
0.0002087598192
0.0002057845005
0.0002093809636
0.0002149793533
0.0002223317771
0.0002306705013
0.0002363773407
0.0002418772961
0.0002492770297
0.0002571001738
0.0002672103608
0.000271057021
0.0002706914241
0.0002797128232
0.000293158558
0.0003067344001
0.0003212491055
0.0003354052606
0.0003476736796
0.0003620061311
0.0003779274589
0.0003930728598
0.0004122627714
0.0004393222188
0.0004672137383
0.0004884735893
0.0005087486472
0.0005353997253
0.0005705094948
0.000601784737
0.0006332696633
0.0006638226996
0.0007002156743
0.0007497152766
0.000804154579
0.0008410112083
0.0008806865186
0.0009504944188
0.001029775132
0.001104822232
0.001183525322
0.001271102959
0.001377005665
0.001482383741
0.001650932946
0.001782400917
0.001896969762
0.001704867774
0.001430876997
0.001265245274
0.001113279793
0.0009575922581
0.000826559984
)


100
(
8.36732112e-05
0.0001263778392
0.0001487217411
0.0001596741786
0.0001689345703
0.0001707909959
0.0001792194729
0.0001821570611
0.0001891091605
0.0001991406078
0.000199718244
0.0002066638613
0.0002171569755
0.0002138591505
0.000212181647
0.0002180821695
0.0002201089306
0.0002132572471
0.0002110609045
0.0002147951002
0.0002181046809
0.0002115785649
0.0002061950956
0.0002093400195
0.0002126730326
0.000216251833
0.000213514155
0.0002101847501
0.0002121568131
0.0002142335404
0.0002195278988
0.0002171869637
0.000212449603
0.0002104506206
0.0002124771422
0.0002145066517
0.0002148538293
0.0002096393583
0.0002076497685
0.0002113552743
0.000216189069
0.0002196557864
0.0002254590583
0.0002250649366
0.0002242573672
0.0002255067371
0.0002308535634
0.0002372846122
0.0002436041549
0.0002434357954
0.0002484569069
0.0002602609653
0.000268982697
0.000279397854
0.0002895303351
0.0002941799895
0.0002951424496
0.0003046916057
0.000315169489
0.0003261668112
0.0003342236456
0.0003466259746
0.0003666286685
0.000384161056
0.0004000952043
0.0004134753773
0.0004286405206
0.0004488792391
0.0004751618181
0.0005044796196
0.0005299960212
0.0005526884811
0.0005788373481
0.0006065695369
0.0006427661672
0.0006864759265
0.0007266702548
0.0007625283296
0.0008047824706
0.0008498810184
0.0009042280604
0.0009570504226
0.001007063824
0.001079277605
0.001158674698
0.001226364961
0.001324574071
0.001444119023
0.001569989178
0.001665918576
0.001825663816
0.001917458007
0.002116220701
0.002274554765
0.002019327871
0.001665109108
0.001476208643
0.001311269678
0.001143885356
0.0009902528455
)


100
(
8.363160941e-05
0.0001211464908
0.000145337311
0.000159838919
0.0001685369298
0.0001749435437
0.000181385142
0.0001917741683
0.0001948366031
0.0002065357769
0.000215485836
0.0002150312031
0.0002239597836
0.0002332533297
0.0002284561316
0.000226125256
0.0002318564742
0.0002347932202
0.0002283137512
0.0002246829484
0.0002284664979
0.0002326157368
0.0002310180045
0.0002276375598
0.0002293449352
0.0002334810612
0.0002373531961
0.000238924438