/*--------------------------------*- C++ -*----------------------------------*\
| =========                 |                                                 |
| \\      /  F ield         | OpenFOAM: The Open Source CFD Toolbox           |
|  \\    /   O peration     | Version:  2.3.1                                 |
|   \\  /    A nd           | Web:      www.OpenFOAM.org                      |
|    \\/     M anipulation  |                                                 |
\*---------------------------------------------------------------------------*/
FoamFile
{
    version     2.0;
    format      ascii;
    class       dictionary;
    location    "constant";
    object      GRPSI13;
}
// * * * * * * * * * * * * * * * * * * * * * * * * * * * * * * * * * * * * * //

GRPSI13_table
100
(

100
(
0.001543232115
0.003338514229
0.004055129753
0.005008195067
0.005692438095
0.006329997614
0.007180726831
0.007474043572
0.008171492687
0.008534791641
0.008774547535
0.009589159182
0.009692475801
0.01009640078
0.01070276328
0.01067410956
0.01083797596
0.01161001675
0.01139778201
0.01140079533
0.01194613196
0.01205810482
0.01191885089
0.01205627717
0.01266615894
0.0124374456
0.01235814086
0.01235608282
0.01271979613
0.01223151829
0.0120919873
0.01221279931
0.01262880972
0.01240357936
0.01228726436
0.01195883539
0.01146780648
0.01101655749
0.01046857116
0.01008370902
0.009562839592
0.009304201986
0.008803487595
0.008475430439
0.008028820103
0.007907937366
0.007502937335
0.007211527861
0.005605605082
0.004529868904
0.003690382206
0.002886580965
0.001646834378
0.0007813204879
0.0001619552213
-0.0005220529389
-0.001182617747
-0.001614124002
-0.001963743094
-0.002782749775
-0.00427431943
-0.005492930515
-0.006813677633
-0.008179301318
-0.00973199227
-0.0118198322
-0.01353266877
-0.01527941497
-0.01748214259
-0.02023458149
-0.02239381794
-0.0246601342
-0.02819413887
-0.03090923995
-0.03225762614
-0.03513110823
-0.04060884881
-0.04266273608
-0.04587843482
-0.05305771559
-0.05469803949
-0.06082373337
-0.0669405287
-0.06836007792
-0.08012556626
-0.0824026199
-0.08988378294
-0.09879550258
-0.1025083499
-0.1136343763
-0.1185511198
-0.1274105156
-0.1313822656
-0.1392116421
-0.1417886891
-0.1484072689
-0.1487476893
-0.1379167138
-0.1120778155
-0.1257454012
)


100
(
0.001542546416
0.003317110896
0.004017037321
0.00494904875
0.005551578024
0.006283381532
0.006860677089
0.007456256496
0.007894505644
0.008555279204
0.008723040973
0.009429452466
0.009725745772
0.009931888428
0.01053473481
0.01079151542
0.01081964557
0.01116241202
0.01162428425
0.01150941839
0.01160963639
0.01193886868
0.01212037963
0.01204522698
0.01218439294
0.01249927813
0.01254964559
0.0123968669
0.01228057744
0.01238571298
0.01239295104
0.01221365398
0.01223728095
0.01241016206
0.0125353881
0.01224414388
0.01166498395
0.01124769429
0.01105487294
0.01065183137
0.00996337842
0.009529126204
0.009259270826
0.009058783232
0.008462792627
0.008109807285
0.007886447413
0.007725106527
0.006691524671
0.005724478329
0.004913627429
0.004101984796
0.003097461461
0.002125504735
0.001478892992
0.0007039464645
9.850757613e-05
-0.0006312237098
-0.0009705261254
-0.001670586264
-0.002627360188
-0.003725283911
-0.00446458296
-0.005723395519
-0.007275229954
-0.008616378871
-0.01006375258
-0.01215964177
-0.01397982946
-0.01579476528
-0.01827098964
-0.0210550212
-0.02324635817
-0.02569475595
-0.02889432942
-0.03071806684
-0.03186458184
-0.03571856849
-0.03959772352
-0.04238195137
-0.04621590145
-0.04898559114
-0.05399441401
-0.05566999318
-0.06035521126
-0.06509669701
-0.06851081315
-0.07325469253
-0.07801661162
-0.08172781998
-0.08559218691
-0.08951349547
-0.09296904819
-0.09504557491
-0.09849305518
-0.09999271063
-0.09877567186
-0.08743271105
-0.08453143453
-0.0965912253
)


100
(
0.001541184305
0.003211994778
0.003928327575
0.004693247178
0.005350448232
0.00618504182
0.006506630348
0.007383158115
0.007607094962
0.008310464847
0.008678956095
0.009036505352
0.009748093219
0.009828203654
0.01009564986
0.01077352179
0.01093656465
0.01079220299
0.01129589595
0.01183741002
0.01152801769
0.01162158081
0.01201786145
0.01231140718
0.01197648917
0.01223526095
0.01256538188
0.01274651874
0.01229870931
0.01240387978
0.01248571738
0.01261054272
0.01225000827
0.01231600445
0.01248192878
0.01265923753
0.01241253168
0.01201949318
0.01179191927
0.01147791302
0.01112679125
0.01065457356
0.01027409761
0.009929062743
0.009500800925
0.009284958568
0.008868946988
0.008649105496
0.008233654227
0.008069138428
0.00728231405
0.006686955429
0.00582584669
0.005311482132
0.004522576923
0.003818633189
0.002860603904
0.002148338553
0.001270126923
0.0005453797309
-0.0001379979763
-0.0008372608662
-0.001528423124
-0.00230377221
-0.003483542509
-0.004277774811
-0.005224590191
-0.006944757295
-0.008588187298
-0.009545365103
-0.01083652524
-0.01250951551
-0.0134178571
-0.01481646567
-0.01778449735
-0.01922778237
-0.01875340435
-0.02228291894
-0.02487774003
-0.02357187172
-0.02715738925
-0.02848822605
-0.02917386483
-0.03300211131
-0.03214508616
-0.03520818468
-0.03574420913
-0.03541228635
-0.0380849674
-0.03665335557
-0.03802367605
-0.03747008728
-0.03891727847
-0.03861427506
-0.0392885026
-0.03704428918
-0.03503503015
-0.02858381648
-0.04481077044
-0.05372989313
)


100
(
0.001539841133
0.002932886096
0.003759644015
0.004428766182
0.005239389046
0.005900043493
0.006429229257
0.006998682471
0.007579516137
0.007892544883
0.008660619816
0.008810732031
0.009329696741
0.009928146307
0.009906770855
0.01027254044
0.01095249353
0.01103130595
0.01085837569
0.01139734628
0.01190270328
0.01168795616
0.01166717887
0.0120709212
0.01244531923
0.01220755352
0.01229361372
0.01261658889
0.01289469806
0.012680131
0.01251420112
0.01263755818
0.01270311785
0.01275303099
0.01245906246
0.0125854367
0.0126626586
0.01293353993
0.01243167194
0.01213857752
0.01194874519
0.01174659801
0.01164829481
0.01104016334
0.0107723386
0.01037663245
0.01051138741
0.009741386089
0.009396007114
0.009160103995
0.009175143862
0.008579986128
0.007889054755
0.007429652439
0.006946157508
0.006324850771
0.005291787329
0.004626819711
0.003495345756
0.002579726962
0.001558870194
0.0009465881831
0.0001698393259
-0.0003343064496
-0.0008500046137
-0.001376348656
-0.001723317851
-0.002109216349
-0.00299020837
-0.00366834217
-0.003891749193
-0.004308045926
-0.004958900343
-0.004988747122
-0.005106401092
-0.007363146327
-0.01022390993
-0.01002312948
-0.01010608574
-0.01188326523
-0.01280617028
-0.01419408305
-0.01344424651
-0.01570821276
-0.01568289983
-0.01514776558
-0.01678995362
-0.01616839679
-0.01569805107
-0.01526565664
-0.0162659133
-0.01651912365
-0.01624802371
-0.017634626
-0.01609555835
-0.01508245091
-0.01249024208
-0.01653063964
-0.02516555233
-0.03171715211
)


100
(
0.001538731397
0.00268845524
0.003571769326
0.004312715971
0.005111733385
0.005593355718
0.006339669898
0.006633155135
0.007423223137
0.007724115533
0.008250134685
0.008835549986
0.008924250435
0.009573399071
0.01003830568
0.009993002398
0.01041650774
0.01105470346
0.01114436046
0.01092456187
0.01144127739
0.01191590824
0.01188140602
0.01169595715
0.01208274927
0.01245284409
0.01250594984
0.01237086289
0.01263479419
0.01286376879
0.01301831991
0.0125995569
0.01262679828
0.012693053
0.01308263461
0.01267267337
0.01256226187
0.01254687301
0.01333140533
0.01289324964
0.01248823701
0.01216023548
0.01248571857
0.01243348288
0.01197292886
0.01113508809
0.01124841868
0.01125733617
0.01050585769
0.009705853007
0.00975475576
0.009552671541
0.009079023993
0.008295451643
0.007899265114
0.007450960756
0.006937648026
0.006299381123
0.005745175073
0.00513094254
0.004545536591
0.00402300825
0.003617734615
0.003072873603
0.002657529498
0.002286589567
0.002000508496
0.001804582175
0.001768566323
0.001392021474
0.00094879647
0.0005254931699
0.0003010435763
0.0001335408457
0.0003062949509
-0.0001937581383
-0.001945202184
-0.002058303085
-0.0021076861
-0.0039695021
-0.003754295605
-0.003478334916
-0.004820586451
-0.004643419897
-0.004383162279
-0.004392695723
-0.004644718911
-0.004775798791
-0.004309210854
-0.005073230695
-0.005230842959
-0.004953807489
-0.005215062409
-0.004485245656
-0.004711880801
-0.002842015643
0.0005814317685
-0.008794912508
-0.01338512698
-0.01835816127
)


100
(
0.001404050308
0.002576635158
0.003438167205
0.004204534514
0.004850585742
0.00545831246
0.006086477434
0.006553881316
0.007031729989
0.007693410301
0.007857592566
0.008547577852
0.008944266648
0.009103296158
0.009754655738
0.0101355039
0.01008714178
0.01050526663
0.01111252787
0.01127373993
0.01106016604
0.01144993667
0.01191472007
0.01209757645
0.0117983799
0.01208327857
0.01248710319
0.01257260791
0.01232209742
0.01242571831
0.01279185767
0.0132200512
0.01284957132
0.01249169743
0.01286808749
0.01344345978
0.01310483364
0.01251265215
0.01289031547
0.01361421405
0.01322213204
0.01275906496
0.01241498949
0.01282863017
0.01284058384
0.01219423233
0.01153448807
0.01159620215
0.01163727744
0.01078040813
0.01024928949
0.01015615175
0.01007210586
0.009773930524
0.009189170525
0.008959650842
0.008903982834
0.008792119013
0.008795439815
0.008557120999
0.008260652505
0.007828348808
0.007315332497
0.006855581822
0.006115387348
0.005507778139
0.005029481973
0.004528934664
0.004478226952
0.004290958102
0.004155765325
0.004004672722
0.003750918676
0.003064384341
0.002460905171
0.002981084108
0.003392980422
0.002856532208
0.002731264182
0.002978986585
0.003240083284
0.003079588808
0.002428505383
0.001957522184
0.001741549291
0.001466658944
0.00165837558
0.001756458733
0.001863759951
0.0005529075824
0.001189933568
0.00169407793
0.001516216733
0.002136480211
0.002215248825
0.00331045257
0.005687937537
-0.003147056057
-0.006097655735
-0.01045011069
)


100
(
0.001181477505
0.002442434291
0.003301640897
0.004025548804
0.004588473221
0.005331424275
0.005776636778
0.006462585107
0.006737638725
0.007400702113
0.007838714798
0.008107148047
0.008788065911
0.009048191289
0.009274109441
0.009891206049
0.01023803841
0.01018672522
0.01055954664
0.01114279951
0.01142387374
0.01123414161
0.01146423317
0.01193732715
0.0123470601
0.01207513972
0.01212507325
0.01256288144
0.01264757613
0.01248771517
0.01226252025
0.01312993403
0.01346931005
0.01314730616
0.0124763504
0.01325715219
0.01376559074
0.0134811041
0.01245065593
0.01318440495
0.01374067801
0.01342704498
0.01266732738
0.01259531826
0.01299365585
0.01306889697
0.01246596974
0.01191931875
0.01219820096
0.012193069
0.01183393373
0.01141734688
0.01141998126
0.01126815343
0.01114268932
0.01111286702
0.01088381162
0.01069096143
0.01074589788
0.01074069381
0.01064255139
0.01011991465
0.009760322811
0.0092889203
0.008837103318
0.008548904524
0.008396268366
0.008124159281
0.007773143174
0.007644467337
0.007375734989
0.006885228029
0.006485032919
0.006256074493
0.005946012709
0.005863212325
0.006200719555
0.00657121214
0.006742693303
0.00644532761
0.006238530875
0.006250174065
0.006409361636
0.006248726124
0.005958589455
0.005751566926
0.005286241309
0.005069892916
0.005027038585
0.005386395356
0.004988496613
0.005290948175
0.005520626662
0.005799412844
0.006488984113
0.006923120386
0.006909010964
0.0002602746446
-0.001782355659
-0.005195104492
)


100
(
0.001092743989
0.0022735374
0.003127565573
0.003792249503
0.004444839437
0.005103350514
0.005604699874
0.006179141441
0.006653012747
0.006992807023
0.007712787577
0.007963354719
0.008347178436
0.008992077623
0.009155508512
0.009410995708
0.009998769641
0.0103708951
0.0103329558
0.01061146456
0.01119149973
0.01163109018
0.01146936967
0.01150099196
0.01197277002
0.01244932589
0.01233743269
0.01239596943
0.01286102293
0.01289227192
0.01258559674
0.01231007138
0.01341933372
0.01365128806
0.01309550174
0.01259563395
0.01346048463
0.01401403885
0.01326107591
0.01276534168
0.01333491766
0.01390547451
0.01341752859
0.01297054615
0.0129229164
0.01355526905
0.01348617115
0.01330811453
0.01284448333
0.01320675131
0.01300049406
0.01314934491
0.01305079051
0.01275787951
0.01252579187
0.01235722616
0.01213491593
0.01194705886
0.01155527285
0.01146454351
0.01153307835
0.01153156168
0.01165939562
0.01153918224
0.01143963166
0.01117145475
0.0110100492
0.010958408
0.01051058733
0.01004063342
0.009679467547
0.009255752329
0.009152783283
0.009067473901
0.008920168365
0.008830593134
0.008720922237
0.008476352178
0.008649798688
0.008780733101
0.008806413683
0.008881359911
0.008751668824
0.0089712565
0.009106789964
0.009115931017
0.008852132342
0.00826959403
0.008228439245
0.008605258235
0.009069923103
0.008897346377
0.009254288742
0.009597849299
0.010391615
0.01080725992
0.008455056213
0.003940393454
0.0013960577
-0.001020478001
)


100
(
0.00109189868
0.00207378512
0.002924994328
0.003595360073
0.004303251316
0.004821548115
0.00546457467
0.005856418685
0.006511492458
0.006816590063
0.007300912592
0.007939872971
0.008076072617
0.00855042494
0.009169050486
0.009274258911
0.009527622185
0.0101170753
0.01053618035
0.01050624928
0.01067104768
0.01124006315
0.01183141171
0.01169632099
0.01151241886
0.01194364392
0.0123769057
0.01250302337
0.01261133075
0.01305716416
0.01305274521
0.01225443905
0.0125700736
0.01360360568
0.013804179
0.01287844952
0.01282766636
0.01368876596
0.01412418161
0.01341354673
0.0131449671
0.0136545066
0.01420014368
0.01393440395
0.01351678961
0.0135891067
0.01382762822
0.01401086097
0.01424530797
0.01395397674
0.01380457739
0.01377533461
0.01380979
0.01391287801
0.01378330761
0.01315226867
0.01317977296
0.01303248218
0.01278659754
0.01271828845
0.01262847815
0.0127146987
0.0127220343
0.01290517058
0.01306640263
0.01284050217
0.01240314919
0.01231593951
0.01220576934
0.01206894742
0.01200121956
0.01180046536
0.01155394404
0.01139993482
0.01114423179
0.01072549066
0.01076601598
0.01080964615
0.0109272502
0.0110963303
0.0109559221
0.01103153308
0.01121503245
0.01140993389
0.01166672036
0.01184246854
0.01202882912
0.01180176215
0.01133114022
0.01168504383
0.01198546873
0.01219184612
0.01226377492
0.01315179649
0.01487793012
0.01462745961
0.01129969465
0.007620230207
0.005268238865
0.002580983765
)


100
(
0.00109102424
0.001905346437
0.0027322479
0.003440672146
0.004092813081
0.004621184945
0.005236034595
0.005695949772
0.006194333069
0.006726753059
0.006959068116
0.007563384962
0.008069227414
0.008185087499
0.00872222587
0.009332477266
0.009411976067
0.009621853316
0.01018488967
0.01070855517
0.01067300451
0.01067509014
0.01122602979
0.01182041075
0.01188798635
0.01163558331
0.01186706835
0.0122709956
0.01259480755
0.01282040176
0.01331791642
0.01302827229
0.01227047305
0.01279893121
0.01380786433
0.01366693423
0.0131159421
0.01311388613
0.01408835235
0.01419856027
0.01402865901
0.01366023335
0.01405714077
0.01411106792
0.014347691
0.01417637758
0.01399930734
0.01408620143
0.01436718082
0.01462728629
0.01482209442
0.01433637249
0.01411074017
0.01419385781
0.01435382297
0.01429830697
0.01442925258
0.0140461466
0.01401775611
0.0138906737
0.01383742657
0.01399645233
0.01377151453
0.01348240539
0.01364312889
0.01381881966
0.01374273325
0.01376794568
0.01362965894
0.01357099373
0.01364274031
0.01377993731
0.01318440154
0.01302691623
0.01299720004
0.01290401679
0.01290833572
0.01302940213
0.01293852772
0.01295383569
0.01311114145
0.01333831658
0.01359746059
0.01345859094
0.01365696403
0.01414410133
0.01447389695
0.01470244288
0.01468043973
0.01454959652
0.01479334833
0.01509903346
0.01536935998
0.01699328925
0.01720889479
0.01824982521
0.01461573072
0.01062250908
0.008867967933
0.006855820282
)


100
(
0.001008085802
0.001783307968
0.002559692465
0.003273453243
0.00384784084
0.004460909982
0.004950154956
0.005547938505
0.00589955729
0.006482223084
0.006879033956
0.007127740083
0.007786595807
0.008191747139
0.008290553702
0.008859816414
0.00948579547
0.009539569011
0.009676692687
0.01022424799
0.01083763667
0.010814434
0.01065949582
0.01117354031
0.01174920465
0.01206621389
0.01183168458
0.0117844385
0.01217503596
0.01247796292
0.01313986927
0.01357356745
0.0127568008
0.01255574572
0.0130531338
0.01403162857
0.01380204069
0.01356496305
0.01355321935
0.01411049159
0.0143406328
0.01440183171
0.01408801476
0.01410891635
0.01426622256
0.01451456244
0.01482029203
0.01461403679
0.01421789804
0.01450910953
0.01472837162
0.01490422025
0.01503173003
0.01480503546
0.01461555729
0.01483112377
0.01479136774
0.01507500389
0.01529101682
0.01482076395
0.01449877016
0.01456533759
0.01467847664
0.01465890882
0.01453879483
0.01448564938
0.01458788624
0.01477695397
0.01517105899
0.01467305299
0.01459985367
0.0147698571
0.01485853029
0.01481486927
0.0147681901
0.0148317489
0.01466029979
0.01448344508
0.01458454671
0.01476165605
0.01500410264
0.01505587026
0.01516007074
0.01553727256
0.01565080454
0.01576181233
0.01611635848
0.01676349214
0.01684658643
0.0171174572
0.01734793371
0.01746715511
0.01848992653
0.01913766011
0.01873295124
0.02055204008
0.01681444004
0.01283174612
0.01166909472
0.01023838241
)


100
(
0.0008309769745
0.001662186594
0.002393552926
0.003061979925
0.00364950104
0.004267151812
0.004733004751
0.005286552062
0.005749475702
0.006147481054
0.006734507066
0.007023584675
0.007345741173
0.007975355033
0.008312408683
0.008388283914
0.008957759242
0.009580801827
0.009660596875
0.009679577128
0.01022426863
0.01083000924
0.0109451753
0.01078609327
0.01109043028
0.01165271248
0.01216795543
0.01204077096
0.01178826681
0.01209091227
0.01235144712
0.01329008927
0.01359076912
0.01304424198
0.01289907881
0.01342771098
0.01382918546
0.01403724782
0.01373853397
0.01366340262
0.01386240418
0.01430425769
0.01478722368
0.01478500393
0.01436740255
0.0143468796
0.01459263601
0.01486232657
0.01501319303
0.01487587862
0.01474179284
0.01496199604
0.01508433196
0.0152163364
0.015657907
0.01543512416
0.01504746498
0.01520043872
0.01542146867
0.01561782902
0.01570372793
0.01526856403
0.01517239769
0.01525746811
0.015401228
0.0157480826
0.01538703006
0.01516106156
0.01544074907
0.01579800951
0.01580609611
0.01578937718
0.01611196196
0.01610167224
0.016020158
0.01580813871
0.01576681281
0.01584641761
0.01601632414
0.01612554904
0.01614505762
0.01627807857
0.01646758167
0.01670956608
0.01675598147
0.01697469502
0.01730362625
0.01747869399
0.01781287351
0.01844258629
0.01856638624
0.01882403
0.01927804152
0.01941986565
0.02191682733
0.02080673892
0.01689866537
0.01456851564
0.01352094158
0.01181575957
)


100
(
0.0007360313385
0.001527800878
0.0022343694
0.002839108904
0.00347735201
0.004027476382
0.004558798249
0.004989711613
0.005567946385
0.005933731195
0.006402018769
0.006951620651
0.007155108255
0.007527885602
0.00814337215
0.008430347354
0.008455695007
0.008996637318
0.009619555242
0.009761373337
0.009667051258
0.01018734296
0.01077651705
0.01106324764
0.01092318385
0.01098787672
0.01153414779
0.01204800408
0.01224322697
0.01202646996
0.01197961181
0.01233611281
0.01331872789
0.01353915443
0.01332502091
0.01304134272
0.01322560704
0.0134365617
0.01393691558
0.01414414479
0.01387672851
0.01384862459
0.01424682143
0.01467504119
0.01504345643
0.01482014266
0.01449355261
0.01463751093
0.01501304392
0.01507413605
0.01541070811
0.01541168099
0.01516477847
0.0151593089
0.01546238955
0.01578614372
0.01619863179
0.01556805798
0.0154391881
0.01580121173
0.01582931233
0.01605631471
0.01616371939
0.01573842242
0.01557009687
0.01592126664
0.01624220162
0.01608702441
0.0157231425
0.01624758038
0.01635192202
0.01648557788
0.01648404466
0.01647553314
0.01651969532
0.01670308326
0.01696844333
0.01698603221
0.01681215428
0.01667276037
0.01676488061
0.01699925045
0.01720259391
0.01719045359
0.01746084308
0.01753878316
0.01771728429
0.01822720113
0.01920191747
0.0191095966
0.01964643102
0.01963274278
0.02069588264
0.02156010047
0.02280206906
0.01960836002
0.01620705656
0.01515936421
0.01445809503
0.01332234623
)


100
(
0.000735385895
0.001396507332
0.0020683615
0.00265466027
0.003285512827
0.003802698595
0.004356487147
0.004788131228
0.005275338414
0.005780453651
0.006095041862
0.006611048465
0.00708846534
0.007271853957
0.007666634206
0.008268568509
0.008531441132
0.008518092773
0.009010371254
0.009623240578
0.009851197804
0.009755541336
0.01012612522
0.01070012738
0.01117711623
0.0110723491
0.01096378212
0.01139681827
0.01189479648
0.012321407
0.01230972276
0.01213007095
0.01232005724
0.01288972101
0.01314044202
0.01341182681
0.01329844538
0.01309495658
0.01339920864
0.01384856834
0.01431385218
0.01424006682
0.01383819616
0.01408700191
0.01450002846
0.01486591089
0.01513470595
0.01505906908
0.01480966953
0.01487716582
0.01497013634
0.01546259594
0.01602405544
0.01577397553
0.01513821227
0.01552075587
0.01589940871
0.01620890768
0.01634492212
0.01605184376
0.01574025969
0.01578281381
0.0163258169
0.01689009371
0.01623097556
0.01588808731
0.01635533069
0.01652082206
0.01657387549
0.01652916016
0.01657059114
0.01666366115
0.01676576117
0.0167933632
0.01698663272
0.01721310422
0.01725805582
0.01719736284
0.01711386434
0.01726296163
0.01756097443
0.01740614309
0.01737919583
0.01753415886
0.01786309241
0.01791520923
0.01817370846
0.01879993829
0.01883205201
0.01920498089
0.0191613622
0.02073120167
0.02124883052
0.02242879422
0.02135863759
0.0186469169
0.01617306946
0.01548612617
0.01489975391
0.01415917674
)


100
(
0.000734836773
0.001280617546
0.001900266197
0.002491565
0.003065674398
0.003609398579
0.004115537027
0.004608419869
0.004992936585
0.005522466762
0.005939799423
0.006228638804
0.006778816794
0.007203089143
0.007354415074
0.007751304857
0.008345027306
0.008626523995
0.008586298577
0.008999278242
0.009599201284
0.009950008277
0.009855945877
0.01004407099
0.01059961647
0.0110959967
0.01122906673
0.01114458232
0.01126650512
0.01176273462
0.01219746978
0.01255959615
0.01241526263
0.01225263525
0.01256867572
0.01301121463
0.01358403615
0.01368508439
0.0133186793
0.01323721481
0.01368110414
0.01413970484
0.01441729377
0.0142570997
0.01415262739
0.01438555305
0.01463744387
0.01484271205
0.01536196445
0.01530197889
0.01493102147
0.01494569281
0.01541858018
0.01595901737
0.0161329236
0.01583413148
0.0155483262
0.01588594519
0.01585952147
0.01641914511
0.01666673074
0.01610114173
0.01598947851
0.01654037645
0.0170049226
0.01697650585
0.01682782357
0.01681379144
0.01689089826
0.01690643711
0.01678273309
0.01670649581
0.016889891
0.01712657734
0.01732041783
0.01739283615
0.0174251543
0.01749133001
0.01762698538
0.01770620637
0.01772358883
0.01774755614
0.01794254049
0.01813191076
0.01794697545
0.01830796683
0.01868395508
0.01889709218
0.01899063763
0.01911566633
0.01949700395
0.0200758892
0.02006337766
0.02020272146
0.02062943865
0.01834344956
0.01662443267
0.01640895733
0.0156283063
0.01454957488
)


100
(
0.0006578542405
0.001180433438
0.001755687875
0.002324127708
0.002851072795
0.003412052868
0.003884650201
0.00438330407
0.004805630613
0.005210187919
0.005730307266
0.006081055917
0.006386673802
0.006914678365
0.007296933784
0.007413906151
0.00779335286
0.008384449639
0.008706447973
0.008661072528
0.008961937813
0.009550058756
0.01004173944
0.009970612967
0.009970618636
0.01048189178
0.01096871741
0.01138739382
0.01137046418
0.01128861958
0.01156182137
0.01196568139
0.01251856658
0.01272409095
0.01254890249
0.01239088301
0.01284852986
0.01338843686
0.01386733753
0.01364755158
0.01333180931
0.01351734285
0.0140071916
0.01427719826
0.01452973503
0.0145078946
0.01427988713
0.01436352962
0.01471442342
0.01525989857
0.01573630782
0.01525681297
0.01486514293
0.01534947169
0.01589631061
0.01589544838
0.01617569987
0.01584338572
0.01553973848
0.01595343456
0.01657548192
0.01719952703
0.01654325495
0.01629672851
0.01685052302
0.01693269692
0.01706078328
0.01708203464
0.01705058375
0.01708984048
0.01715927479
0.01735074643
0.01735851937
0.01746038049
0.0174423036
0.01742912032
0.01755993831
0.01777050142
0.01818157081
0.01828469232
0.01795375301
0.01813535345
0.01820017653
0.01848255432
0.01856344741
0.01916075942
0.01931222712
0.01917150637
0.01958744858
0.01965525636
0.02019776076
0.01991063116
0.02090715858
0.02144292895
0.02002826274
0.01879515147
0.01743989992
0.01713599462
0.01662411679
0.01553406107
)


100
(
0.000528944654
0.001083107097
0.001623882702
0.002149997462
0.002661685192
0.003195397513
0.003675724207
0.00413013487
0.00461014374
0.004982333177
0.005414590355
0.005923213588
0.006204014727
0.006504694207
0.007022442867
0.007382311944
0.00747103033
0.007812961167
0.008393308176
0.008782425642
0.008738970089
0.008899671681
0.009472856892
0.009963535224
0.01009916483
0.01008860072
0.01036038082
0.01084771316
0.01125715647
0.01152076678
0.01146247699
0.01138587252
0.01179152884
0.01234169179
0.01291683753
0.01278276992
0.01241941828
0.01262372446
0.01315354621
0.01362274142
0.0139220387
0.01378345546
0.01356864546
0.0137271468
0.01387028052
0.01430764546
0.0149499251
0.01475645942
0.01421121577
0.01453495164
0.01505950083
0.01551574816
0.01564123135
0.01534032461
0.01509611152
0.01527196639
0.01562565539
0.01640200451
0.01640184189
0.01569126058
0.0159449235
0.01666879815
0.01697159481
0.01700894616
0.01697277616
0.01689167432
0.01693081836
0.01703730335
0.01700672648
0.01704775264
0.0173062996
0.01758346443
0.01768393539
0.01770254412
0.01770991078
0.01787618937
0.01780312505
0.01795417352
0.01802114785
0.01825708867
0.01839346898
0.01878213683
0.01871770778
0.01849792567
0.01912550119
0.01930914123
0.01923237956
0.01922698344
0.01918967717
0.02003756246
0.0201305582
0.0207230549
0.02174626196
0.02166161048
0.02076338524
0.01925601759
0.01817355298
0.01769891908
0.01726648006
0.01670248098
)


100
(
0.000476567788
0.0009903618866
0.001508444407
0.001978233922
0.002483063315
0.002969331118
0.003465451672
0.003903823847
0.004359911608
0.004789379335
0.005127905532
0.005584688006
0.006064759492
0.006291490817
0.006583864791
0.007097737167
0.007462794712
0.007528494891
0.00780325782
0.008371601507
0.008845316663
0.008823702389
0.008839146934
0.009369856105
0.009850876907
0.01023601087
0.01025501139
0.01023350504
0.01061396232
0.01104862681
0.01164107663
0.01167431432
0.01147126573
0.01155169051
0.01211391132
0.01270671446
0.01299044225
0.01266960458
0.01254310441
0.01291682591
0.01338517051
0.01363041317
0.01398687625
0.01378724283
0.0135768195
0.01359746592
0.01415992547
0.01476366979
0.01507637119
0.01453430361
0.01438015717
0.01494779913
0.01508323694
0.01532130346
0.01547191106
0.01531810883
0.01490462701
0.01558111033
0.01627015106
0.01657368878
0.01620476678
0.01599399942
0.01651329142
0.01659968689
0.01679689488
0.01682821809
0.01684592475
0.01696187319
0.01714906156
0.01741815999
0.01747736376
0.01732647708
0.01739639388
0.01743398303
0.01755796562
0.01780799126
0.01810347439
0.01837718022
0.01838522751
0.01817476837
0.01829370302
0.01842391455
0.01891328033
0.01918364071
0.01916206309
0.01845683726
0.01873123306
0.01942082554
0.01994857361
0.01971371899
0.02045752522
0.02048020303
0.02047680094
0.02102068744
0.02096078229
0.01923359676
0.0184478694
0.01823181396
0.0177400842
0.01745526655
)


100
(
0.0004763170425
0.0008998932046
0.001385312097
0.001832132408
0.002310172647
0.002757349205
0.003243212636
0.003686752387
0.00409747214
0.004543342569
0.004926223858
0.005232579915
0.005713538823
0.006161058634
0.00634995303
0.006627470911
0.007140407742
0.007525584319
0.007583263822
0.007768131942
0.008316134421
0.008784908846
0.008915704033
0.008939554116
0.009251276773
0.009725194171
0.01013013204
0.01033915455
0.01034847701
0.01042903022
0.01086423743
0.01145826329
0.01183560158
0.01162895287
0.01137790372
0.01185719349
0.01244435895
0.01284941589
0.01292917118
0.01286231741
0.01265919654
0.01288098168
0.0131979759
0.01385086346
0.01418372579
0.01383853893
0.01330860076
0.01391812627
0.01450983286
0.01487818221
0.01496892101
0.01459850097
0.01430163938
0.01440144686
0.01507420732
0.01586165905
0.01549585676
0.01495351206
0.0154635413
0.01613129988
0.0162530332
0.01627925688
0.01630678228
0.01640939967
0.01635385775
0.01649011447
0.01649684267
0.01659626653
0.01685840251
0.01707781828
0.01720996601
0.01730651391
0.01738332877
0.01754441892
0.01773754788
0.01752221199
0.01757419907
0.01777122658
0.0179916905
0.01822555851
0.01868871268
0.01834766791
0.01855095355
0.01907823159
0.01899742373
0.01909006457
0.01937705764
0.01936653242
0.01969951051
0.01968032333
0.02064538167
0.02036954876
0.02137096297
0.02122427723
0.01980368864
0.01875247381
0.01823018721
0.01848029932
0.01807371859
0.01799861312
)


100
(
0.000476350995
0.0008146109112
0.001257765237
0.001699178754
0.002132426104
0.002562643713
0.00300981444
0.003460937706
0.003868879013
0.004267689559
0.004699146772
0.005036345629
0.005324757679
0.005813341854
0.006238315904
0.006395456585
0.006647117658
0.0071488374
0.007575231526
0.007639217347
0.007717439271
0.008227764526
0.008691640313
0.009009463447
0.009061564807
0.00909819246
0.009490940324
0.0099622829
0.01048541321
0.0104975091
0.01029102883
0.01062845227
0.01120480422
0.01174923844
0.01178313057
0.0115744513
0.01161476031
0.0121772766
0.01252444671
0.01281971168
0.01292770145
0.01284453211
0.01257584922
0.01295328809
0.01358517074
0.0142478992
0.01403505655
0.01367284071
0.01364913573
0.01418832374
0.01425081393
0.01464370245
0.01474986215
0.01434912231
0.01413396398
0.01492170125
0.01568936268
0.01570798163
0.01545057287
0.01533070611
0.01561351948
0.01575608336
0.01585842876
0.0158974122
0.01595904622
0.01611816625
0.01636442961
0.01663720587
0.01684315316
0.01665438102
0.01664199809
0.01672523481
0.01686192761
0.01705465486
0.01728099401
0.017505943
0.01755346309
0.01763226451
0.0173843438
0.01734843672
0.01775660449
0.01818424635
0.01841086967
0.01813946271
0.01795007879
0.01866980138
0.01885282316
0.01904076878
0.01872259717
0.01941715793
0.01927018825
0.01987247468
0.02043725643
0.02011403804
0.01888191324
0.01797270937
0.01760813932
0.01819889378
0.01802992988
0.01804507688
)


100
(
0.000482083884
0.0007481880882
0.001147859796
0.001571124264
0.001958877246
0.0023862755
0.002783177159
0.003220836236
0.003641541976
0.004029416649
0.004423829578
0.004830539944
0.005127007235
0.005404583552
0.005882971712
0.006300658836
0.006432201554
0.006635914377
0.007120304038
0.007544312238
0.007694448394
0.007775127818