/*--------------------------------*- C++ -*----------------------------------*\
| =========                 |                                                 |
| \\      /  F ield         | OpenFOAM: The Open Source CFD Toolbox           |
|  \\    /   O peration     | Version:  2.3.1                                 |
|   \\  /    A nd           | Web:      www.OpenFOAM.org                      |
|    \\/     M anipulation  |                                                 |
\*---------------------------------------------------------------------------*/
FoamFile
{
    version     2.0;
    format      ascii;
    class       dictionary;
    location    "constant";
    object      GRPSI18;
}
// * * * * * * * * * * * * * * * * * * * * * * * * * * * * * * * * * * * * * //

GRPSI18_table
100
(

100
(
-0.001862986874
-0.003299700625
-0.004419205828
-0.005247367044
-0.005736475783
-0.006164307071
-0.006811032615
-0.006850708567
-0.007279175464
-0.007356219454
-0.007440088564
-0.007664182139
-0.007639401653
-0.007777665724
-0.007833100428
-0.007728407056
-0.007749666006
-0.007811366951
-0.007588128458
-0.007549431954
-0.007478743007
-0.007283101835
-0.007128074847
-0.006993883526
-0.006748715509
-0.006459779938
-0.006359508713
-0.006122336708
-0.005808307211
-0.005459053039
-0.005314018993
-0.004837377565
-0.004356139469
-0.004027204238
-0.003903226734
-0.003604362971
-0.002927651323
-0.002487532856
-0.002216039977
-0.001814090383
-0.0009795285007
-0.0004158287151
-9.181235382e-05
0.0003894213554
0.001351555376
0.002045088047
0.002383379169
0.002602064913
0.003701141533
0.00459668137
0.005174180686
0.005656483271
0.006842926466
0.007845565371
0.008532709212
0.009325713556
0.01056903463
0.01160687265
0.01227815073
0.01298180615
0.01416349434
0.01578457142
0.01663383391
0.01715023763
0.01846779549
0.02038542045
0.02125480884
0.02181072373
0.02393299993
0.02568050634
0.02656773262
0.02787823049
0.0306119516
0.03182652458
0.03271038727
0.03513703881
0.03757673668
0.03865025478
0.04103789022
0.04392945227
0.04522716438
0.04817656854
0.05081974956
0.05248155876
0.05650806752
0.05830961486
0.06113614204
0.06466327803
0.06675223087
0.07052808443
0.07296007305
0.0766122634
0.07919247373
0.08232978282
0.08466180904
0.08730736191
0.08886012741
0.08660268094
0.06265459141
0.04282808261
)


100
(
-0.001862347609
-0.003254101232
-0.004369506756
-0.00521373742
-0.005611374325
-0.006160613273
-0.006526156944
-0.006887383698
-0.007083439175
-0.007427423783
-0.007450632203
-0.007652878893
-0.007717756268
-0.007737140059
-0.00784266447
-0.007857912621
-0.00780575786
-0.007722623336
-0.007788046592
-0.007665111701
-0.007479202118
-0.007388596737
-0.007319437842
-0.007130699121
-0.006824243034
-0.00667481988
-0.00654600084
-0.00630585595
-0.005948866658
-0.005729182089
-0.005568606489
-0.005155243397
-0.00469987934
-0.004372693831
-0.004160533654
-0.003869115873
-0.003355642108
-0.002936969174
-0.002620576158
-0.002224111179
-0.001585675969
-0.001061490256
-0.0006333512996
-0.000133180951
0.0005934970577
0.001189075613
0.001680844741
0.002110149429
0.002933895368
0.003590858055
0.004147936763
0.004774866887
0.005793519391
0.006566884689
0.007193796691
0.008036714676
0.009269495522
0.01007554768
0.01072172711
0.01156255543
0.01287193025
0.01372516395
0.01489078115
0.01611239544
0.01707450716
0.01795758166
0.01926948016
0.0208483429
0.02170074399
0.02302402895
0.02463781368
0.02637691486
0.02752047753
0.02906628111
0.03108914004
0.03259468023
0.03374126442
0.03591298767
0.03807922075
0.03981491274
0.04188851823
0.04358410669
0.04648777325
0.04778327703
0.05023977368
0.05300314828
0.0549435199
0.05762212718
0.06039722121
0.06277582794
0.06522899868
0.06772732459
0.07044603401
0.07248603666
0.07534314879
0.07772418544
0.07944852662
0.0725930339
0.05914572434
0.046936733
)


100
(
-0.001861017383
-0.003147793076
-0.004265751266
-0.004947437419
-0.005470373832
-0.006147360844
-0.006265425655
-0.006924616816
-0.006938860804
-0.007335288108
-0.007513562932
-0.007549221644
-0.007853464115
-0.007785190542
-0.007771944506
-0.007989271751
-0.007977951991
-0.007762247239
-0.007829299225
-0.007958058805
-0.007675144685
-0.007539381611
-0.007517729684
-0.007476297749
-0.007147971283
-0.00698641338
-0.006858400709
-0.006716868035
-0.006378742768
-0.006179323839
-0.005979014527
-0.005772811013
-0.005394071156
-0.005058116176
-0.004737255144
-0.004450226068
-0.004111390099
-0.003765089675
-0.003442097839
-0.00308088093
-0.00267168449
-0.002227892273
-0.001785713812
-0.001341844113
-0.0008278598964
-0.0002953130254
0.0002355674836
0.0007157367282
0.00128726388
0.001919830637
0.002419844999
0.002911147722
0.003547652991
0.004371391077
0.005029723261
0.005645930356
0.006453531802
0.007566270246
0.008401683961
0.009134125471
0.01022100049
0.01115757182
0.01198035989
0.0133592652
0.01457413697
0.01518535067
0.01604607325
0.01769647505
0.0186318103
0.01958997283
0.0208026605
0.02211404478
0.02266289154
0.02414072672
0.02621328292
0.02699147847
0.02741005378
0.02996687414
0.03169891262
0.03188123496
0.03409713993
0.03567016871
0.03701578769
0.0390613414
0.04037362597
0.04260310713
0.04423192373
0.04538820295
0.04742981318
0.04860981653
0.05067849051
0.05202663726
0.05364836722
0.05584604293
0.05798329686
0.05981789468
0.06165195773
0.05151642432
0.05167385234
0.04913783297
)


100
(
-0.001859586469
-0.002962801417
-0.004007122155
-0.004682187642
-0.005417875878
-0.005904220785
-0.006291291666
-0.006644326791
-0.00702844837
-0.007100099633
-0.007592339621
-0.007535917782
-0.007704169373
-0.007954780354
-0.007808498623
-0.007866837098
-0.008101456505
-0.008029007669
-0.007822959239
-0.007927040197
-0.008018012691
-0.007789327781
-0.007633406397
-0.007617072439
-0.007595103495
-0.007330505936
-0.007152500761
-0.007021214166
-0.006893861567
-0.006640128866
-0.006406929939
-0.006223021336
-0.006002038191
-0.005768199624
-0.005421804019
-0.005127351831
-0.004783382514
-0.00451133093
-0.004194907876
-0.003951548967
-0.003640813334
-0.00323987439
-0.00286124268
-0.002501112109
-0.002099610118
-0.001540059248
-0.0009888171609
-0.0005709739335
-0.0001593659257
0.0004977310889
0.001242515329
0.00169349226
0.002039606909
0.002768656313
0.003690015145
0.004306534681
0.004665552668
0.005674237967
0.006838038868
0.007745183887
0.00834359266
0.009457827296
0.01019109349
0.01091360829
0.01195562747
0.01297435851
0.01351015063
0.01433738702
0.01562821008
0.01629995189
0.01693072688
0.01785820479
0.0191647594
0.01951765611
0.01975991108
0.02131199056
0.02330668984
0.02376151631
0.0243992466
0.02603001479
0.02754267527
0.02899074811
0.02901396256
0.03078190066
0.03192994911
0.03244652335
0.03457000922
0.03547929483
0.03604417364
0.03663243281
0.03806303308
0.03979310741
0.0402328929
0.04242572499
0.04346336694
0.04487585122
0.04520226379
0.04000352592
0.04284272845
0.04356658228
)


100
(
-0.001858302515
-0.002814322252
-0.003757393207
-0.004592040247
-0.005327140127
-0.005644335729
-0.006286774055
-0.006386994085
-0.006984260678
-0.007079445173
-0.007349575267
-0.007681960249
-0.007583115166
-0.007849904414
-0.008015577169
-0.007868882618
-0.007966420864
-0.008173484886
-0.008116602041
-0.007900948997
-0.008001357474
-0.008077536942
-0.007940072319
-0.00772763058
-0.007713466848
-0.007692736092
-0.007572390706
-0.007361580082
-0.007229515643
-0.007065906657
-0.006928928187
-0.006652929532
-0.006481501046
-0.006246638641
-0.00609563229
-0.005776933597
-0.005503935026
-0.005118511098
-0.00489785862
-0.004583944963
-0.004371609703
-0.004054226282
-0.003650779701
-0.003243285536
-0.002942503773
-0.002557911649
-0.00195526367
-0.001321232861
-0.0009257112395
-0.0006022648726
0.0001235868936
0.0009638793259
0.001492508346
0.001820817137
0.002546660137
0.003479609809
0.00412328897
0.004431720722
0.005066799185
0.005950487703
0.006586391248
0.007020848457
0.007714500886
0.008229581415
0.008860770035
0.009775476027
0.01067305885
0.01123944345
0.01189559526
0.01266420272
0.01372170116
0.01447136913
0.01508933615
0.01557025584
0.01632534608
0.01692788545
0.01842062943
0.018946765
0.01952851191
0.02110761684
0.02124898251
0.02150010706
0.02313581027
0.02368091988
0.02425378163
0.02473402831
0.02570006397
0.02655487844
0.02686683223
0.02774277788
0.02864253614
0.02926937133
0.03047969277
0.03103950533
0.03198959772
0.03303335359
0.02988079593
0.03125334428
0.03400799719
0.03633235015
)


100
(
-0.001704064756
-0.002747310571
-0.003657577871
-0.004478603138
-0.00505755066
-0.005587634645
-0.006077591245
-0.006413803076
-0.006697477627
-0.007170812229
-0.007140433839
-0.007555538593
-0.007740334898
-0.007697160527
-0.007967671877
-0.008088532544
-0.00795135533
-0.008048658073
-0.00823814839
-0.008221573012
-0.00801345164
-0.008064397106
-0.008133786658
-0.008091462293
-0.007834018652
-0.007796994507
-0.007803315512
-0.00771979794
-0.007507251926
-0.007348079472
-0.007212285221
-0.0071522453
-0.006913227831
-0.00665677071
-0.006481293616
-0.006348474847
-0.006077099406
-0.005745566614
-0.005426669576
-0.005120259511
-0.004778372688
-0.004562650518
-0.00423117519
-0.003790287422
-0.003382096756
-0.00311121996
-0.002782382959
-0.00216623424
-0.001546067661
-0.001182687851
-0.0008743048708
-0.0002031173598
0.0005631754674
0.001015251428
0.001257186305
0.001747915295
0.002396775897
0.002792204848
0.003058940515
0.003408384083
0.003884585488
0.004336544054
0.004866107087
0.005537104152
0.006175783481
0.006868648
0.00754772668
0.00801934365
0.008809282432
0.009447598204
0.009890873897
0.01036092706
0.01116821491
0.01228524324
0.01338597018
0.01372190009
0.013707173
0.01458075987
0.01487960918
0.01512204589
0.01567967258
0.01617649254
0.01715147144
0.01774516409
0.01816586882
0.01887793548
0.01893000454
0.01913489772
0.01936380541
0.02045551727
0.02110134454
0.02098355819
0.02215778462
0.02228055758
0.02284707069
0.02373583048
0.01936143579
0.02371748632
0.02721479683
0.02991667878
)


100
(
-0.001449262904
-0.002658160531
-0.003551475397
-0.004291492726
-0.004804017282
-0.005520037442
-0.005809173348
-0.006410852993
-0.006512703737
-0.006990225697
-0.007246180622
-0.007310886185
-0.007727231473
-0.007805720378
-0.00781464038
-0.008067270885
-0.008171669082
-0.00804148954
-0.008120161959
-0.008292918992
-0.008327866912
-0.008132623512
-0.008119647216
-0.008184197447
-0.008223064235
-0.007964904072
-0.007833572672
-0.007871244514
-0.007822282018
-0.007685921831
-0.00742011513
-0.007437920517
-0.007321636367
-0.007118404438
-0.006777170669
-0.00668253788
-0.006510542008
-0.006285129044
-0.005875356418
-0.005619727612
-0.005266330323
-0.004943200503
-0.004690135306
-0.00435752047
-0.003897058225
-0.003519932478
-0.003311321729
-0.003042469938
-0.002546590699
-0.002067791941
-0.001831425343
-0.001646449893
-0.00126740878
-0.0008167733212
-0.0004740075164
-0.0001906339098
0.0001499399506
0.0005124700168
0.001001320696
0.001530116053
0.001959158011
0.002305170993
0.002832048941
0.003379701034
0.003733383055
0.004033493505
0.004521574059
0.004958132175
0.005289820441
0.005852672716
0.006463995645
0.007133437689
0.007918456969
0.008512829421
0.008732974316
0.009589743074
0.009648422639
0.009941266287
0.01042956617
0.01110076955
0.01186881589
0.01220793896
0.01192454374
0.01242950133
0.01265060624
0.01309851657
0.01312119874
0.01332536602
0.01382883037
0.01420026316
0.01441081959
0.01477720364
0.01485039483
0.01491723516
0.01527939048
0.01569819204
0.01329824239
0.01784805543
0.02139804604
0.02444696229
)


100
(
-0.001347697928
-0.002536299941
-0.003394923138
-0.004048915291
-0.004710833266
-0.005304355913
-0.005715209781
-0.006168484408
-0.006536010438
-0.006697082928
-0.00723693931
-0.007313713213
-0.007483336761
-0.007872352269
-0.007878978795
-0.007916522234
-0.008150679452
-0.00826347381
-0.008147960998
-0.008185758334
-0.008347047241
-0.008446497176
-0.008269782514
-0.00818469046
-0.008251425658
-0.008297223329
-0.008083227638
-0.007942784111
-0.008007970259
-0.007972669247
-0.007818183078
-0.007523925408
-0.007594638649
-0.007450623095
-0.00720233819
-0.006901258583
-0.006796982937
-0.006644443523
-0.006334271648
-0.006061432285
-0.005777881465
-0.005461595236
-0.005148478804
-0.004936247364
-0.004614056018
-0.004263648992
-0.003995891483
-0.003908399236
-0.00377808468
-0.003540168074
-0.003268147527
-0.003072458514
-0.002883362451
-0.002630335146
-0.002283677994
-0.001846311505
-0.001377514022
-0.00100156729
-0.0006337205733
-0.0001495801409
0.0003323893125
0.0006357276053
0.0008243303264
0.0009995232528
0.001273899389
0.00152402646
0.001938159778
0.002502015043
0.002908773626
0.003449288059
0.004070605698
0.00437362
0.004561054504
0.004815783397
0.005005791956
0.005472995233
0.006271465895
0.006769482648
0.007356910227
0.007542388395
0.007338806704
0.007571556557
0.007844137245
0.008121029594
0.00815253271
0.008008600552
0.008133767701
0.008265048713
0.009120187823
0.00937551334
0.009090549008
0.009163245455
0.009241353228
0.009371224649
0.009516952771
0.009206073924
0.008577545607
0.01275224764
0.01582776781
0.01892142141
)


100
(
-0.001346731559
-0.002361332609
-0.003179047369
-0.00387831901
-0.004599492643
-0.005025533633
-0.005651612333
-0.00589114715
-0.006473992923
-0.006637723407
-0.00694513345
-0.007408850662
-0.007386838449
-0.007631671496
-0.007993852328
-0.00796235234
-0.008007199715
-0.008232156983
-0.008369115927
-0.008266034196
-0.008255350063
-0.008407215702
-0.008578644002
-0.008425188164
-0.00826912956
-0.008339971449
-0.008353464574
-0.008204314178
-0.0080472438
-0.008108704777
-0.008098092319
-0.007775043452
-0.00768094995
-0.007712290687
-0.007585084417
-0.007236056063
-0.007038823477
-0.006924440918
-0.006772095199
-0.006498086334
-0.006293742523
-0.006072254694
-0.005871739359
-0.005684815785
-0.005538579208
-0.00537344087
-0.005144503961
-0.00496366501
-0.00487135241
-0.004717733465
-0.004544906753
-0.004285122759
-0.003931757853
-0.003600938936
-0.003359271345
-0.003102910009
-0.002777392069
-0.002414125473
-0.002156439088
-0.001980885367
-0.00176575072
-0.00148298024
-0.001235463964
-0.0008936198078
-0.0004341199495
-9.598407535e-05
0.0001983956391
0.0007268505255
0.001147575202
0.001227877421
0.00123963322
0.00133490636
0.001516214868
0.002087026802
0.002670987379
0.003004706397
0.003477392269
0.003510597098
0.003341978076
0.003444088229
0.003760452305
0.00404029848
0.00410789886
0.004047398536
0.004125052994
0.004099437264
0.004316604244
0.004646362824
0.005033174873
0.00502670147
0.004837436036
0.005061846082
0.005197770171
0.005434804164
0.005517926645
0.004824809951
0.004969736955
0.008366525033
0.01103447775
0.01366632783
)


100
(
-0.001345735594
-0.002222196896
-0.003011508633
-0.00375342529
-0.004379940885
-0.004874702137
-0.005444984354
-0.005819584379
-0.006194100997
-0.006650280282
-0.006730601336
-0.007157302312
-0.007496695845
-0.007467023207
-0.007754651304
-0.008098134964
-0.008056739502
-0.008087298419
-0.008289730564
-0.008482771649
-0.008393131092
-0.008321228677
-0.008469824784
-0.008632156086
-0.0085845263
-0.008416908097
-0.008426401359
-0.008421181216
-0.008321104509
-0.008170015119
-0.008232714278
-0.008151545506
-0.007856183199
-0.007814016746
-0.00785221097
-0.00765423756
-0.007426635612
-0.007242197998
-0.007209467698
-0.007044568355
-0.006948323911
-0.006799578741
-0.006711049268
-0.006563011259
-0.006532175242
-0.006422315855
-0.006252535095
-0.006037256678
-0.005777019997
-0.005500599202
-0.005307877502
-0.005109748659
-0.004908460216
-0.004624555724
-0.004326867398
-0.004121911353
-0.004040893334
-0.003924407827
-0.003814924421
-0.00366493234
-0.003399620231
-0.00304530395
-0.002734834417
-0.002409027652
-0.001942740206
-0.001519584895
-0.001405743777
-0.001436281394
-0.001439554097
-0.001354126087
-0.001067858129
-0.0006228682557
-0.0004464766871
-7.072401719e-05
0.0003155734972
0.0002262617831
7.608472923e-05
0.0001755033715
0.0004385573421
0.000656946772
0.000722772787
0.0007251844967
0.0007921346822
0.0009777312887
0.001134293119
0.001499717325
0.001420882567
0.00184692053
0.001787628793
0.001809665711
0.001971411333
0.00214750077
0.002204476461
0.002380449768
0.002502439934
0.001142837535
0.001956646712
0.004900795
0.007036389276
0.009407132407
)


100
(
-0.001251416174
-0.002133309528
-0.002895298496
-0.003610828106
-0.004127782723
-0.004766711328
-0.005156565546
-0.005752574496
-0.005959317423
-0.006458381317
-0.00675942399
-0.0068555823
-0.007333166933
-0.007581346825
-0.007547152725
-0.0078498042
-0.008199043945
-0.00815835543
-0.008155128893
-0.008347537762
-0.008596544651
-0.008524373741
-0.008385591169
-0.008532900708
-0.008677791742
-0.008744525923
-0.008594925552
-0.008509879919
-0.008510382506
-0.008376025611
-0.008381254042
-0.008441521833
-0.008154677959
-0.008050486403
-0.008007519046
-0.008096476726
-0.007924636361
-0.007822816918
-0.007700944136
-0.007655760369
-0.007583071907
-0.007540985885
-0.0074236283
-0.007356091354
-0.007251577748
-0.007117849903
-0.007015215446
-0.006827451935
-0.0065762858
-0.006371830057
-0.006085320759
-0.005860573881
-0.005771478269
-0.005677342377
-0.005572647057
-0.005480945011
-0.005312535228
-0.005146223032
-0.004963826284
-0.004759494095
-0.00455501028
-0.004221643063
-0.003879117841
-0.003729441502
-0.00371789114
-0.003670215801
-0.003587005826
-0.003466973791
-0.003275706736
-0.003116880835
-0.002881671277
-0.00247768712
-0.002325093355
-0.002434627054
-0.002496086196
-0.002408582276
-0.002261446612
-0.002115646724
-0.002037348519
-0.001991376592
-0.001902449099
-0.0017553113
-0.001522284184
-0.00123271862
-0.001205795678
-0.0009891413234
-0.0009944521635
-0.0008836680225
-0.0008010384611
-0.0006772421822
-0.0004604532067
-0.0003963157396
-0.0002166114556
-0.000207783959
-0.0001352791065
-0.002022269983
-0.0002240040775
0.00227728334
0.004031722915
0.005917386794
)


100
(
-0.001050004906
-0.002029081975
-0.002774679782
-0.003383084616
-0.003972283302
-0.004582780294
-0.004987783565
-0.005499116934
-0.005906933706
-0.006166537648
-0.00668139344
-0.006856871407
-0.007025004414
-0.007470555279
-0.007666409538
-0.007631499413
-0.007932824543
-0.008283451061
-0.008276964217
-0.008214799281
-0.008409395096
-0.00864518593
-0.008654258043
-0.008526531775
-0.00858606842
-0.008723238299
-0.008878139201
-0.008779328703
-0.008621843602
-0.008619298375
-0.00848922964
-0.00859975777
-0.008598632144
-0.00841297181
-0.008360479128
-0.008417046198
-0.008413450688
-0.008437999188
-0.00831080107
-0.008218595498
-0.008124519604
-0.008062117909
-0.008040547596
-0.007934649603
-0.007755930273
-0.007639272119
-0.00749616047
-0.007341369691
-0.007244538437
-0.007126496918
-0.006991338331
-0.006875032844
-0.006743861293
-0.006648912328
-0.006661862401
-0.00654196298
-0.006379760118
-0.006185174969
-0.005876260945
-0.005612088824
-0.005540021229
-0.005498348273
-0.005473451863
-0.005431823723
-0.005424848627
-0.005430309976
-0.005288337816
-0.005090457665
-0.004717881951
-0.004418982647
-0.004416153035
-0.004469950431
-0.004436240674
-0.004470277317
-0.004396019432
-0.004255590867
-0.00420251665
-0.004199247219
-0.004110346059
-0.003932814526
-0.003678744436
-0.003522493765
-0.003454577414
-0.003357482785
-0.003152071495
-0.003129903061
-0.002972013304
-0.002919776748
-0.00283691324
-0.002728740607
-0.002677533516
-0.002599078621
-0.002539863967
-0.00257763722
-0.002777733824
-0.004005003551
-0.001447907828
0.0003091519591
0.001991156246
0.003890653698
)


100
(
-0.0009420325616
-0.001897488974
-0.00259902364
-0.003170013238
-0.003834380161
-0.004318840293
-0.004878000049
-0.005201270812
-0.005786669081
-0.006038269518
-0.006388407195
-0.006859346544
-0.006943582591
-0.007164162001
-0.007596342312
-0.007764683162
-0.007709214911
-0.007995009845
-0.008347135693
-0.008393719522
-0.00826888628
-0.008462384231
-0.008682472943
-0.008780074482
-0.008671211009
-0.008633883076
-0.008778960558
-0.008920539713
-0.008978326375
-0.008849899073
-0.00873760354
-0.008679808867
-0.008866128537
-0.008889351413
-0.008819907606
-0.008724731879
-0.00874305218
-0.008727858018
-0.008821627781
-0.008823064903
-0.008649929551
-0.00850792518
-0.008416042902
-0.008297586231
-0.008242099347
-0.008102543233
-0.007949727369
-0.007881198962
-0.007847877416
-0.007762720416
-0.007798356018
-0.007753304041
-0.007650886218
-0.007547237706
-0.007406672288
-0.00722746355
-0.007169286268
-0.006995730587
-0.006926603678
-0.006868193638
-0.006775537789
-0.006854137632
-0.006961749627
-0.006940186856
-0.006826720125
-0.006602141735
-0.006372370242
-0.006282064178
-0.00621075854
-0.006091417413
-0.006063340076
-0.006084528385
-0.005986611583
-0.005905819755
-0.005852289965
-0.005801891644
-0.005716539541
-0.005652236924
-0.00553337763
-0.005337246463
-0.005265449438
-0.005232412936
-0.005081035469
-0.004969257937
-0.004848275365
-0.004855029686
-0.004563826799
-0.004581540044
-0.004511671478
-0.004559517588
-0.004582999548
-0.004619848463
-0.004632864636
-0.004662553423
-0.005110885854
-0.005075444966
-0.002445310968
-0.001251700709
0.0004210210127
0.001913850692
)


100
(
-0.0009412970495
-0.001751325618
-0.002414157909
-0.003035707577
-0.003644693607
-0.004113146347
-0.004683354761
-0.005064366308
-0.005484848152
-0.005974980526
-0.006155424429
-0.006567272548
-0.006960252971
-0.007036204974
-0.007281087384
-0.007702360324
-0.007861154499
-0.007790285039
-0.008049960986
-0.008391241366
-0.008498238861
-0.008382524118
-0.008504967349
-0.008714434228
-0.008914174355
-0.008822928896
-0.008718837495
-0.00884671576
-0.008990606215
-0.009152405315
-0.009132826284
-0.009010959239
-0.008978832497
-0.009071591724
-0.009084943054
-0.009171311814
-0.00911031735
-0.009007099447
-0.009039371212
-0.009061394829
-0.009100006825
-0.008984171423
-0.008747616331
-0.008671807967
-0.008588686481
-0.00852732914
-0.008544265938
-0.008505373674
-0.008426783935
-0.008427761843
-0.008372274579
-0.008355328892
-0.008372985287
-0.008231471454
-0.008020088716
-0.007988594189
-0.007901182356
-0.007906000399
-0.008013867324
-0.008031676328
-0.008035975427
-0.007998261489
-0.007949647357
-0.007910013271
-0.007711305741
-0.007579158162
-0.007470083966
-0.007411790995
-0.007485253091
-0.00749282062
-0.007438264087
-0.007359431017
-0.007247627153
-0.007123899654
-0.007058013547
-0.007015579839
-0.0068930751
-0.006767017167
-0.006744324929
-0.006749358518
-0.006691588796
-0.006571168019
-0.006389795675
-0.006378959338
-0.006377056371
-0.006227218132
-0.00600494994
-0.006016731505
-0.006042464597
-0.00616188078
-0.006281155111
-0.006339979973
-0.006427827078
-0.006553391945
-0.006904849571
-0.006050362863
-0.003850387867
-0.002640246161
-0.001058899532
0.0003993068753
)


100
(
-0.0009406645482
-0.001636131776
-0.002279496446
-0.002892172057
-0.003406247436
-0.003971169987
-0.004407975743
-0.004946844041
-0.00522135088
-0.005729042683
-0.006095115507
-0.006259503746
-0.006716791246
-0.007058361894
-0.007117789291
-0.007368485603
-0.007779211581
-0.007955911835
-0.007875786145
-0.008090879806
-0.008418586046
-0.008605329976
-0.008502317394
-0.008541855341
-0.008751012879
-0.008947169223
-0.008990319656
-0.008922792041
-0.008935873024
-0.009112886702
-0.009266296437
-0.009422671066
-0.009317089267
-0.009184352396
-0.009236575423
-0.009315605248
-0.009462354466
-0.009447390564
-0.009267188362
-0.00916862274
-0.00919878698
-0.00921194834
-0.009226391866
-0.009119448871
-0.009026622409
-0.009013425968
-0.008991298064
-0.008964701014
-0.009086640163
-0.009037529393
-0.008927078899
-0.00887184599
-0.008828777104
-0.008800134281
-0.008811946628
-0.008774731788
-0.008750860348
-0.008845642661
-0.008819385742
-0.008926904669
-0.008936825136
-0.008765795552
-0.008642514639
-0.008543041036
-0.008494950577
-0.00849784028
-0.008488339754
-0.008481958983
-0.008487242849
-0.008460457726
-0.008358633
-0.00825972402
-0.008241188052
-0.008229978994
-0.008164134951
-0.008081414541
-0.00802324292
-0.007921817169
-0.007852975881
-0.007857549833
-0.007750104828
-0.007672603252
-0.007736655609
-0.007736371317
-0.007579712486
-0.007389356549
-0.007441857374
-0.007497899473
-0.007544809956
-0.007575928462
-0.007697597869
-0.007739709501
-0.008030464866
-0.008208631897
-0.008400940194
-0.007208429259
-0.00542083538
-0.004127799435
-0.002593943147
-0.0005611231955
)


100
(
-0.0008515528606
-0.001541588162
-0.002152387787
-0.002712908935
-0.003213003756
-0.003793655076
-0.004196652349
-0.004702683724
-0.005111857847
-0.005412908817
-0.00592211437
-0.006205171815
-0.006404410774
-0.006844058686
-0.007149153537
-0.007190277416
-0.007430265667
-0.007831191192
-0.008039080279
-0.007966966956
-0.008117805346
-0.008434470892
-0.008715793956
-0.008633936901
-0.008583620147
-0.008799693061
-0.008991683743
-0.009194137871
-0.009168564559
-0.009105071767
-0.009206839222
-0.009341167314
-0.009554302869
-0.009610860187
-0.009492332459
-0.009357592033
-0.009442504665
-0.009527899543
-0.009640102426
-0.009511082106
-0.009349299308
-0.00934951071
-0.009437610562
-0.009469890166
-0.009547983188
-0.0095366734
-0.009448154277
-0.009444176575
-0.009451375956
-0.009489626208
-0.009586231655
-0.009440964915
-0.009330081733
-0.009413129135
-0.009497009687
-0.009475650368
-0.009633362541
-0.009590759144
-0.009521323862
-0.009532151603
-0.009480434546
-0.00950015612
-0.009287317324
-0.009198126173
-0.009256747302
-0.009268446863
-0.009320053389
-0.009301356943
-0.00925001157
-0.009229689941
-0.009224083146
-0.009224140017
-0.009163705427
-0.009125754441
-0.009048245036
-0.008947025625
-0.00892065606
-0.008917615094
-0.008879882805
-0.008839935504
-0.008815129853
-0.008768544845
-0.008816956899
-0.008739872721
-0.008686414517
-0.008747957336
-0.008807649916
-0.008850358061
-0.008921387062
-0.008960939341
-0.009043606228
-0.009234882227
-0.009484573341
-0.009728515634
-0.009611617234
-0.008425643572
-0.00690795591
-0.005674530703
-0.004251849488
-0.002708671795
)


100
(
-0.0007024146537
-0.001438686772
-0.002019556449
-0.002521145052
-0.003063253873
-0.003543773482
-0.004047999925
-0.004415954259
-0.004948194405
-0.005245919343
-0.005604642387
-0.006103446008
-0.006306691066
-0.006517398599
-0.00694832113
-0.007234230869
-0.007263152924
-0.007479010459
-0.00786279028
-0.008122573962
-0.008063713372
-0.008133901137
-0.00844718931
-0.008716387469
-0.008783355709
-0.008755028827
-0.008869976562
-0.009081332233
-0.009249109626
-0.009375537977
-0.009338085969
-0.009285260001
-0.009437115856
-0.009611644986
-0.009815362397
-0.009697917595
-0.009484357657
-0.009494566874
-0.009591356919
-0.009681049526
-0.009789189744
-0.009741718368
-0.009656097448
-0.009704110492
-0.009719422927
-0.009849370101
-0.01010212391
-0.01002477709
-0.009820423964
-0.009870162994
-0.009918134933
-0.01000761265
-0.01012407524
-0.01010071801
-0.01005355197
-0.01008929892
-0.01012374089
-0.0102844119
-0.01023439693
-0.00999044619
-0.00996279998
-0.009988578819
-0.009983402665
-0.01000411163
-0.01000012324
-0.009982943504
-0.01000378616
-0.0100147829
-0.009942328176
-0.009894159235
-0.009947164788
-0.009999344188
-0.009952336706
-0.009876332504
-0.009858561095
-0.009890507651
-0.009838592972
-0.009805050896
-0.009723248686
-0.009686331703
-0.009786582845
-0.009841228239
-0.00977501384
-0.009676320922
-0.009715210866
-0.009865822128
-0.009934216345
-0.009989706978
-0.01008042262
-0.01024531587
-0.0103559256
-0.01067113404
-0.01081243009
-0.01114884499
-0.01094506385
-0.009591919056
-0.008227010909
-0.007098258953
-0.005840304372
-0.004492788829
)


100
(
-0.0006418546997
-0.001318549657
-0.001868289964
-0.002366811936
-0.002903190217
-0.003321088569
-0.003850406946
-0.004233781667
-0.004656103264
-0.00511878821
-0.005367038201
-0.005768212604
-0.006234481152
-0.006387609799
-0.006600683591
-0.007022769793
-0.007314292678
-0.007337079307
-0.007507832882
-0.007878651863
-0.008204291842
-0.008169039218
-0.00815196183
-0.008461943354
-0.008724979636
-0.008964845909
-0.008966858312
-0.008925556875
-0.009101054177
-0.009274546369
-0.00956725293
-0.009561781061
-0.00945073989
-0.00945055949
-0.009623001888
-0.009793412627
-0.009875309828
-0.009690930749
-0.009601259994
-0.009716467801
-0.009868209977
-0.009945277181
-0.01013436812
-0.01007332837
-0.01002423781
-0.01003101703
-0.01020044277
-0.01037941941
-0.01052839092
-0.0103424051
-0.01029843128
-0.01048949316
-0.01050379412
-0.01062512128
-0.01074456644
-0.01070803108
-0.01050712094
-0.01059166604
-0.01063512978
-0.01067746209
-0.01057357343
-0.01049381548
-0.01061426955
-0.01063077303
-0.0106751735
-0.01063995936
-0.01060190259
-0.01060994383
-0.01064273455
-0.01067598853
-0.01065984649
-0.01062277613
-0.01062149166
-0.01056288974
-0.01056238451
-0.01064305144
-0.01067070383
-0.01062336086
-0.01062226008
-0.01061108104
-0.0106586778
-0.01067803088
-0.01063031151
-0.01071813409
-0.01078093776
-0.01083240983
-0.01096762119
-0.01114046513
-0.01129877384
-0.01139535572
-0.01168089982
-0.01189107342
-0.01214902235
-0.01252587432
-0.01209020614
-0.01063640273
-0.009409027486
-0.008365897835
-0.007228236077
-0.005888842466
)


100
(
-0.0006414180873
-0.001205724969
-0.001727115902
-0.002225298744
-0.002699163064
-0.003164806801
-0.003590702631
-0.004075919504
-0.004387989403
-0.004850237866
-0.005245990273
-0.005459508354
-0.005896994724
-0.006325180309
-0.006451660634
-0.006656799811
-0.007069721239
-0.007380767358
-0.007413135388
-0.007514478322
-0.007873821401
-0.008192646102
-0.00828317573
-0.008294667074
-0.008483636732
-0.008754872445
-0.008981585057
-0.009108269105
-0.009113026769
-0.009134718857
-0.009306948146
-0.009554159549
-0.009724566515
-0.009605308438
-0.009448340265
-0.00961736436
-0.009793446904
-0.009921084349
-0.009961514516
-0.009961011315
-0.009883649535
-0.009997024578
-0.01012476595
-0.01041439777
-0.01058517379
-0.01046406954
-0.01024221356
-0.01047916393
-0.01067372835
-0.0108466137
-0.01097630356
-0.01086501679
-0.01076212443
-0.01078124149
-0.01101362999
-0.01129047892
-0.01111658267
-0.01087045578
-0.01095019069
-0.01107433892
-0.01110354747
-0.01116176106
-0.01119303772
-0.01124149055
-0.01122953072
-0.01125431792
-0.01119387262
-0.01116982803
-0.01123328331
-0.01128169853
-0.01125975342
-0.01123586
-0.01125440947