/*--------------------------------*- C++ -*----------------------------------*\
| =========                 |                                                 |
| \\      /  F ield         | OpenFOAM: The Open Source CFD Toolbox           |
|  \\    /   O peration     | Version:  2.3.1                                 |
|   \\  /    A nd           | Web:      www.OpenFOAM.org                      |
|    \\/     M anipulation  |                                                 |
\*---------------------------------------------------------------------------*/
FoamFile
{
    version     2.0;
    format      ascii;
    class       dictionary;
    location    "constant";
    object      GRPSI26;
}
// * * * * * * * * * * * * * * * * * * * * * * * * * * * * * * * * * * * * * //

GRPSI26_table
100
(

100
(
0.02646022735
0.02243627261
0.01625684176
0.01306541575
0.01119225161
0.009827220191
0.00891698483
0.008215116164
0.007639598269
0.007165860219
0.00652075269
0.005928503771
0.005600274787
0.00525229588
0.004948148183
0.004720210407
0.004496487976
0.004299879526
0.004149921757
0.003975735601
0.003803284257
0.003687210726
0.003543215976
0.00327701315
0.003064821908
0.002986924511
0.002896077173
0.002783145945
0.0026927926
0.002632010545
0.002438170963
0.002168171242
0.002038554959
0.001993383013
0.001942553782
0.001873211229
0.001813011696
0.001772163213
0.001696633268
0.00155008796
0.001440020223
0.001404703572
0.001312193826
0.00110533076
0.0009620943817
0.0009401586821
0.0009180207803
0.0008146494965
0.0007169494698
0.0007028107841
0.000659360496
0.0004980393746
0.0003660249622
0.0003543195479
0.0002658561705
7.158958968e-05
-4.074901311e-05
-4.146566348e-05
-0.0001011414063
-0.0002637044861
-0.000363841069
-0.0003574125981
-0.0004396624694
-0.0006164025509
-0.0007002280721
-0.0006850412036
-0.0008401869825
-0.001035145897
-0.001054084859
-0.001116862144
-0.001331612125
-0.001456435006
-0.001466623684
-0.001704776538
-0.001896331066
-0.001916631137
-0.002180818186
-0.002374344586
-0.002496237807
-0.002787495796
-0.002912091627
-0.003236216116
-0.003520494976
-0.003819889473
-0.004164415172
-0.004570200735
-0.005044109426
-0.005504293937
-0.006208536523
-0.006812872996
-0.007559615085
-0.008627757904
-0.01003306452
-0.01183539275
-0.01402324466
-0.01766868483
-0.02385792165
-0.03508958543
-0.1510079117
-0.2594054626
)


100
(
0.0255972957
0.0220742737
0.01622921895
0.01288745979
0.01111627418
0.009734690367
0.008810807794
0.008155470599
0.007588538571
0.007165610768
0.006594602632
0.006018924987
0.005608072616
0.005239452608
0.004935662801
0.004700999813
0.00445945909
0.004266533775
0.004137152127
0.00397321364
0.003811737552
0.003697080951
0.00357291696
0.003376638285
0.003183183721
0.003049671075
0.002921585809
0.002787992166
0.00270280586
0.002653879882
0.002542924661
0.002363984897
0.002201258373
0.002085685351
0.001985046895
0.001886857595
0.001812176929
0.001777349235
0.001736363294
0.001649848177
0.00155155992
0.001486220607
0.001423354959
0.001312190904
0.001181512603
0.001083218438
0.001015040116
0.00093725695
0.0008482930116
0.0007885519316
0.0007545068966
0.0006973993615
0.0006103035783
0.0005354783921
0.0004702786787
0.0003815768584
0.000279559818
0.0001968791537
0.0001317258454
6.017353691e-05
-1.234732481e-05
-9.671508461e-05
-0.0001998261111
-0.0002775807924
-0.0003149178424
-0.0003734632742
-0.0004942989012
-0.0005600161175
-0.0005812673165
-0.000675663833
-0.000793724265
-0.0008215323163
-0.0008760480467
-0.001065694331
-0.001145631664
-0.001105698282
-0.001279836166
-0.001433579834
-0.001361191034
-0.001541544835
-0.001641345818
-0.001646426733
-0.001955079736
-0.001781901217
-0.0019121082
-0.002251483016
-0.002074225509
-0.002501034616
-0.002573730319
-0.00278790807
-0.00319877676
-0.003846596397
-0.004711053419
-0.00606017914
-0.007857167769
-0.01278065093
-0.03723948705
-0.09598273073
-0.09125699435
-0.04779729952
)


100
(
0.02473888286
0.02167075602
0.01617995513
0.01277948233
0.0110160503
0.009659787248
0.008719603078
0.008060193508
0.007524189178
0.007107660917
0.006630394171
0.006094639272
0.005658092387
0.005254833918
0.004923495169
0.004676673375
0.004448146768
0.004233484657
0.004090207753
0.003970265217
0.003819692087
0.003685147006
0.003576209656
0.003444299075
0.003272333282
0.003110463186
0.002974953278
0.002847338324
0.002728327455
0.00263687259
0.002570397018
0.002477979479
0.002343298444
0.002200657221
0.002079055524
0.001971270376
0.001866788849
0.001778837544
0.001724274002
0.001689800962
0.001634314362
0.001556415905
0.001482627446
0.001423480658
0.001350445261
0.001250519711
0.001152628211
0.001070181599
0.0009917407105
0.0009150417947
0.0008494500978
0.0008005540954
0.0007588722213
0.0007109810261
0.0006483308685
0.00058273584
0.0005101058775
0.000435093244
0.0003718205114
0.0003258550672
0.0002745649092
0.0002164823503
0.0001391758746
2.031687544e-05
-7.212437795e-05
-0.0001003202229
-0.000131275175
-0.0002341546473
-0.0002920275013
-0.0002860036251
-0.0003245268304
-0.000417120441
-0.0004692962371
-0.0004687982799
-0.0005433831441
-0.0006838059715
-0.0006971938888
-0.0006270478865
-0.0007376789471
-0.0008585708984
-0.0008844484549
-0.0008760982096
-0.001079769293
-0.001198097087
-0.001054205402
-0.001265992868
-0.001403114109
-0.001364726704
-0.001647436886
-0.001978443667
-0.002277840387
-0.002809596665
-0.003786241615
-0.004940863375
-0.007196807784
-0.01511333639
-0.0617509726
-0.08737764689
-0.05438034025
-0.03621435627
)


100
(
0.02397597244
0.02124268559
0.01612529167
0.01269250137
0.01084820849
0.00958032142
0.008636662528
0.007957908979
0.007478631287
0.007029088001
0.006627905896
0.006144410469
0.005699485852
0.005311638825
0.00493571299
0.004651415775
0.004434438255
0.004228397231
0.004044912258
0.003928398925
0.003826482842
0.003687681858
0.00355530327
0.003451393284
0.003335281488
0.003181110093
0.003026964916
0.002901500452
0.002787879333
0.002670132877
0.00256691338
0.002498491484
0.002429206729
0.002317468615
0.002189916619
0.002069099877
0.001958518969
0.001856086304
0.001770219068
0.001698880905
0.001649003511
0.001617165189
0.001575602375
0.001510491596
0.001431828926
0.001363828605
0.001303971198
0.001226304622
0.001135086559
0.001057502834
0.001000088346
0.0009452377803
0.0008947222871
0.0008516460986
0.0008052961371
0.0007459498354
0.0006851838512
0.0006262642959
0.0005658132057
0.0005243438094
0.0004988110806
0.0004570431845
0.0004037033096
0.0003374237009
0.0002458182975
0.000160003873
0.0001115060239
8.608664466e-05
5.38210359e-05
4.45391887e-06
-4.099577942e-05
-6.407375523e-05
-7.950764825e-05
-0.0001113032904
-0.0001828258825
-0.000261967651
-0.0002447292019
-0.0002210442618
-0.0003737762931
-0.000442994228
-0.0003721364987
-0.0004460232811
-0.000535753077
-0.0005224161515
-0.0005392382002
-0.0006700688608
-0.0008091981929
-0.0009446787814
-0.001124276274
-0.001333296884
-0.00165425135
-0.00217878282
-0.002888156453
-0.004506347045
-0.007305550666
-0.0171149392
-0.07299088738
-0.07991010524
-0.03531224902
-0.03142334116
)


100
(
0.02338159534
0.02083350691
0.01598212492
0.01254883108
0.01072234827
0.009507343122
0.008562462446
0.007864985657
0.007389038358
0.006956293733
0.006578335476
0.006190929767
0.005733958591
0.005341990378
0.004988655679
0.004656356053
0.004408316588
0.004219424748
0.004044585253
0.003890171796
0.003783309259
0.003688032057
0.003562194426
0.003431199683
0.00333022225
0.003230582622
0.003093885765
0.002951638871
0.002833424758
0.002729040599
0.00262189606
0.002523246376
0.002436332549
0.002374026615
0.002303997577
0.002192945594
0.002059857561
0.001946885646
0.001859982208
0.001783582855
0.001719648187
0.001666920721
0.001636740315
0.001601411758
0.001523958215
0.001431786525
0.001380596955
0.001349110122
0.001280409848
0.001196937533
0.001139137463
0.001096332178
0.001045745653
0.0009975475878
0.0009560177981
0.0009002375185
0.0008383809092
0.0007871943982
0.0007450118098
0.0007051196145
0.0006749548116
0.0006546048878
0.0006237012353
0.0005747655378
0.0005178202371
0.0004618689509
0.000414397944
0.000357819038
0.0002992165893
0.0002666286745
0.0002505806319
0.0002356028418
0.000193901417
0.0001363615073
0.0001220624636
0.0001270170959
6.604351177e-05
5.227110432e-06
1.723542098e-05
3.979544288e-05
2.343387823e-06
-8.420162918e-05
-0.0001200048713
-0.0001176605627
-0.0001813116752
-0.0002202855544
-0.0002777000464
-0.0004559350482
-0.0006915479144
-0.0008903492459
-0.001102329123
-0.001672323234
-0.002412144176
-0.003947996725
-0.007528767715
-0.02467111233
-0.07248576926
-0.06873265045
-0.03013389087
-0.02832124726
)


100
(
0.02283874851
0.02041951156
0.0157715417
0.01240078372
0.01063733908
0.009418401353
0.008478625976
0.007795109803
0.007288972449
0.006914454884
0.006516453577
0.006160964289
0.005777262055
0.005370204255
0.005021169699
0.004704399403
0.004413003611
0.004195824204
0.004036687314
0.003890766711
0.003754600063
0.003648300565
0.003556623974
0.003444461539
0.003321228666
0.003209823599
0.003120648169
0.003029023137
0.002913034644
0.00278191552
0.002675386075
0.002590394877
0.002501638979
0.002409068808
0.002347745336
0.002295352388
0.002188361755
0.002032448129
0.001923315678
0.001880154923
0.001818725818
0.001740558936
0.001689494559
0.001672189564
0.001624536183
0.001518142331
0.001430447346
0.001413695299
0.001394312194
0.001327367219
0.00126461592
0.001230390975
0.001197469107
0.001156641591
0.001116619678
0.001067806254
0.001011185526
0.0009602748701
0.0009167623743
0.0008806462926
0.0008492892797
0.0008182130766
0.0007871651888
0.0007570798789
0.0007259059559
0.0006839706968
0.0006319911395
0.0005918104913
0.0005627447694
0.0005394238046
0.0005087190125
0.0004765244206
0.0004621033517
0.0004655288805
0.0004224085144
0.0003620040573
0.0003542935412
0.0003654421923
0.0003551853996
0.0003060665556
0.0002953600224
0.0003522090443
0.0003142452168
0.0002458090735
0.0002335684891
0.0001441376071
2.681616068e-05
-2.679032357e-05
-0.0001615462895
-0.0004838862333
-0.0007603629353
-0.001200015895
-0.002041842662
-0.00353995571
-0.008882140051
-0.03407031919
-0.06949374009
-0.05630496337
-0.02741769668
-0.02628343392
)


100
(
0.02228105428
0.01997872001
0.01552208882
0.01230356757
0.01055451329
0.009314314966
0.008395343781
0.00772898256
0.007199629257
0.006827922335
0.006476212709
0.006106423201
0.005772579449
0.005408123916
0.005047287532
0.004738877179
0.00445922663
0.004204574536
0.004013453884
0.003880601534
0.003758349392
0.003632122819
0.003521218738
0.003435223593
0.003338400728
0.003225543691
0.003137725759
0.003073005518
0.002986730335
0.002858562524
0.002716480658
0.00262683138
0.002569570306
0.00247858871
0.002379733188
0.002330166987
0.002279455939
0.002148870422
0.002001255152
0.001933243553
0.001908989028
0.001846460276
0.001771460883
0.001732084118
0.001702746262
0.001621572964
0.001521526355
0.001472153858
0.001459006216
0.001431278471
0.001386739712
0.001353972714
0.001334324003
0.001313152368
0.001281723642
0.001239439853
0.001193322119
0.001143904499
0.001087565553
0.001032215539
0.0009875398952
0.0009538181376
0.0009306892452
0.0009046894436
0.0008799636274
0.0008655490743
0.0008517411284
0.0008450459132
0.0008226068431
0.0007846414642
0.0007635818759
0.0007587357881
0.0007355769603
0.000694408759
0.000677692417
0.0006680178075
0.0006575665134
0.0006339834947
0.0006241555665
0.0006561923211
0.0006459308791
0.0006290399264
0.0006347904817
0.0006047243541
0.0005615916106
0.0005225507289
0.0004221101943
0.0003071512276
0.0002121416594
2.930201298e-06
-0.0003642846103
-0.0008457015378
-0.001671265001
-0.003514771466
-0.009206509582
-0.0398283975
-0.06708450372
-0.04714707088
-0.02533255219
-0.02450057734
)


100
(
0.02173720915
0.01952541353
0.01527295966
0.0122031471
0.01042571366
0.009216612402
0.008318261368
0.007648643494
0.00715861067
0.006735159922
0.006404741835
0.006055417206
0.005729565666
0.005422372123
0.005083106232
0.00476338972
0.004491881295
0.00425119892
0.004028549184
0.003854930705
0.003744839948
0.003643202415
0.003528049669
0.003416826228
0.003340485128
0.003261768636
0.003154889801
0.003079635899
0.00302359305
0.002929513076
0.002772411619
0.002648042228
0.002608486675
0.002558312381
0.002446208726
0.00234980627
0.002321048438
0.002260460137
0.002113108234
0.001983584401
0.001952602763
0.001940940575
0.001880336184
0.001815838908
0.001773723013
0.001716573827
0.001636349761
0.001572026949
0.001538718869
0.00152383315
0.001512322633
0.001490195263
0.001457085688
0.00141669814
0.001380522144
0.00135579265
0.001329856028
0.001294274525
0.001253098312
0.001211063793
0.001161141521
0.001113851634
0.001084361486
0.001069881383
0.001067240283
0.001065982676
0.001050011614
0.00102597019
0.001017746007
0.001015554099
0.0009918294298
0.0009703404028
0.0009684995587
0.0009711206532
0.0009704212422
0.0009405094775
0.0009277127961
0.0009514482905
0.0009432773371
0.0009280124726
0.0009285290544
0.0009179356853
0.0009037737331
0.0008983584198
0.0009048837637
0.0008656194561
0.0007613639429
0.0006451686042
0.0005639049604
0.0004169108218
5.392851434e-05
-0.0004137015413
-0.001304595375
-0.003712144575
-0.01073601069
-0.04214844439
-0.0631082105
-0.04123770289
-0.02380670905
-0.02307302998
)


100
(
0.0212528667
0.01909970971
0.01501765483
0.01204392918
0.01029612281
0.009125794392
0.008248543341
0.007572254017
0.007089061133
0.006658131386
0.006314125457
0.006014464019
0.005677578494
0.005386974394
0.005108096119
0.004795476276
0.004524415841
0.004297367646
0.004068711503
0.003870841788
0.003725986648
0.003632570639
0.003547264638
0.003442471063
0.003336010288
0.003252341049
0.003179758204
0.003088485545
0.003026032818
0.002970176529
0.002858664168
0.002697125303
0.002602162005
0.002591263886
0.002532167352
0.002421048208
0.002345140607
0.002312751413
0.002218567678
0.002080102592
0.002000935235
0.001983393888
0.001964485517
0.001919296548
0.001872765134
0.001824483702
0.001772185486
0.001715351916
0.001662796639
0.001623162837
0.001592969256
0.00157094757
0.001551672083
0.001519706722
0.001478075016
0.001441163307
0.001415990282
0.001401833111
0.001389307196
0.001373175242
0.001355429443
0.001333044418
0.001299778761
0.001260965378
0.001233234291
0.001227312885
0.00123100072
0.001220136509
0.001195273996
0.001185588327
0.001192197084
0.001212179517
0.001219343508
0.001199293248
0.001208616213
0.001232988603
0.001221718643
0.00120898362
0.001211408192
0.00120445422
0.001189678308
0.001180959696
0.001199861732
0.00119682955
0.001152195669
0.001117401204
0.00110190612
0.001029626857
0.000878508872
0.0006933589905
0.0004266772661
-3.395056371e-05
-0.001201384997
-0.004412936261
-0.01291350193
-0.04255124209
-0.05843665783
-0.03698614624
-0.02252435592
-0.02192006896
)


100
(
0.02084353283
0.01870826121
0.01472072197
0.01183199966
0.01018160798
0.009029886415
0.008159513105
0.007506099917
0.007010735085
0.006624101193
0.006226117237
0.005928234816
0.005652914382
0.005335273587
0.005075734124
0.004831434268
0.004566782682
0.004314759511
0.004103515812
0.003928380119
0.003761649935
0.003616696699
0.003531524723
0.003464548403
0.003363641924
0.003259225695
0.003164529512
0.003096173393
0.003030411374
0.002977625705
0.002922462162
0.002776685239
0.002622407596
0.002582452057
0.002583722803
0.00250850963
0.002402364327
0.00234233298
0.002286311169
0.002188405278
0.002087256399
0.002031939988
0.002019985371
0.00202098936
0.001996666838
0.001951977834
0.001891391911
0.001823043313
0.001769671543
0.001726564472
0.001686759342
0.001658283955
0.001634015555
0.001609006426
0.001583038176
0.001550545154
0.001522893253
0.00151390995
0.001516372941
0.001522050122
0.001520187616
0.00150156383
0.001476348458
0.00145271061
0.001425595555
0.001398761242
0.001392114537
0.001398956998
0.001404547296
0.001406622542
0.001394346573
0.001393469451
0.001425814156
0.001454694088
0.001455347735
0.001460687861
0.001473621931
0.001468630749
0.001454923525
0.001448738371
0.001465932019
0.00147304761
0.001451019216
0.001426379724
0.00141421646
0.001417707777
0.001414193388
0.001317566504
0.001176293066
0.001028318445
0.0007577785847
0.0002768272276
-0.00146306265
-0.00538172207
-0.01592138363
-0.04328044661
-0.0532754476
-0.03289121377
-0.02128367575
-0.02075100162
)


100
(
0.02046212294
0.01832914621
0.01439528157
0.011638808
0.01006502731
0.008918651794
0.008061983274
0.007446467132
0.006939540989
0.006554244239
0.006192986259
0.005843775045
0.00557270837
0.005310187972
0.005028153671
0.00480435822
0.004599298018
0.004362753742
0.00413531231
0.003960941212
0.003814332592
0.00366458916
0.003530235909
0.003435227653
0.003370460263
0.003286752161
0.00318752783
0.003083629961
0.003012845679
0.003001297416
0.002974296189
0.00284344152
0.002680431708
0.002580187585
0.002561566623
0.002552298218
0.002486168923
0.002410326139
0.002345261786
0.002281836848
0.002217504774
0.002158715516
0.002105601442
0.002057554022
0.002034789241
0.002025426669
0.001991387344
0.001936087693
0.001875144238
0.001821786522
0.001787789451
0.001762755926
0.001736521177
0.001716615751
0.001699530886
0.001682473407
0.001665181191
0.001646619193
0.001633205422
0.001631929465
0.001639417735
0.001639114136
0.001624323049
0.001607667421
0.001600737324
0.001604870024
0.001612822216
0.001603374247
0.001584927752
0.001591192282
0.001609894203
0.001606024368
0.001619146416
0.001661889634
0.001687722618
0.001692436757
0.001688167803
0.00168826005
0.001701529668
0.001716139159
0.001719249736
0.001710841294
0.001698671915
0.001710587932
0.001718309721
0.001670748595
0.001639182847
0.001591919267
0.001476770476
0.001326246254
0.001042707122
0.0003832744085
-0.001940205183
-0.005695941597
-0.02024479428
-0.04565071313
-0.04742262389
-0.0284316052
-0.02020254243
-0.01998131917
)


100
(
0.02005734391
0.01794143639
0.01407501141
0.01145690093
0.009920018039
0.008799791008
0.007963758313
0.007360383103
0.00690017243
0.006483801965
0.006139239678
0.005793750068
0.005490462506
0.005252782181
0.005016037379
0.004763683144
0.004570454311
0.004397411286
0.004189955696
0.003985166097
0.003837382845
0.003717331074
0.003573565868
0.003442011312
0.003339970449
0.003281228429
0.003217665282
0.003130407937
0.003039797742
0.00297020809
0.002919302178
0.002909317029
0.002811771926
0.00261981675
0.002536025543
0.002538289875
0.002536708294
0.002509445355
0.002463816433
0.002389400705
0.002312776543
0.002249715034
0.002186736708
0.002129435328
0.002082185263
0.002045634951
0.002033526758
0.002023129113
0.001981736859
0.001932978174
0.001897225561
0.001870186741
0.001859946542
0.00185203432
0.001832412144
0.001810417201
0.001786978571
0.001767351435
0.001753571558
0.001744706826
0.001747445907
0.001758648413
0.001771537503
0.001784259471
0.001788183243
0.001784753759
0.001793070319
0.001807777126
0.001786180034
0.001766938489
0.00179019505
0.001823753189
0.001849844985
0.001861866121
0.001867985479
0.001870841596
0.001879961385
0.001916548533
0.001954535176
0.001961408072
0.001955040447
0.001963354182
0.001989230989
0.00197938467
0.001946101975
0.001922315337
0.001913309185
0.001845258635
0.001744516576
0.001600576718
0.001260323988
0.0004113853677
-0.001983145377
-0.006742679813
-0.02562527491
-0.04773122411
-0.04133507609
-0.02390871296
-0.01921179105
-0.01933109009
)


100
(
0.01963361092
0.01754601877
0.01379540765
0.01126055653
0.009740062548
0.008672348972
0.007878785884
0.007265984455
0.006828551517
0.006423678086
0.006071390727
0.005759623381
0.005442622375
0.005181096797
0.00497045342
0.004757540311
0.004532970496
0.004364083293
0.004219498105
0.004043843399
0.003867378305
0.003726083751
0.003612400885
0.003485027073
0.003361063253
0.00325477467
0.003198840278
0.003155680654
0.003077115166
0.002999100208
0.002927545597
0.002880074693
0.002814890135
0.002697771657
0.002615710714
0.002588863338
0.002569609761
0.002561731615
0.002538585472
0.002477530004
0.002401325477
0.002318687016
0.002257716088
0.00221265238
0.00215999907
0.002114430891
0.002084185175
0.002060889649
0.002049186015
0.002042432998
0.002033658741
0.002021254194
0.00199164932
0.001954095218
0.001932401288
0.00191828833
0.001896755102
0.001880078207
0.001871558888
0.001870548771
0.001882301431
0.001904178883
0.001922015884
0.001933275284
0.001948114914
0.001946098762
0.00194134176
0.001959192337
0.001979896151
0.002001380832
0.002015544213
0.002014260828
0.002012029691
0.002014412871
0.002024942893
0.002063699774
0.002112431893
0.002144865839
0.002163511385
0.002172364906
0.002192559235
0.002217535272
0.002224216872
0.002211213216
0.002217418249
0.002194985283
0.002136830356
0.002097118369
0.002014752061
0.001834505021
0.001429314528
0.000405274603
-0.002132216056
-0.009184263319
-0.02983425027
-0.04696636965
-0.03609348146
-0.02077066931
-0.01826248248
-0.0184698299
)


100
(
0.01924118999
0.01718350041
0.01351873887
0.0110232859
0.009569453709
0.008541109573
0.007765176397
0.0071729843
0.00673803499
0.00638602926
0.006004869159
0.005701863346
0.005426838944
0.005130055522
0.004898612527
0.004717403194
0.004530221711
0.004331085506
0.004181621665
0.004066504532
0.003919179678
0.003757611456
0.003617538586
0.00351209219
0.003403219899
0.003291647748
0.003195236048
0.003120516115
0.003080345079
0.003031066086
0.002961754763
0.002892065554
0.002812864692
0.002758900357
0.002717969714
0.002660639279
0.002612333656
0.002566129116
0.00253164812
0.002517919976
0.002481749792
0.002413205658
0.002340615192
0.002277081199
0.0022344941
0.002201288951
0.002163986358
0.002143390903
0.002142884079
0.002142863804
0.00214081925
0.002131214663
0.002102423026
0.002063964824
0.00202891071
0.002007744685
0.001998392153
0.001990817955
0.001994254157
0.002015925381
0.002037233672
0.002048060864
0.002050203404
0.002051341866
0.002065849316
0.002086039742
0.002101291774
0.002129514322
0.002162409693
0.002176815089
0.002178162051
0.002173124264
0.002173387973
0.002194735384
0.002245605844
0.002291156893
0.002295986845
0.002292545749
0.002321707021
0.002389924799
0.002438000189
0.002441068969
0.002437526447
0.002451533048
0.002456332432
0.002425527037
0.002411140098
0.002369898679
0.002215418976
0.001999589242
0.001544386833
0.0002836068989
-0.002758435277
-0.01106025172
-0.03149031627
-0.04479615938
-0.03226012346
-0.01904881017
-0.01775180586
-0.0180808506
)


100
(
0.01888310495
0.01684346612
0.01322450444
0.01078982597
0.009401454046
0.008398013671
0.007636805213
0.007091581654
0.006642920498
0.006305678754
0.005984057192
0.005646314645
0.005368454301
0.005110796636
0.004846357802
0.00464492555
0.004491684159
0.004328055996
0.004155508692
0.004024113005
0.003929134599
0.003804789304
0.003655365607
0.003512925242
0.003420847185
0.003339031147
0.003230006833
0.003137376517
0.003059751606
0.003016846129
0.002989353324
0.002942425089
0.002886884184
0.0028118745
0.002731247912
0.002687753863
0.002654836274
0.002606607333
0.00255815764
0.00251294897
0.002491838275
0.002477505139
0.002427882866
0.002365755755
0.002317187144
0.002277405754
0.00226379275
0.002261418075
0.00224644737
0.002232098263
0.002219854162
0.002208039482
0.002199168674
0.002176254738
0.002135295397
0.002106118805
0.002099799297
0.002118254699
0.002144739066
0.002155656814
0.002155338759
0.002159479761
0.002174722703
0.002177204878
0.002182528231
0.002215049004
0.002259048716
0.002291639423
0.002304082892
0.002310061422
0.002314832134
0.002320558287
0.002348659399
0.00239695425
0.002432721078
0.002444678177
0.002444801169
0.002465555857
0.002539646986
0.002613390632
0.002612425814
0.002599830384
0.002648020099
0.002688863562
0.002683919875
0.002666760911
0.002643509212
0.002550940257
0.002409122758
0.002190251638
0.001615243456
0.0002146371587
-0.002952159212
-0.01223820409
-0.03184571889
-0.04232414429
-0.02980416027
-0.01799326176
-0.01702888215
-0.01738302263
)


100
(
0.01853872879
0.01651356226
0.01292989638
0.01058135995
0.009223264439
0.008243870657
0.007505229108
0.006978519491
0.006574579825
0.006220295486
0.005926510891
0.005617450215
0.005310791441
0.00506060361
0.004829759989
0.004595073439
0.004416849432
0.004289301695
0.004152557821
0.004004738372
0.003882052348
0.003799456072
0.003696881325
0.003564535848
0.003438941274
0.003336891591
0.003259483015
0.003174292977
0.003095760988
0.003033778622
0.002981324337
0.002962531487
0.002934868775
0.002866683993
0.002787358212
0.002702868206
0.002652691341
0.002634325126
0.00259892694
0.002553259273
0.002514753904
0.00248035824
0.002461985602
0.002443560611
0.002415816091
0.002398271652
0.002373659875
0.0023368265
0.002320313409
0.002317385123
0.002304265438
0.002293554451
0.002283761648
0.002266612685
0.002246761783
0.002234216736
0.002235501376
0.002241764761
0.002259441409
0.002278477356
0.002276618214
0.002272457657
0.002280956207
0.002299092784
0.002335330962
0.002373332691
0.002391939916
0.002403007475
0.002413080923
0.002420243174
0.002433469565
0.002482738166
0.002538442121
0.002566685143
0.002583529232
0.002594150531
0.00261217074
0.002666020929
0.00272679769
0.002752585134
0.002761082616
0.002809893307
0.002872627983
0.002865092378
0.002875653128
0.002900703049
0.002857499609
0.002765758997
0.002585212313
0.002343028868
0.001855912595
0.0002231684736
-0.003005920014
-0.01345751712
-0.03182624784
-0.03966298063
-0.02802011871
-0.01718806377
-0.01635718995
-0.01675924721
)


100
(
0.01815756112
0.01616910276
0.01266264217
0.01037777966
0.009029125886
0.008081006239
0.007387765507
0.006853702844
0.006479150626
0.006144991787
0.005848353231
0.005573711458
0.005279621795
0.005005975536
0.004784808184
0.004580821889
0.004372552346
0.00421220367
0.004110003535
0.00400200366
0.003872896356
0.003748543333
0.003679047222
0.003606460226
0.003482001952
0.003364397691
0.003255157127
0.003192658154
0.003150942558
0.003084839101
0.003022809181
0.002960800497
0.002916153273
0.002891768392
0.00284316835
0.002768824228
0.002689975508
0.002624161807
0.00260208211
0.002592560413
0.002555844569
0.002523497048
0.00250584911
0.002494963898
0.002491846737
0.0024803072
0.002452511036
0.00242294877
0.002395338095
0.002377106162
0.002379445817
0.00238022238
0.002369295517
0.002365543716
0.002371833624
0.002373121709
0.002362714162
0.002352509307
0.002358121918
0.00238155718
0.002403266236
0.002400614138
0.002403913225
0.002440722365
0.002475289136
0.002489861546
0.002499140019
0.00251029225
0.002523392309
0.002547983508
0.002603556072
0.002652351128
0.00266976445
0.002683040436
0.002701391359
0.002742204459
0.002805325905
0.002864403981
0.002894452869
0.002892077499
0.002934436408
0.003000780265
0.003025131275
0.003047579059
0.003124266408
0.003115169351
0.00298673408
0.00289678165
0.002783391379
0.002502626931
0.001894386816
7.528084766e-05
-0.003648649952
-0.01465650799
-0.03125718613
-0.03698017726
-0.02620439118
-0.01646682868
-0.01586919458
-0.01641618405
)


100
(
0.01775832584
0.01582209857
0.01241667706
0.01016473452
0.008847060102
0.007917428109
0.007243112582
0.006729395285
0.006365682971
0.006080479104
0.005764932863
0.005498780527
0.005251918758
0.004973363914
0.004728648668
0.004537939303
0.004358952346
0.004177164247
0.004032630155
0.003951256846
0.003869530236
0.003757894206
0.003648819938
0.003564371791
0.003495597611
0.003401349225
0.003307185839
0.003231157819
0.003160652405
0.003108035968
0.003057834417
0.00299955471
0.002936518044
0.002870102705
0.002847304246
0.002825865645
0.002751948515
0.002677677912
0.002623218872
0.00257858003
0.002572537934
0.002588295908
0.002588777225
0.002577144478
0.002540324563
0.002495063345
0.002492494143
0.002497440304
0.002471088308
0.002451466813
0.002445191821
0.002446872863
0.002467403855
0.002487943205
0.002486534878
0.002475086241
0.002471215873
0.002469018712
0.002464569478
0.002479568483
0.002507999748
0.002535717916
0.002564153282
0.002585018509
0.002589366021
0.002589599795
0.002597925261
0.002612153666
0.002646175765
0.0027029988
0.002748184367
0.002772133745
0.002790749744
0.002809475166
0.002858571511
0.002925441158
0.002969370978
0.002996203529
0.003015341615
0.003051345508
0.003136822511
0.003191439732
0.003179279733
0.003224656693
0.003253438024
0.003202599321
0.003166676419
0.003085331694
0.002937343623
0.002618366458
0.001922408836
-5.33778725e-05
-0.003809636338
-0.01595105669
-0.0314834089
-0.0346169063
-0.0242729947
-0.01557098068
-0.01542008488
-0.01612016339
)


100
(
0.01738731537
0.01549498912
0.01216758502
0.009946071976
0.008668605424
0.007759080795
0.007086374516
0.006616655245
0.006246635854
0.0059787493
0.005713656856
0.00541472996
0.005175002858
0.004952799845
0.004696811567
0.004477204394
0.004316595927
0.004165354394
0.004009900702
0.003871009784
0.003810869343
0.00376164281
0.003651446993
0.003546742482
0.003450400847
0.003400872002
0.003363477047
0.003287627803
0.003199808803
0.003101738479
0.003051364129
0.00303053575
0.002976045792
0.002914775288
0.002854721208
0.002804642919
0.002784383801
0.002743186329
0.002670728341
0.002629347105
0.002620539462
0.002616093368
0.002625323887
0.002630463089
0.002602145071
0.002559808666
0.002521595514
0.002507192241
0.002520480792
0.002523248812
0.002519526531
0.002551348947
0.002575866237
0.002571164444
0.00256806926
0.002564631757
0.00256180699
0.002569031111
0.00257991675
0.002593700605
0.002627554509
0.002662435394
0.002675021989
0.002680695892
0.002687538851
0.002696347895
0.002710915562
0.002750770941
0.002813684295
0.002852915727
0.002862241643
0.002872171095
0.002894295446
0.002942986456
0.003006574305
0.003065679987
0.003116231924
0.003149752126
0.0031737654
0.003217034055
0.003264416708
0.00331725166
0.003381985129
0.003392066494
0.003331957199
0.003322540142
0.003336761585
0.003272012182
0.003051546839
0.002677940079
0.001911142037
-0.0002298094459
-0.00458076224
-0.01724725059
-0.03112536099
-0.03241487416
-0.02253637099
-0.01468467258
-0.01489313383
-0.01577416719
)


100
(
0.01703620166
0.01517949138
0.01191313773
0.009752039886
0.008492265659
0.007596927897
0.006929302089
0.006478943408
0.0061528698
0.005867420121
0.005619861447
0.005363236111
0.005093541148
0.004876548299
0.004676854982
0.004448424748
0.004251534883
0.004124693614
0.003985904022
0.003840195077
0.003758576145
0.003703475123