/*--------------------------------*- C++ -*----------------------------------*\
| =========                 |                                                 |
| \\      /  F ield         | OpenFOAM: The Open Source CFD Toolbox           |
|  \\    /   O peration     | Version:  2.3.1                                 |
|   \\  /    A nd           | Web:      www.OpenFOAM.org                      |
|    \\/     M anipulation  |                                                 |
\*---------------------------------------------------------------------------*/
FoamFile
{
    version     2.0;
    format      ascii;
    class       dictionary;
    location    "constant";
    object      H;
}
// * * * * * * * * * * * * * * * * * * * * * * * * * * * * * * * * * * * * * //

H_table
100
(

100
(
3.523594793e-06
3.025791442e-06
2.672723494e-06
2.411536505e-06
2.196914691e-06
2.023797038e-06
1.873721539e-06
1.742580136e-06
1.625100365e-06
1.521093146e-06
1.423747188e-06
1.344794977e-06
1.270260402e-06
1.201011355e-06
1.139751093e-06
1.081446509e-06
1.02600552e-06
9.757379353e-07
9.273721798e-07
8.805749019e-07
8.374894908e-07
7.963417912e-07
7.562863825e-07
7.185224342e-07
6.850775145e-07
6.525238766e-07
6.207670028e-07
5.903205413e-07
5.613503685e-07
5.330477475e-07
5.053743732e-07
4.809958467e-07
4.587502909e-07
4.370178092e-07
4.157442759e-07
3.94936472e-07
3.74631837e-07
3.547794847e-07
3.353745361e-07
3.168508338e-07
2.996563479e-07
2.828773103e-07
2.664822592e-07
2.512541267e-07
2.379209215e-07
2.248953352e-07
2.121378792e-07
1.996240568e-07
1.875481617e-07
1.757032138e-07
1.640800015e-07
1.528978071e-07
1.428327887e-07
1.32964705e-07
1.232922063e-07
1.145404963e-07
1.069260918e-07
9.954539697e-08
9.249608995e-08
8.586655833e-08
7.960013084e-08
7.364863281e-08
6.798956672e-08
6.258571861e-08
5.744956708e-08
5.260385711e-08
4.802011271e-08
4.369257828e-08
3.960571266e-08
3.580034584e-08
3.222090273e-08
2.883083665e-08
2.571760562e-08
2.28396827e-08
2.009940696e-08
1.762623288e-08
1.538663746e-08
1.322544484e-08
1.135816408e-08
9.629679034e-09
8.057863963e-09
6.752375969e-09
5.497301253e-09
4.515970717e-09
3.582048925e-09
2.867026921e-09
2.207927768e-09
1.71679912e-09
1.281286172e-09
9.157849996e-10
6.238163749e-10
4.040542999e-10
2.533907426e-10
1.41127994e-10
7.547995586e-11
3.679525948e-11
2.414634799e-11
1.388235924e-11
1.703211936e-12
2.854497676e-24
)


100
(
3.571068511e-06
3.045434429e-06
2.683202828e-06
2.399919081e-06
2.179619579e-06
1.996564037e-06
1.831287206e-06
1.698220952e-06
1.573859317e-06
1.465565222e-06
1.368292584e-06
1.278661176e-06
1.201261202e-06
1.129937857e-06
1.063376311e-06
1.003802074e-06
9.484901409e-07
8.95310816e-07
8.478161145e-07
8.029398571e-07
7.595480415e-07
7.198961189e-07
6.821042874e-07
6.451970041e-07
6.107840932e-07
5.803800359e-07
5.504568742e-07
5.208647958e-07
4.931447906e-07
4.683137226e-07
4.429912965e-07
4.182279493e-07
3.960254433e-07
3.764408164e-07
3.57051887e-07
3.380002335e-07
3.197087098e-07
3.031206209e-07
2.868201324e-07
2.700850136e-07
2.540541616e-07
2.397760257e-07
2.263375063e-07
2.127097784e-07
1.99873018e-07
1.886349035e-07
1.7835377e-07
1.681509109e-07
1.582055145e-07
1.492937019e-07
1.412152725e-07
1.330652289e-07
1.248440439e-07
1.173237874e-07
1.105084321e-07
1.040692981e-07
9.819947712e-08
9.347452037e-08
8.970989354e-08
8.630066409e-08
8.251761412e-08
7.87622406e-08
7.51984709e-08
7.108997251e-08
6.680539605e-08
6.360007769e-08
6.099532594e-08
5.765906627e-08
5.464345374e-08
5.230624079e-08
4.999199221e-08
4.764836587e-08
4.654607053e-08
4.640770777e-08
4.601588962e-08
4.526761744e-08
4.416009484e-08
4.197129376e-08
3.994577584e-08
3.848648903e-08
3.697830873e-08
3.566989557e-08
3.501888622e-08
3.473672228e-08
3.294735779e-08
3.313719373e-08
3.351207225e-08
3.240782666e-08
3.486009332e-08
3.334566193e-08
3.564888105e-08
3.673808314e-08
4.258633771e-08
4.439006136e-08
5.177265068e-08
5.253619076e-08
5.751663896e-08
5.505875733e-08
1.934514655e-08
5.252813831e-09
)


100
(
3.618528066e-06
3.061768706e-06
2.690112127e-06
2.398461708e-06
2.175929009e-06
1.978406913e-06
1.813871417e-06
1.670011853e-06
1.546588023e-06
1.433320515e-06
1.334203271e-06
1.243463998e-06
1.162872547e-06
1.091210415e-06
1.025097717e-06
9.651958996e-07
9.109628854e-07
8.602844086e-07
8.137834482e-07
7.714103555e-07
7.31049284e-07
6.931562755e-07
6.58199064e-07
6.245956495e-07
5.924518319e-07
5.626872535e-07
5.353863797e-07
5.088354094e-07
4.834303397e-07
4.598145303e-07
4.380463513e-07
4.165151264e-07
3.957118332e-07
3.766346992e-07
3.595374784e-07
3.431762603e-07
3.272672966e-07
3.123647763e-07
2.989714348e-07
2.861826688e-07
2.730762657e-07
2.603464154e-07
2.488074813e-07
2.384415944e-07
2.278940669e-07
2.175356535e-07
2.081689707e-07
1.998354633e-07
1.917989055e-07
1.838559945e-07
1.765398166e-07
1.701630023e-07
1.644518241e-07
1.579938139e-07
1.513639888e-07
1.456218805e-07
1.413931524e-07
1.369353311e-07
1.330816552e-07
1.307428208e-07
1.297194703e-07
1.274993513e-07
1.249406096e-07
1.220540453e-07
1.183251214e-07
1.142503958e-07
1.113633059e-07
1.090062016e-07
1.056452387e-07
1.028555009e-07
1.009466173e-07
9.92795815e-08
9.717488308e-08
9.675005114e-08
9.935088537e-08
1.028458573e-07
1.046412145e-07
1.057660865e-07
1.072222331e-07
1.068187077e-07
1.071322326e-07
1.092644059e-07
1.124191507e-07
1.163263807e-07
1.190858099e-07
1.217198957e-07
1.262959984e-07
1.300717796e-07
1.367239703e-07
1.480505043e-07
1.601782676e-07
1.71801843e-07
1.876920282e-07
2.151682268e-07
2.26951036e-07
2.465052442e-07
2.735848514e-07
1.965541642e-07
9.644606855e-08
4.514732304e-08
)


100
(
3.665965225e-06
3.086954699e-06
2.703209366e-06
2.413791321e-06
2.179333559e-06
1.974533017e-06
1.809457113e-06
1.661686575e-06
1.537724877e-06
1.425695628e-06
1.324418804e-06
1.234950664e-06
1.153989171e-06
1.082679821e-06
1.018469956e-06
9.605383777e-07
9.084903999e-07
8.609016075e-07
8.172511095e-07
7.77819873e-07
7.410648856e-07
7.060829997e-07
6.73578999e-07
6.437103631e-07
6.148769227e-07
5.872966576e-07
5.617217345e-07
5.382985512e-07
5.155438284e-07
4.938068138e-07
4.736799913e-07
4.554604642e-07
4.373970117e-07
4.197611237e-07
4.035350318e-07
3.889856591e-07
3.754860306e-07
3.624836941e-07
3.503495101e-07
3.39265061e-07
3.295180772e-07
3.198362956e-07
3.09545274e-07
2.995387955e-07
2.906731909e-07
2.833809935e-07
2.752813694e-07
2.670372783e-07
2.598168905e-07
2.547946182e-07
2.485516602e-07
2.418705354e-07
2.359590737e-07
2.317166012e-07
2.262061925e-07
2.196068407e-07
2.142943053e-07
2.1172129e-07
2.079428804e-07
2.031118361e-07
2.003827746e-07
1.991967459e-07
1.963626923e-07
1.929666482e-07
1.898036856e-07
1.864828394e-07
1.828845547e-07
1.804967313e-07
1.803743578e-07
1.818846207e-07
1.838881407e-07
1.871140769e-07
1.919382811e-07
1.982040528e-07
2.044717946e-07
2.098966366e-07
2.153068795e-07
2.22675359e-07
2.295226634e-07
2.342850223e-07
2.404346986e-07
2.479860976e-07
2.547139567e-07
2.609815853e-07
2.697565965e-07
2.820275513e-07
2.981232851e-07
3.179306139e-07
3.388841695e-07
3.655938785e-07
3.944090107e-07
4.220702581e-07
4.574762488e-07
4.907187973e-07
5.3993081e-07
5.978789376e-07
6.432484059e-07
4.214050936e-07
2.470623236e-07
1.467191973e-07
)


100
(
3.713372098e-06
3.126085565e-06
2.730930881e-06
2.434455578e-06
2.189144782e-06
1.988601225e-06
1.817901675e-06
1.673750268e-06
1.547541324e-06
1.437926755e-06
1.33871229e-06
1.250358303e-06
1.171576026e-06
1.101309365e-06
1.03915687e-06
9.839107369e-07
9.350199513e-07
8.909402125e-07
8.50621782e-07
8.139906224e-07
7.808641727e-07
7.494893828e-07
7.19777806e-07
6.924111922e-07
6.675528255e-07
6.432355888e-07
6.198238931e-07
5.981138832e-07
5.782323469e-07
5.589437165e-07
5.404065051e-07
5.231377845e-07
5.073532823e-07
4.928706401e-07
4.777583292e-07
4.632688267e-07
4.503772246e-07
4.39960076e-07
4.293238444e-07
4.191685365e-07
4.096397018e-07
4.014444493e-07
3.940770774e-07
3.85076297e-07
3.76035402e-07
3.695358155e-07
3.658299958e-07
3.590672238e-07
3.514337927e-07
3.462416653e-07
3.433784798e-07
3.379614316e-07
3.314337987e-07
3.269110651e-07
3.237056995e-07
3.185297996e-07
3.129204928e-07
3.108249321e-07
3.10086674e-07
3.079739085e-07
3.048717888e-07
3.029952147e-07
3.023640755e-07
3.017814367e-07
3.007583745e-07
3.004607601e-07
3.016296987e-07
3.042937958e-07
3.066487348e-07
3.097372374e-07
3.152161888e-07
3.239632672e-07
3.351496287e-07
3.463609482e-07
3.570456289e-07
3.691261989e-07
3.812862355e-07
3.907253733e-07
3.996837927e-07
4.116060274e-07
4.263994664e-07
4.430081747e-07
4.635995499e-07
4.883606828e-07
5.133585341e-07
5.375656379e-07
5.640616527e-07
5.989377175e-07
6.446026001e-07
6.989818968e-07
7.328056456e-07
7.781351926e-07
8.373904648e-07
9.049385669e-07
9.946492153e-07
1.104036693e-06
1.111739369e-06
7.243501738e-07
4.679928247e-07
3.20378094e-07
)


100
(
3.760751538e-06
3.166448032e-06
2.762020433e-06
2.45721667e-06
2.211584244e-06
2.012900745e-06
1.841846602e-06
1.699711878e-06
1.57647435e-06
1.46828967e-06
1.372897744e-06
1.286914199e-06
1.210353289e-06
1.142706026e-06
1.082943753e-06
1.03019981e-06
9.840499396e-07
9.437505473e-07
9.071624941e-07
8.73445707e-07
8.427894915e-07
8.15038935e-07
7.888020005e-07
7.639191109e-07
7.411399474e-07
7.204765647e-07
7.009297948e-07
6.812262181e-07
6.620470727e-07
6.443247284e-07
6.284761467e-07
6.124280422e-07
5.970664653e-07
5.829158029e-07
5.711713196e-07
5.577799086e-07
5.444080453e-07
5.331089336e-07
5.269527736e-07
5.186132431e-07
5.091766337e-07
5.009725173e-07
4.960206626e-07
4.901277873e-07
4.814094757e-07
4.737668436e-07
4.719630025e-07
4.711998503e-07
4.64906903e-07
4.587538333e-07
4.566428899e-07
4.555402976e-07
4.516412975e-07
4.474606079e-07
4.451358351e-07
4.43683522e-07
4.424212208e-07
4.426220212e-07
4.432697707e-07
4.448648972e-07
4.481876434e-07
4.514215302e-07
4.528338349e-07
4.545348623e-07
4.584296917e-07
4.637939607e-07
4.683780142e-07
4.723393565e-07
4.7795243e-07
4.857830776e-07
4.952683665e-07
5.053402512e-07
5.175371675e-07
5.335425248e-07
5.528434301e-07
5.705987303e-07
5.8852801e-07
6.090244789e-07
6.328771568e-07
6.588085431e-07
6.862743783e-07
7.180482918e-07
7.548789963e-07
7.927107911e-07
8.340572158e-07
8.786831978e-07
9.232946386e-07
9.771451191e-07
1.057717221e-06
1.123528901e-06
1.172323518e-06
1.260156519e-06
1.345185844e-06
1.463738832e-06
1.603637937e-06
1.768780387e-06
1.616107919e-06
1.105927493e-06
7.630399028e-07
5.80655665e-07
)


100
(
3.80137481e-06
3.204286707e-06
2.793189557e-06
2.486196728e-06
2.246645406e-06
2.046387354e-06
1.880405089e-06
1.739117887e-06
1.619985101e-06
1.515322075e-06
1.422659911e-06
1.340798614e-06
1.267235675e-06
1.202067609e-06
1.145091109e-06
1.095138789e-06
1.051274154e-06
1.013478292e-06
9.807526578e-07
9.506448469e-07
9.224539593e-07
8.967431194e-07
8.736021989e-07
8.522925099e-07
8.316472829e-07
8.130350576e-07
7.959815839e-07
7.78841324e-07
7.608071205e-07
7.43664425e-07
7.289759765e-07
7.16767574e-07
7.02760833e-07
6.887565574e-07
6.772776971e-07
6.681065678e-07
6.558571304e-07
6.439524162e-07
6.36909508e-07
6.336329377e-07
6.265266283e-07
6.181148415e-07
6.126517306e-07
6.099773504e-07
6.051001063e-07
5.980402377e-07
5.960418553e-07
5.976632608e-07
5.99036099e-07
5.96149363e-07
5.955387426e-07
5.96873106e-07
5.986980145e-07
5.996327644e-07
5.991655435e-07
5.993257605e-07
6.010421089e-07
6.046350412e-07
6.088896035e-07
6.128515564e-07
6.180981778e-07
6.256992901e-07
6.357276868e-07
6.469203466e-07
6.55815835e-07
6.652196121e-07
6.766726558e-07
6.900008372e-07
7.053284027e-07
7.195941203e-07
7.340176725e-07
7.512418598e-07
7.716422179e-07
7.922432251e-07
8.140656573e-07
8.401690424e-07
8.703143272e-07
9.034641058e-07
9.378088876e-07
9.760119447e-07
1.019541593e-06
1.067269178e-06
1.121654347e-06
1.181085124e-06
1.243328115e-06
1.308837405e-06
1.380801634e-06
1.462543381e-06
1.566589374e-06
1.662661839e-06
1.745556942e-06
1.858166391e-06
1.994568293e-06
2.167477506e-06
2.378429605e-06
2.590774378e-06
2.221282142e-06
1.598337078e-06
1.151091526e-06
9.539012488e-07
)


100
(
3.83756236e-06
3.240487283e-06
2.82682874e-06
2.525064249e-06
2.287574544e-06
2.09041889e-06
1.928389649e-06
1.791912234e-06
1.675441539e-06
1.575457656e-06
1.486364996e-06
1.407877397e-06
1.338837696e-06
1.276682622e-06
1.222052957e-06
1.174720285e-06
1.133500531e-06
1.097517425e-06
1.067392158e-06
1.040668861e-06
1.016353345e-06
9.929462488e-07
9.715715769e-07
9.525090485e-07
9.35769097e-07
9.183229614e-07
9.025090889e-07
8.880207158e-07
8.724912204e-07
8.561519467e-07
8.416937067e-07
8.325723769e-07
8.226706566e-07
8.096751448e-07
7.971298739e-07
7.899874951e-07
7.828668495e-07
7.716378243e-07
7.620952371e-07
7.598117003e-07
7.595550706e-07
7.541113211e-07
7.480147326e-07
7.462933373e-07
7.462678142e-07
7.447072135e-07
7.44227691e-07
7.475848043e-07
7.526584491e-07
7.579828745e-07
7.62094167e-07
7.646166073e-07
7.675618924e-07
7.715851903e-07
7.786478426e-07
7.870816892e-07
7.922420994e-07
7.97582272e-07
8.055378678e-07
8.160127861e-07
8.282461219e-07
8.398465411e-07
8.540472163e-07
8.709254038e-07
8.892349469e-07
9.098242124e-07
9.308019195e-07
9.501401276e-07
9.711269698e-07
9.979338043e-07
1.02789409e-06
1.056439955e-06
1.085780557e-06
1.116858313e-06
1.150483517e-06
1.186952351e-06
1.225156202e-06
1.270000626e-06
1.320961703e-06
1.375539097e-06
1.43553159e-06
1.501970832e-06
1.574974957e-06
1.654704324e-06
1.741874283e-06
1.837396796e-06
1.938699119e-06
2.046916709e-06
2.167443677e-06
2.295222013e-06
2.427226009e-06
2.591391454e-06
2.78692196e-06
3.024150606e-06
3.31163244e-06
3.557497152e-06
2.933932051e-06
2.207069144e-06
1.657571908e-06
1.46373505e-06
)


100
(
3.873731402e-06
3.280608853e-06
2.867805422e-06
2.569625626e-06
2.33372128e-06
2.143686649e-06
1.985081839e-06
1.854418222e-06
1.741956192e-06
1.645680758e-06
1.562344518e-06
1.487159798e-06
1.421508132e-06
1.364190246e-06
1.312388993e-06
1.267197173e-06
1.228172648e-06
1.194696924e-06
1.167427435e-06
1.142549425e-06
1.121125401e-06
1.102056337e-06
1.082707242e-06
1.065057346e-06
1.049116428e-06
1.035611392e-06
1.021582029e-06
1.00810906e-06
9.956334453e-07
9.814315725e-07
9.67734455e-07
9.576288781e-07
9.531637589e-07
9.454853548e-07
9.340026367e-07
9.253719808e-07
9.213799134e-07
9.162279671e-07
9.072826342e-07
9.042964029e-07
9.062487748e-07
9.088368015e-07
9.071733984e-07
9.073696403e-07
9.098255499e-07
9.139111601e-07
9.187634824e-07
9.233323966e-07
9.292454437e-07
9.366162352e-07
9.453444858e-07
9.566522198e-07
9.67137303e-07
9.75491628e-07
9.851353185e-07
9.980478813e-07
1.013451745e-06
1.03052406e-06
1.045108034e-06
1.05995293e-06
1.076891344e-06
1.095657321e-06
1.118062673e-06
1.142435884e-06
1.167037107e-06
1.193794559e-06
1.224702877e-06
1.25915023e-06
1.294405889e-06
1.330864143e-06
1.371143964e-06
1.414030957e-06
1.460335844e-06
1.504725985e-06
1.549471455e-06
1.60251775e-06
1.661692383e-06
1.723440278e-06
1.789800314e-06
1.862179587e-06
1.941293996e-06
2.027455703e-06
2.122272693e-06
2.227925052e-06
2.341212068e-06
2.461562934e-06
2.59121475e-06
2.734228876e-06
2.883768873e-06
3.044514226e-06
3.226361731e-06
3.44452365e-06
3.706797662e-06
4.022680962e-06
4.385982759e-06
4.598968712e-06
3.73327771e-06
2.91413189e-06
2.264065429e-06
2.123322771e-06
)


100
(
3.909871891e-06
3.325374866e-06
2.913469482e-06
2.616808824e-06
2.386729718e-06
2.202614557e-06
2.050865764e-06
1.924420964e-06
1.818957097e-06
1.726109715e-06
1.64674169e-06
1.577869105e-06
1.515200104e-06
1.461077437e-06
1.414582425e-06
1.372238869e-06
1.335898894e-06
1.30576981e-06
1.280121044e-06
1.257141335e-06
1.237248446e-06
1.220206652e-06
1.206114394e-06
1.190241884e-06
1.175668646e-06
1.162827615e-06
1.152101648e-06
1.141738969e-06
1.129866182e-06
1.118636059e-06
1.105755401e-06
1.096747576e-06
1.093645713e-06
1.093662136e-06
1.087936358e-06
1.078907362e-06
1.076103173e-06
1.076121714e-06
1.074781228e-06
1.072670587e-06
1.075946344e-06
1.082377902e-06
1.089898223e-06
1.095223729e-06
1.099066337e-06
1.104266166e-06
1.111174082e-06
1.121917163e-06
1.135249801e-06
1.146785798e-06
1.159491308e-06
1.174445307e-06
1.191439101e-06
1.21092787e-06
1.230718711e-06
1.248847097e-06
1.270464625e-06
1.294652496e-06
1.319763596e-06
1.347319345e-06
1.374453404e-06
1.399530531e-06
1.426866737e-06
1.460388228e-06
1.498857028e-06
1.537833427e-06
1.577284875e-06
1.621349507e-06
1.668910967e-06
1.721073487e-06
1.77702538e-06
1.833254494e-06
1.893308487e-06
1.959380416e-06
2.029736684e-06
2.101698339e-06
2.178362564e-06
2.260271475e-06
2.347830396e-06
2.442111972e-06
2.545121477e-06
2.65821946e-06
2.77848994e-06
2.905780223e-06
3.041749958e-06
3.189562073e-06
3.355374258e-06
3.532706134e-06
3.718474815e-06
3.926164081e-06
4.161778644e-06
4.447374533e-06
4.773308137e-06
5.181031975e-06
5.638364806e-06
5.692402715e-06
4.587455041e-06
3.684176213e-06
2.939326268e-06
2.907896435e-06
)


100
(
3.945977665e-06
3.368895791e-06
2.95986008e-06
2.666941294e-06
2.445633031e-06
2.266976237e-06
2.123559345e-06
2.002755863e-06
1.902617509e-06
1.816318154e-06
1.740439404e-06
1.675883757e-06
1.619199048e-06
1.568472571e-06
1.525126147e-06
1.488673629e-06
1.455064589e-06
1.426666987e-06
1.403194937e-06
1.384261984e-06
1.366062595e-06
1.350550325e-06
1.337206201e-06
1.326740872e-06
1.315725643e-06
1.304723323e-06
1.295143567e-06
1.287221568e-06
1.280019596e-06
1.267692924e-06
1.258993652e-06
1.25564761e-06
1.249255226e-06
1.25368502e-06
1.257249787e-06
1.255380823e-06
1.254088021e-06
1.256455205e-06
1.261271625e-06
1.266576704e-06
1.272336156e-06
1.27921221e-06
1.287499163e-06
1.298018057e-06
1.31228243e-06
1.324678996e-06
1.335930126e-06
1.349390755e-06
1.366461135e-06
1.387597686e-06
1.41112959e-06
1.431485324e-06
1.45360859e-06
1.479291014e-06
1.506833528e-06
1.53756947e-06
1.571666077e-06
1.603479855e-06
1.636591241e-06
1.672267853e-06
1.711921822e-06
1.755047727e-06
1.796106218e-06
1.837415372e-06
1.885219538e-06
1.936797493e-06
1.990354936e-06
2.047837039e-06
2.106257219e-06
2.16966778e-06
2.245060665e-06
2.32706344e-06
2.407043105e-06
2.492809308e-06
2.584462657e-06
2.681280383e-06
2.78317577e-06
2.890123859e-06
3.003918169e-06
3.12623487e-06
3.257092836e-06
3.396362388e-06
3.542554483e-06
3.697386634e-06
3.867085097e-06
4.050290727e-06
4.248319855e-06
4.463992274e-06
4.700487998e-06
4.965325867e-06
5.271829146e-06
5.624898886e-06
6.041228057e-06
6.552137433e-06
7.062144086e-06
6.813944979e-06
5.471728388e-06
4.504286225e-06
3.666171717e-06
3.763896668e-06
)


100
(
3.975545559e-06
3.409225484e-06
3.005725412e-06
2.721762085e-06
2.507643588e-06
2.337775275e-06
2.200924891e-06
2.089355499e-06
1.993486069e-06
1.913421159e-06
1.843046689e-06
1.782252942e-06
1.730895006e-06
1.685727381e-06
1.645911058e-06
1.612433597e-06
1.585089143e-06
1.55915199e-06
1.537425786e-06
1.519956829e-06
1.50709989e-06
1.493065488e-06
1.481244614e-06
1.47207011e-06
1.465742752e-06
1.460266238e-06
1.453273817e-06
1.447791169e-06
1.443592049e-06
1.440537612e-06
1.43763704e-06
1.427380001e-06
1.420996766e-06
1.435628683e-06
1.442947882e-06
1.451375765e-06
1.456601671e-06
1.462061179e-06
1.467847103e-06
1.475389451e-06
1.487070797e-06
1.49949767e-06
1.51221051e-06
1.527395829e-06
1.545011151e-06
1.566832583e-06
1.591539062e-06
1.613174904e-06
1.63432594e-06
1.660726021e-06
1.689998543e-06
1.721982813e-06
1.756937973e-06
1.790618373e-06
1.825359212e-06
1.863017415e-06
1.903571381e-06
1.952268714e-06
2.00363006e-06
2.049830259e-06
2.098889615e-06
2.153881368e-06
2.211495561e-06
2.271616336e-06
2.332398983e-06
2.393191611e-06
2.45793181e-06
2.533244619e-06
2.615464113e-06
2.695176231e-06
2.787176244e-06
2.888158361e-06
2.993455183e-06
3.104337359e-06
3.220953989e-06
3.344597354e-06
3.474829521e-06
3.61199265e-06
3.757818738e-06
3.910722065e-06
4.07221622e-06
4.24353102e-06
4.425317896e-06
4.619614945e-06
4.825334007e-06
5.044567373e-06
5.283436592e-06
5.548845779e-06
5.842470198e-06
6.184055343e-06
6.564839503e-06
6.998970774e-06
7.512481329e-06
8.124973919e-06
8.646001746e-06
7.973557527e-06
6.407767844e-06
5.392903542e-06
4.463444995e-06
4.750863941e-06
)


100
(
3.997629297e-06
3.446560241e-06
3.053334314e-06
2.779900203e-06
2.572791869e-06
2.413321057e-06
2.283586845e-06
2.180001517e-06
2.09165107e-06
2.016564619e-06
1.953384395e-06
1.897043827e-06
1.849663874e-06
1.810200825e-06
1.77571525e-06
1.745554442e-06
1.720685621e-06
1.701387293e-06
1.682560407e-06
1.666947316e-06
1.654691689e-06
1.646169783e-06
1.637568923e-06
1.630117401e-06
1.62533544e-06
1.623324939e-06
1.623698227e-06
1.621411994e-06
1.620041613e-06
1.620963871e-06
1.623548882e-06
1.627025729e-06
1.630587202e-06
1.634895468e-06
1.646987379e-06
1.659537115e-06
1.67185353e-06
1.685218451e-06
1.694976695e-06
1.706374161e-06
1.720695689e-06
1.7398344e-06
1.763835151e-06
1.786176471e-06
1.808982329e-06
1.83591405e-06
1.86638301e-06
1.900037762e-06
1.936882266e-06
1.972310083e-06
2.008285694e-06
2.04602194e-06
2.085330099e-06
2.13090598e-06
2.184650758e-06
2.233656461e-06
2.283651167e-06
2.340767408e-06
2.403262776e-06
2.470675802e-06
2.540166472e-06
2.60571469e-06
2.672483739e-06
2.743328971e-06
2.823952704e-06
2.911443384e-06
2.992905796e-06
3.082176521e-06
3.182380306e-06
3.29032756e-06
3.406590192e-06
3.527271295e-06
3.653542108e-06
3.78732364e-06
3.928863688e-06
4.080526931e-06
4.24692354e-06
4.423077515e-06
4.604492602e-06
4.792075798e-06
4.989045992e-06
5.1988936e-06
5.421266636e-06
5.656226776e-06
5.903534814e-06
6.171481683e-06
6.457313107e-06
6.770653926e-06
7.141856627e-06
7.56150199e-06
8.031899323e-06
8.537307052e-06
9.160026735e-06
9.872308313e-06
1.034710795e-05
9.207112957e-06
7.489276848e-06
6.392204206e-06
5.373476614e-06
5.802640846e-06
)


100
(
4.019687328e-06
3.484459385e-06
3.103968623e-06
2.838640505e-06
2.641949397e-06
2.490868206e-06
2.371534716e-06
2.27439516e-06
2.195898457e-06
2.126081523e-06
2.067824582e-06
2.019577716e-06
1.975741207e-06
1.940138445e-06
1.911774222e-06
1.886839415e-06
1.865303958e-06
1.848152266e-06
1.836185508e-06
1.824153155e-06
1.81371741e-06
1.806441392e-06
1.802794164e-06
1.8003538e-06
1.797786197e-06
1.797968931e-06
1.800208501e-06
1.805273446e-06
1.81107391e-06
1.815188573e-06
1.82156698e-06
1.829310917e-06
1.840188269e-06
1.855158179e-06
1.868417591e-06
1.882848977e-06
1.899535194e-06
1.917773811e-06
1.940495219e-06
1.962912098e-06
1.982617058e-06
2.00517436e-06
2.032900737e-06
2.065633959e-06
2.102429648e-06
2.137181223e-06
2.174044987e-06
2.215896426e-06
2.259779853e-06
2.305970277e-06
2.357013879e-06
2.405975283e-06
2.454381973e-06
2.507059884e-06
2.567608182e-06
2.63678081e-06
2.710274964e-06
2.777514018e-06
2.85164359e-06
2.929557157e-06
3.006844553e-06
3.092305333e-06
3.182081715e-06
3.26952047e-06
3.363680182e-06
3.470105678e-06
3.583788584e-06
3.699678352e-06
3.819745726e-06
3.94741003e-06
4.083417717e-06
4.227847055e-06
4.379558942e-06
4.540286525e-06
4.713868771e-06
4.904882534e-06
5.107656218e-06
5.314726096e-06
5.528994569e-06
5.753943684e-06
5.996492973e-06
6.252140122e-06
6.518874026e-06
6.796597934e-06
7.094367638e-06
7.411976337e-06
7.755094698e-06
8.139238693e-06
8.587290403e-06
9.071730261e-06
9.63446185e-06
1.018294099e-05
1.098415867e-05
1.180491729e-05
1.21535176e-05
1.059388049e-05
8.768715433e-06
7.562863287e-06
6.439698424e-06
7.210464506e-06
)


100
(
4.041717122e-06
3.522697267e-06
3.154133067e-06
2.89821158e-06
2.713286557e-06
2.570720868e-06
2.462430099e-06
2.373442558e-06
2.30188091e-06
2.241454649e-06
2.187937057e-06
2.144416272e-06
2.108534434e-06
2.077013922e-06
2.05239561e-06
2.034222493e-06
2.018075891e-06
2.004428632e-06
1.994626324e-06
1.989190431e-06
1.983831012e-06
1.978670705e-06
1.976649641e-06
1.97839346e-06
1.98348267e-06
1.985811265e-06
1.990832481e-06
1.999179656e-06
2.0101519e-06
2.024002473e-06
2.035914495e-06
2.048433575e-06
2.063442589e-06
2.080337987e-06
2.102060308e-06
2.127153242e-06
2.149491751e-06
2.173553895e-06
2.200385371e-06
2.232175534e-06
2.267803462e-06
2.30062851e-06
2.332690099e-06
2.371482295e-06
2.414598964e-06
2.461943488e-06
2.513842011e-06
2.564537726e-06
2.615784964e-06
2.67026236e-06
2.727362899e-06
2.793567295e-06
2.864908323e-06
2.928404735e-06
2.995724467e-06
3.076094169e-06
3.161449274e-06
3.251501498e-06
3.343901702e-06
3.430147382e-06
3.518736221e-06
3.614900778e-06
3.729124241e-06
3.850305238e-06
3.96312057e-06
4.088411719e-06
4.224149034e-06
4.364686031e-06
4.511598816e-06
4.664785311e-06
4.826818691e-06
4.998575865e-06
5.180263675e-06
5.373326052e-06
5.581202744e-06
5.803191504e-06
6.03636221e-06
6.279010306e-06
6.535038985e-06
6.811578846e-06
7.103449058e-06
7.397664543e-06
7.70634724e-06
8.035530534e-06
8.3935048e-06
8.774676218e-06
9.184052766e-06
9.639409666e-06
1.014407784e-05
1.070931401e-05
1.135767042e-05
1.177075294e-05
1.295075511e-05
1.39023739e-05
1.409509205e-05
1.219003306e-05
1.024910977e-05
8.916619038e-06
7.663114633e-06
8.664798463e-06
)


100
(
4.063716338e-06
3.558426723e-06
3.20242853e-06
2.959048259e-06
2.784569249e-06
2.653697815e-06
2.554102718e-06
2.476789833e-06
2.41159204e-06
2.359033549e-06
2.313557596e-06
2.274980561e-06
2.244825519e-06
2.220860414e-06
2.200532068e-06
2.185960923e-06
2.177154322e-06
2.169635253e-06
2.163383193e-06
2.160450385e-06
2.161308173e-06
2.163374331e-06
2.164102195e-06
2.168279514e-06
2.17529129e-06
2.186067053e-06
2.197311115e-06
2.209322462e-06
2.224605527e-06
2.241644689e-06
2.262096306e-06
2.285589952e-06
2.305321641e-06
2.327112028e-06
2.352440626e-06
2.382892559e-06
2.41960529e-06
2.454373615e-06
2.487707263e-06
2.525089523e-06
2.567038866e-06
2.613240835e-06
2.663419468e-06
2.711245572e-06
2.761893724e-06
2.8166924e-06
2.873320791e-06
2.936096918e-06
3.009153552e-06
3.075947666e-06
3.142994125e-06
3.216675952e-06
3.297891403e-06
3.385591354e-06
3.47743033e-06
3.566346215e-06
3.660337453e-06
3.757908553e-06
3.859657281e-06
3.976258314e-06
4.089473172e-06
4.201047876e-06
4.329416733e-06
4.469222561e-06
4.617308158e-06
4.772637383e-06
4.930265133e-06
5.092904016e-06
5.264148403e-06
5.444664226e-06
5.632799529e-06
5.833898976e-06
6.053526887e-06
6.286440859e-06
6.532145613e-06
6.791119804e-06
7.063082522e-06
7.34402077e-06
7.645584801e-06
7.966558896e-06
8.298342962e-06
8.638803409e-06
9.006179229e-06
9.402052905e-06
9.816842045e-06
1.027169216e-05
1.076113007e-05
1.129147418e-05
1.188141543e-05
1.251232982e-05
1.329152141e-05
1.394973794e-05
1.508117381e-05
1.617758269e-05
1.616815045e-05
1.398715716e-05
1.190232356e-05
1.044008624e-05
9.038060891e-06
1.033834575e-05
)


100
(
4.076604722e-06
3.590198647e-06
3.248991188e-06
3.019991039e-06
2.855918169e-06
2.738382546e-06
2.647815216e-06
2.580692095e-06
2.525554347e-06
2.479983185e-06
2.443555558e-06
2.411975414e-06
2.386963042e-06
2.369102651e-06
2.3562946e-06
2.346350878e-06
2.34116673e-06
2.341383982e-06
2.342597701e-06
2.343405364e-06
2.347286609e-06
2.354872494e-06
2.3658048e-06
2.372646458e-06
2.382856244e-06
2.397122093e-06
2.415422842e-06
2.437845302e-06
2.457034873e-06
2.478681036e-06
2.503952736e-06
2.531808032e-06
2.564851843e-06
2.597448504e-06
2.628672382e-06
2.663438707e-06
2.703394105e-06
2.750257782e-06
2.801919009e-06
2.848900097e-06
2.897646553e-06
2.953144847e-06
3.011502147e-06
3.073760472e-06
3.140924304e-06
3.20667912e-06
3.273765676e-06
3.346045482e-06
3.424357575e-06
3.513648412e-06
3.607450465e-06
3.69169394e-06
3.782585311e-06
3.883965566e-06
3.987672751e-06
4.09399477e-06
4.209547646e-06
4.32109425e-06
4.437205985e-06
4.565401653e-06
4.707604769e-06
4.856655336e-06
5.000181445e-06
5.159373728e-06
5.330950046e-06
5.50891161e-06
5.693274583e-06
5.884477895e-06
6.085067757e-06
6.296191013e-06
6.523647845e-06
6.770650955e-06
7.025295175e-06
7.2920162e-06
7.573896299e-06
7.872621316e-06
8.187308935e-06
8.51851256e-06
8.874152424e-06
9.246037925e-06
9.619130446e-06
1.00157083e-05
1.043892623e-05
1.090090309e-05
1.140088592e-05
1.196008285e-05
1.253290504e-05
1.313563033e-05
1.38129375e-05
1.455435774e-05
1.542921071e-05
1.683831512e-05
1.757912658e-05
1.875640865e-05
1.841897436e-05
1.595337292e-05
1.37177254e-05
1.211192773e-05
1.055726636e-05
1.22166645e-05
)


100
(
4.083312561e-06
3.618419057e-06
3.294923736e-06
3.079353958e-06
2.928279102e-06
2.821737328e-06
2.743916739e-06
2.685749131e-06
2.642875256e-06
2.605279326e-06
2.576126965e-06
2.554921164e-06
2.535704072e-06
2.522978769e-06
2.517043813e-06
2.515011353e-06
2.515078269e-06
2.519407297e-06
2.528146806e-06
2.538352718e-06
2.546347772e-06
2.558091079e-06
2.572303271e-06
2.590122041e-06
2.60779592e-06
2.626642081e-06
2.649669366e-06
2.675017806e-06
2.704305558e-06
2.736494499e-06
2.767694377e-06
2.801703053e-06
2.838222927e-06
2.881755654e-06
2.930589708e-06
2.972895226e-06
3.017455646e-06
3.070581098e-06
3.12880236e-06
3.193059437e-06
3.262823174e-06
3.327813083e-06
3.394480477e-06
3.464642201e-06
3.537548384e-06
3.622645971e-06
3.717978777e-06
3.802498587e-06
3.889924962e-06
3.98981979e-06
4.096416022e-06
4.209360224e-06
4.324869711e-06
4.434599637e-06
4.546786416e-06
4.665970713e-06
4.799111261e-06
4.946138393e-06
5.084481368e-06
5.225125786e-06
5.38778315e-06
5.559054948e-06
5.737988001e-06
5.92756344e-06
6.124323793e-06
6.325092319e-06
6.535069926e-06
6.756658084e-06
6.987653956e-06
7.235825419e-06
7.505461876e-06
7.789372189e-06
8.085281196e-06
8.396569254e-06
8.727514201e-06
9.082164303e-06
9.445893337e-06
9.827169367e-06
1.023072589e-05
1.06477401e-05
1.108101521e-05
1.15586543e-05
1.205365885e-05
1.258041781e-05
1.317559582e-05
1.38125414e-05
1.448275037e-05
1.520661818e-05
1.599161298e-05
1.685488362e-05
1.78581742e-05
1.914893328e-05
2.033653451e-05
2.161417776e-05
2.093360768e-05
1.808045135e-05
1.567979926e-05
1.392818029e-05
1.222149111e-05
1.413691926e-05
)


100
(
4.089995014e-06
3.645560798e-06
3.339592982e-06
3.136996336e-06
3.000758294e-06
2.904633577e-06
2.840506358e-06
2.792898917e-06
2.759544877e-06
2.734491344e-06
2.712782688e-06
2.698339103e-06
2.690740951e-06
2.683806182e-06
2.682819369e-06
2.688468842e-06
2.697582874e-06
2.707716895e-06
2.721454922e-06
2.739006685e-06
2.758168121e-06
2.774284743e-06
2.793531908e-06
2.816605861e-06
2.843756884e-06
2.87468354e-06