/*--------------------------------*- C++ -*----------------------------------*\
| =========                 |                                                 |
| \\      /  F ield         | OpenFOAM: The Open Source CFD Toolbox           |
|  \\    /   O peration     | Version:  2.3.1                                 |
|   \\  /    A nd           | Web:      www.OpenFOAM.org                      |
|    \\/     M anipulation  |                                                 |
\*---------------------------------------------------------------------------*/
FoamFile
{
    version     2.0;
    format      ascii;
    class       dictionary;
    location    "constant";
    object      Henorm_table;
}
// * * * * * * * * * * * * * * * * * * * * * * * * * * * * * * * * * * * * * //

Henorm_table
100
(

100
(
0.2134666773
0.23876134
0.256940967
0.2717262173
0.2849485066
0.2967362766
0.3078362996
0.3182271095
0.3282016699
0.3375883027
0.3469446804
0.3555326178
0.3641781828
0.372704707
0.3807223953
0.388822194
0.3969414977
0.4045263559
0.4121913493
0.4199344918
0.4272855634
0.4345539967
0.4418901294
0.4491551393
0.4561137692
0.4631420936
0.4702433388
0.4771889992
0.4839011367
0.4906846911
0.4975372365
0.5042044556
0.5107905183
0.5174461602
0.5241751515
0.5308133476
0.5371890028
0.5436449173
0.5501769279
0.5566559899
0.5629412273
0.569302218
0.5757413201
0.5821541506
0.5884403932
0.5948020921
0.6012396181
0.60772889
0.6138920095
0.6201297065
0.6264336334
0.6327406959
0.6388573864
0.6450359796
0.6512803516
0.6575032363
0.6636741125
0.6699162605
0.6762322022
0.6825059843
0.6886622353
0.6948944368
0.7012071376
0.7074541882
0.7136303789
0.7198891435
0.7262350086
0.7324338
0.7386653285
0.7449862791
0.7513002424
0.7575331716
0.7638588218
0.7702400765
0.7765036705
0.7828649749
0.7892769238
0.7956017273
0.8020315042
0.8084553975
0.8148810697
0.8214101585
0.8278611937
0.8344386053
0.8409709581
0.847613794
0.8542259809
0.8609401518
0.867663416
0.8744485127
0.8813049759
0.8882187926
0.8951829013
0.9022051846
0.9092877962
0.9164503063
0.9236363282
0.9308516806
0.9380775906
0.9447381317
)


100
(
0.2105981846
0.2359840575
0.2542592726
0.2692676372
0.2825003016
0.2943052621
0.3057164219
0.3159337438
0.3261081514
0.3354786933
0.3447283199
0.3536438223
0.3621249696
0.370678234
0.3789455351
0.3868893617
0.3949214664
0.4029228838
0.4104327469
0.4180205102
0.4256676295
0.432999491
0.4401786513
0.4474261267
0.454740622
0.4616173817
0.4685615236
0.4755740112
0.4826562303
0.4892993979
0.4959973803
0.5027617957
0.5095887799
0.5160937387
0.5226689672
0.5293146569
0.5360343791
0.5425805855
0.5489638819
0.5554223715
0.5619595832
0.5684598092
0.5747536836
0.5811219699
0.5875658662
0.5940566895
0.6003466872
0.6067073371
0.6131346095
0.6196328531
0.6259811328
0.6322041707
0.6384851597
0.6448311509
0.6511065302
0.6572754943
0.6635085248
0.6698122741
0.6760899515
0.6823225224
0.688563636
0.6950939674
0.7014580052
0.7076092308
0.7138714877
0.720495004
0.7268786456
0.732992386
0.7394997704
0.7461046673
0.7524272138
0.7587017316
0.7654960363
0.7719620483
0.7781852883
0.7847888606
0.7916514342
0.7979691825
0.8045983821
0.8115795625
0.8179822785
0.8249581824
0.8317506034
0.8383100221
0.84572768
0.8523780706
0.8594298062
0.8666548534
0.8735274456
0.8809438088
0.8879956478
0.8953567288
0.9024565031
0.9098064771
0.9169106548
0.9242818733
0.9313127728
0.93765341
0.9388302609
0.9399605198
)


100
(
0.2077848056
0.233401002
0.2517585093
0.2669761192
0.2800247444
0.2921291852
0.3033684167
0.3139534149
0.3239791301
0.3337645995
0.3428510338
0.3519709957
0.3605651652
0.3689788246
0.3774517484
0.385557567
0.393451303
0.4014171339
0.4093775144
0.416832945
0.4243515278
0.4319270697
0.4393047372
0.4464262279
0.4536122346
0.4608608505
0.467856584
0.4747469934
0.4817015449
0.4887187956
0.4955758507
0.5022209635
0.5089284403
0.5156999839
0.52242222
0.5289500674
0.5355451609
0.542208509
0.5489427991
0.5554915983
0.56191117
0.5684002411
0.5749609368
0.5815581436
0.58788709
0.5942824563
0.6007450965
0.6072721971
0.6136882141
0.6200644834
0.6264990943
0.6329884241
0.6395199172
0.6457763769
0.6520443307
0.6583692337
0.6649435966
0.6711287784
0.6773644914
0.6836655814
0.6902230375
0.6964208414
0.7029952594
0.7095337631
0.7158010931
0.7221109737
0.7288118181
0.7354919252
0.7417168586
0.7483275323
0.7551020295
0.7618300861
0.7682862257
0.7750226799
0.7818228619
0.7883609683
0.7949069998
0.8017548009
0.8087705874
0.8154943758
0.8223723145
0.8292408858
0.8363096693
0.8430894851
0.850128403
0.8573502045
0.8643224612
0.8715450873
0.8788048102
0.8859795528
0.8931986867
0.9004559091
0.9077278976
0.9148906286
0.9222275655
0.9294468679
0.9363994019
0.9403808086
0.9396457408
0.9394815915
)


100
(
0.2050250164
0.2308295019
0.2493820601
0.2643476179
0.2776634827
0.2901527333
0.3012249319
0.3121763974
0.3221052775
0.3319785203
0.3413037493
0.3503069663
0.3593390043
0.3676821033
0.3760435892
0.3844601413
0.3924683014
0.4003265154
0.408246596
0.4162124048
0.4236281841
0.4310988264
0.4386239645
0.4460986718
0.4531853493
0.460332356
0.4675383145
0.4746982272
0.4815567869
0.4884747451
0.4954499627
0.502481972
0.5091791196
0.5158544411
0.5225912458
0.529389831
0.5360787784
0.5426497336
0.5492859099
0.5559871009
0.562750039
0.5693589643
0.575806786
0.5823143754
0.588880102
0.5956100856
0.6019769961
0.6083907288
0.6148602713
0.6217111392
0.6280449854
0.6344284791
0.6408578206
0.6476414429
0.6540149053
0.6602670733
0.6666517811
0.6735530058
0.6799690058
0.6861849357
0.6927290235
0.6994901414
0.7058340965
0.7123842865
0.7190145375
0.7255681454
0.7320363744
0.7387160936
0.7454704481
0.7522134162
0.7587943306
0.7654425105
0.772158885
0.7790388415
0.7858432647
0.7925114191
0.7993063133
0.8063058911
0.8132183586
0.8201076409
0.8269922545
0.8340857724
0.8411386602
0.8481521376
0.8553401301
0.8625324016
0.8696648491
0.8768452032
0.8840416154
0.891264134
0.8985829401
0.9058610041
0.9131125072
0.920514694
0.9278393537
0.9351255894
0.9419922986
0.9434835422
0.9419989297
0.9409769006
)


100
(
0.202317295
0.2279379284
0.2466185638
0.2618243081
0.2754671699
0.287833488
0.2992484522
0.3100868971
0.3204402599
0.3301997557
0.339944916
0.3488957769
0.3578271759
0.3666798879
0.3749448121
0.3832657107
0.3916361035
0.3996009991
0.4074314102
0.4153139796
0.4232404242
0.4307098221
0.4381486942
0.4456384476
0.4531794388
0.4603163883
0.4674395373
0.4746172644
0.48184776
0.4888143132
0.4957119688
0.5026618605
0.5096602276
0.5166481742
0.5232918418
0.529990467
0.5367443547
0.5437351157
0.5502945096
0.5569048333
0.5635729832
0.5703499491
0.5772065699
0.5836613218
0.590159174
0.5968589359
0.6039582252
0.6103118948
0.6167098992
0.6233793812
0.6304200328
0.6368339545
0.6431906838
0.6498486278
0.6567134521
0.6631652781
0.6694680987
0.6762797783
0.6831735691
0.6898117881
0.6962896578
0.7029568685
0.7096808597
0.7163099326
0.7228339323
0.7294177214
0.7360707565
0.7428654274
0.7495151996
0.7561963815
0.7629491719
0.7697762659
0.7765658971
0.7832724112
0.7901574035
0.7970912057
0.8041120782
0.8111391433
0.8180130565
0.8251070149
0.8322966641
0.8393500498
0.8463793105
0.8534965291
0.8606980136
0.8678581244
0.8751374521
0.8824400853
0.889633805
0.8969320391
0.9042072973
0.9116665887
0.9189608272
0.9264746154
0.9339303493
0.9413261121
0.9476115773
0.9470231648
0.9450913247
0.9434669505
)


100
(
0.19966029
0.2251753717
0.2439480618
0.2593835498
0.273317539
0.2855814679
0.2974006976
0.308107117
0.3187250794
0.3285578553
0.3382069229
0.3476479921
0.3564831173
0.3653463028
0.374036025
0.3822706661
0.3905545738
0.3988819715
0.4068440178
0.4146459192
0.4224906337
0.430375603
0.4379408848
0.4453541424
0.4528160136
0.4603247519
0.4676420118
0.4747476486
0.4818788336
0.4890520969
0.4962357365
0.5031033361
0.5100138016
0.5169654699
0.5241912364
0.5308383029
0.537527094
0.5442600586
0.5516443791
0.5582181358
0.5648208686
0.5714685133
0.5785915868
0.585436783
0.5918824882
0.59837975
0.6055199854
0.6127293408
0.6190610294
0.6255608132
0.6325185342
0.6395442124
0.6460784209
0.6526417887
0.6594356825
0.6662830028
0.6729297301
0.6796400742
0.6863358252
0.6930868832
0.699918913
0.7066777885
0.7132868684
0.7199361526
0.7267029013
0.7335594868
0.7402879601
0.7469563406
0.7537349921
0.760579544
0.7674446803
0.7742384152
0.7810342968
0.7878804934
0.7948458319
0.8018767767
0.8087539141
0.815902694
0.8230329564
0.8301492973
0.8371791111
0.8443329908
0.8516617617
0.8588181601
0.8660797057
0.8733701954
0.8806406858
0.8878570504
0.8953097631
0.9025804995
0.9099482152
0.9174855789
0.9249005211
0.932549001
0.9401208646
0.9476695188
0.9522603853
0.9508249718
0.9485294078
0.9465141558
)


100
(
0.1969455117
0.2224699926
0.2413380763
0.257047997
0.2708077521
0.2833845074
0.2951973554
0.3061943839
0.3167123036
0.3269934647
0.3365340925
0.3460632376
0.3552156977
0.363987234
0.3727831013
0.3813566294
0.3895559489
0.3977982296
0.406078496
0.4140662578
0.421830812
0.4296339531
0.4374762287
0.4451745801
0.4525827461
0.4600432783
0.4675489092
0.47482705
0.4818946618
0.4890015305
0.4962568046
0.5036069834
0.5104540094
0.5173412734
0.5244442548
0.5317837026
0.5384154711
0.5450873529
0.5521391788
0.5595878238
0.5661951963
0.5727815387
0.5796732722
0.5868876739
0.5937329463
0.6001525935
0.6071099762
0.614250679
0.621444784
0.6279032042
0.6347871933
0.6417247488
0.6486965573
0.6555229126
0.6621858158
0.6688917779
0.6756444829
0.6825071713
0.6893250005
0.6960058783
0.7027421105
0.7095901919
0.7165282721
0.723494112
0.730226031
0.7370048989
0.7438331461
0.7507218217
0.7577010046
0.7645306034
0.7713530886
0.7782681239
0.7853155625
0.7922577291
0.7991715379
0.8061541653
0.813237221
0.8203710915
0.8274204439
0.8345778597
0.8418651864
0.8490209124
0.8563335385
0.8636560961
0.8709785677
0.8782796185
0.8856433497
0.8929971048
0.9003869838
0.9078694502
0.9153515287
0.9228037566
0.9304741424
0.9381815247
0.9459547452
0.9535773292
0.9566570207
0.9546402605
0.9523407677
0.9499396841
)


100
(
0.1942081761
0.2198785303
0.2388292986
0.2544982831
0.2683315446
0.281267983
0.2929408307
0.3043489455
0.3147457993
0.325079687
0.3349229475
0.3443538111
0.3537709303
0.362689308
0.3713953405
0.3801229638
0.3886215921
0.396778868
0.4049729904
0.4132008762
0.4212523467
0.4290034887
0.4367976866
0.4446336424
0.4525037915
0.4598835874
0.4673139046
0.4747849874
0.4819692662
0.4890108081
0.4960814504
0.5036999133
0.5109660748
0.5177878136
0.5246392194
0.5320907941
0.5393803568
0.545991806
0.5527297864
0.5600877229
0.5675207812
0.5741808855
0.5808507866
0.5879866801
0.5951815939
0.6020479451
0.6088165181
0.6158749909
0.6229800723
0.6300596828
0.6369721361
0.6437507124
0.6505728083
0.657436378
0.6644315695
0.6714560417
0.678163691
0.6848994011
0.6917475091
0.6986741753
0.7056460896
0.7123861742
0.7192367557
0.7261360062
0.7330992621
0.7401107547
0.7471034135
0.7539447766
0.7608284658
0.767904293
0.7750403341
0.7820105903
0.7889692971
0.79597615
0.8030585362
0.8101623882
0.8171815034
0.8243462359
0.83162591
0.8387815354
0.8460748913
0.8533682469
0.8606740077
0.8679748451
0.8753334135
0.8828420408
0.8902645346
0.8975964942
0.9050507477
0.9126385847
0.9202419233
0.9279310797
0.9356071139
0.9434420767
0.9513704218
0.959053731
0.9606428522
0.9585246752
0.956114866
0.953664573
)


100
(
0.1915171089
0.2172338352
0.2361814679
0.2518502147
0.2659252642
0.2788728928
0.2907444786
0.3020972917
0.3128594047
0.3230885705
0.3332547063
0.3427278877
0.3520527781
0.3613639099
0.3701028842
0.3787429882
0.3874035476
0.3958672339
0.4039988998
0.4121809467
0.4203979573
0.4285623037
0.4362738359
0.4440286337
0.4518218311
0.4597205775
0.4672164585
0.4746166516
0.4820550618
0.4891586826
0.4961705381
0.5033704303
0.5111968077
0.5183946564
0.5251866919
0.5322901103
0.5398136356
0.5470681804
0.5536489168
0.5607874427
0.5681357834
0.5755431171
0.5822677885
0.5893005811
0.5964149361
0.603575967
0.6106634329
0.6175474901
0.6244872882
0.6314717945
0.6384845283
0.6456404631
0.6526322419
0.6594352476
0.6662792859
0.6732788549
0.6803379862
0.6874244309
0.6942710921
0.701117356
0.7079909443
0.7149487042
0.7220040293
0.729005723
0.7359059001
0.7428349436
0.7499211502
0.7570746378
0.7641262013
0.7710987356
0.7781477036
0.7852809538
0.7925066676
0.7995968969
0.8066126048
0.8138243785
0.8211086641
0.8282725965
0.8355661082
0.8428591675
0.8501496961
0.8574376001
0.8647183958
0.8722470479
0.8797073051
0.8871079865
0.8945031547
0.9020772079
0.9096718034
0.917273727
0.9250042938
0.9326220958
0.9406201323
0.9486030815
0.9565361704
0.9640302045
0.9644753896
0.9623849479
0.9599079477
0.9573589444
)


100
(
0.1888707903
0.2144101639
0.2334261191
0.2492357442
0.2636165326
0.2764202369
0.2886491544
0.2998762376
0.310953577
0.3211942458
0.3312669178
0.3412191398
0.3504518231
0.3596741449
0.3688870459
0.3774983689
0.3860953264
0.3947361669
0.4032577255
0.4113565292
0.4194904751
0.4276552898
0.435929222
0.4436161882
0.4513344501
0.45908839
0.4669591904
0.4746606697
0.4820324708
0.4894411102
0.4964756553
0.5034464188
0.5110296784
0.5188330692
0.5259814689
0.5327717623
0.5402128658
0.5477148379
0.5549523925
0.5618040876
0.5690743311
0.5763960437
0.5837503733
0.5908494401
0.5978217472
0.6048398335
0.6119004008
0.6190874228
0.6263058459
0.63322153
0.6401774297
0.6471918381
0.6543194506
0.6614756429
0.66855409
0.6754104708
0.6823974832
0.6894205767
0.6965017678
0.7036409624
0.7107237277
0.7176305737
0.7245650338
0.7316692602
0.7388781729
0.7459490624
0.7529104853
0.7599891685
0.7671186101
0.774350021
0.7815771812
0.7886630845
0.7958202596
0.8031434199
0.8104320877
0.8176214527
0.8249530652
0.8322746749
0.8395754037
0.8468707783
0.8541619415
0.8616384585
0.8690960152
0.8764970297
0.8838756789
0.8913828596
0.8990266782
0.9066204267
0.914212564
0.9219813093
0.9296509472
0.9376919989
0.9454997538
0.9536722847
0.9620547404
0.9687410847
0.9681242663
0.9661165238
0.963619281
0.960950887
)


100
(
0.1862677522
0.2116633168
0.2307147401
0.2467184138
0.261041493
0.2740304348
0.2863285484
0.297748697
0.3087328021
0.319416456
0.3293922161
0.3393157275
0.3489839018
0.358121843
0.3672582384
0.3764456805
0.3850075249
0.3935668284
0.4021513593
0.4107287836
0.4187845529
0.4268741103
0.4349958798
0.4432342797
0.4510736063
0.458760816
0.4664834276
0.4743258647
0.4822018749
0.4896121782
0.4969932738
0.5039645136
0.5111709048
0.5188901288
0.526665335
0.5337789912
0.5409496772
0.5483769053
0.5558522943
0.5631800803
0.570312747
0.5774742867
0.5846832463
0.5919271947
0.599330782
0.6064583379
0.6134668397
0.6205133265
0.6277008049
0.6349707243
0.6422772912
0.6492095705
0.6562265189
0.6633272131
0.6704478654
0.6776145628
0.6848969313
0.6919068517
0.6989434638
0.7060033733
0.7132227197
0.7205059073
0.7275891307
0.7345804173
0.7417083868
0.7488504652
0.7560763958
0.7633281762
0.7704146727
0.7775387006
0.7849232773
0.7923585843
0.79952474
0.8068297796
0.814252336
0.8216437803
0.8290062297
0.8363465453
0.8436672975
0.8510839371
0.8585625263
0.8660087036
0.873435757
0.8808231515
0.8884632945
0.8961308973
0.9036416966
0.911364176
0.9191896963
0.9269131603
0.9349493526
0.9428308663
0.9510280718
0.9594666145
0.9675897553
0.9729795396
0.9715014383
0.9695954228
0.9671001415
0.9644852647
)


100
(
0.1836463788
0.2089618219
0.2280705523
0.2442166059
0.2584371156
0.2717267803
0.2839031667
0.2957035124
0.306577671
0.3173432542
0.3276019018
0.337436366
0.3472204559
0.3566936529
0.3657806508
0.3748681293
0.3840121273
0.3925182683
0.401022874
0.4095522868
0.4182053613
0.426227829
0.4342748653
0.4423678429
0.4505590156
0.4585830296
0.4662388871
0.4739413961
0.4817466083
0.4895848114
0.4972673298
0.5046286054
0.5115289383
0.5191479048
0.5268459831
0.5345866029
0.5418988964
0.5492353817
0.5565534669
0.5639135574
0.5713941926
0.5786832244
0.5858305273
0.5930212992
0.6002659083
0.6076659063
0.6150938491
0.6222364862
0.6292737828
0.6364717654
0.6437107957
0.6509773745
0.6582518405
0.6654129707
0.6725208253
0.6796538805
0.6868190351
0.69421782
0.7015931257
0.7086173691
0.7157065301
0.7229526082
0.7302067755
0.7374645027
0.7447231054
0.7518651582
0.7590058013
0.7663856839
0.7738613308
0.7809647489
0.7882422935
0.7956391162
0.8031574999
0.8106145393
0.8180430638
0.8254766436
0.8328511562
0.8402168831
0.8477652567
0.8552713612
0.8627597475
0.8702210086
0.8777709205
0.8854793863
0.8930480174
0.9006067701
0.9083107272
0.91619223
0.9238999496
0.9319754803
0.9399349482
0.9481945979
0.9565168555
0.9649060941
0.9730867099
0.976723528
0.9746391183
0.9729004132
0.9704357572
0.9677917336
)


100
(
0.1809962987
0.2063379674
0.2254888741
0.2414497499
0.2558538595
0.269258212
0.2815060632
0.2932891645
0.3044643952
0.3151331561
0.3256995491
0.3355930823
0.3453152083
0.3550178728
0.3643481558
0.3733504381
0.3823545648
0.3914463449
0.3999394655
0.4083864711
0.4168755601
0.4254625268
0.4335982357
0.4416011907
0.4496613333
0.4578014587
0.4659675877
0.4736580584
0.4813345589
0.4891009957
0.4968960796
0.5047207076
0.5121936848
0.519455239
0.5270802779
0.5346993488
0.5422912509
0.5499324043
0.5571912272
0.5644890864
0.5718240501
0.5793025382
0.5868835952
0.5941343958
0.6013024406
0.6085590618
0.6159335572
0.6233367439
0.6307641086
0.6379693262
0.6451269164
0.6523616527
0.6596185486
0.6669683141
0.6745124371
0.6816571089
0.6887704887
0.6960095131
0.7033812411
0.7107838299
0.718137302
0.725288347
0.7325123606
0.7397465394
0.747168635
0.7547023386
0.7618441627
0.7691067184
0.7765250603
0.7839698064
0.7915392349
0.7990140921
0.8064311312
0.8138546954
0.8212595958
0.8286328611
0.8362487923
0.8438539595
0.85145962
0.859019481
0.866514186
0.8741676837
0.8818419059
0.8895079847
0.8970815997
0.9049356199
0.9127017333
0.9204359731
0.9284843497
0.9366576921
0.9449200821
0.953029906
0.9613550842
0.9698352492
0.9782365143
0.9797957358
0.9777652229
0.9760219352
0.9736569903
0.9711100304
)


100
(
0.178385056
0.2036331728
0.222687484
0.2387023534
0.25332321
0.2665866081
0.2791402519
0.2908001194
0.3022567619
0.3129244372
0.3233921294
0.333784148
0.3434251595
0.3530312232
0.3626294105
0.3718215866
0.3807363871
0.3896527784
0.398684855
0.4071984757
0.4155813122
0.4240200791
0.4325374504
0.4408124714
0.4487643643
0.456783993
0.4648678992
0.4729776105
0.4809145459
0.4885545496
0.4962759839
0.5040216552
0.5117917599
0.5196274991
0.5270954852
0.5345903126
0.5421173684
0.5496686876
0.5574099832
0.5649481555
0.5722208272
0.5795283579
0.5869963115
0.5945369421
0.6021143732
0.6093659522
0.6166145102
0.6239488932
0.6313031225
0.6387132605
0.6462706639
0.653583949
0.6607732035
0.6679910353
0.6753996715
0.6829218098
0.6904653479
0.6975810099
0.7048571331
0.7121615391
0.7195132917
0.7270168178
0.7344716226
0.7416758236
0.7489509181
0.7564780104
0.7640314638
0.7714130888
0.7789147233
0.7864193252
0.7939248816
0.8014237413
0.8088778127
0.8163086295
0.8238146035
0.8315591856
0.8392542268
0.8468260525
0.8543281624
0.861872936
0.8696742604
0.877400428
0.8851422974
0.8927753759
0.9006440283
0.9084503229
0.9162237775
0.9243356063
0.9326279209
0.9406078668
0.9489648099
0.9571746823
0.9659660715
0.9747168832
0.9822060267
0.9825632529
0.9807297486
0.9790472093
0.9768184284
0.9742547917
)


100
(
0.175811193
0.2008413339
0.2198871691
0.2359873121
0.250641005
0.2639215483
0.2765771007
0.2883261249
0.2996756225
0.3107347909
0.3210983737
0.3314171958
0.3415475492
0.3510530108
0.3605269821
0.3700373044
0.3791180834
0.387942999
0.3967884085
0.4057342753
0.4143006489
0.4226144363
0.4309956338
0.4394377101
0.4478811473
0.455775724
0.4637460254
0.471769691
0.4798155791
0.4878825504
0.4956111129
0.5032763463
0.5110149776
0.5187771533
0.526619636
0.5344280747
0.5418812615
0.5493653115
0.5568846507
0.5645956562
0.5723354229
0.5797776777
0.5870521214
0.5945026934
0.6019953232
0.609516001
0.617054971
0.6244728076
0.6317939457
0.6391363032
0.6464831847
0.6540897536
0.6617585494
0.6689341175
0.6761426643
0.6835836564
0.6910575017
0.6985226071
0.7061069163
0.7133667099
0.7206258608
0.7279273186
0.7355866158
0.7432713009
0.7505055837
0.7579199828
0.7654600969
0.7731021066
0.7806979486
0.7882363507
0.7957755447
0.8033168696
0.8107830291
0.8183729169
0.8260351291
0.8336901868
0.8413306245
0.8489221295
0.8565510913
0.864436881
0.8722840038
0.8799694573
0.887613938
0.8955509521
0.903451495
0.9113382608
0.9193523098
0.9274288231
0.9354012019
0.943829861
0.9520873197
0.9606964551
0.9696290671
0.9785802884
0.9854251281
0.9851561732
0.9835069099
0.9819522295
0.9798704295
0.977465635
)


100
(
0.1732732503
0.1980911893
0.2171111973
0.2333309999
0.2478233943
0.261307548
0.2738309223
0.2858969176
0.2971213769
0.3081998733
0.3188691384
0.3290773761
0.3392119313
0.3491160186
0.3584894335
0.367835209
0.3772546006
0.3862731172
0.3950082395
0.4037840677
0.4126374329
0.4212900663
0.4295326702
0.4378530329
0.4462184523
0.4546018957
0.462688659
0.4706051887
0.4785668438
0.4865444708
0.4945607564
0.5026423066
0.5103022104
0.5179872369
0.5256942646
0.5335087401
0.541464236
0.5490880716
0.5565282217
0.5640300134
0.5716912672
0.5793790841
0.5870920303
0.5944945912
0.6019021097
0.6093607975
0.6168579144
0.6243918956
0.6322312382
0.6395589306
0.6468459076
0.6541967478
0.6617918826
0.6694091731
0.6769894612
0.6842411542
0.6916190004
0.6990276556
0.7064095406
0.7142249646
0.7216819786
0.7289012288
0.7363803341
0.7439994353
0.7516030665
0.7593242746
0.7669392581
0.7744908196
0.7820453892
0.789594776
0.7970865446
0.8045501101
0.8123273026
0.8200620528
0.8277856721
0.8354865473
0.8431578508
0.8508090458
0.8586592437
0.8664505868
0.8742552902
0.8819464295
0.8899383758
0.8979212195
0.9057742736
0.9137788009
0.921897942
0.9301565594
0.938520615
0.946520848
0.9550839329
0.9635122826
0.9721980595
0.9811070787
0.9880191197
0.9875806202
0.9860603651
0.9846782546
0.982738618
0.9804935782
)


100
(
0.1707164749
0.1953831091
0.2143937312
0.2305135096
0.2450304912
0.2586421558
0.2711230492
0.2831752917
0.2946233823
0.3055971817
0.3164785174
0.3268046218
0.3368322149
0.3468159059
0.3565271187
0.3657753539
0.3749990051
0.3843285198
0.3933316466
0.4019793843
0.4106845729
0.4194460081
0.4282123334
0.4363923023
0.444649112
0.4529396157
0.4612452518
0.4695643264
0.4774257445
0.4853603815
0.4933243165
0.5013010439
0.5094392764
0.5173135909
0.524946038
0.5326017493
0.5403885519
0.5482827959
0.5562027328
0.5637067584
0.5711843144
0.5787965647
0.586426529
0.5940731458
0.6018423068
0.6093780446
0.6168042574
0.6242463954
0.6318035715
0.6395790586
0.6473551688
0.6545877136
0.6619823782
0.6695251678
0.6770673261
0.6846085941
0.6923205479
0.6996420003
0.7069643424
0.7145000046
0.7222743122
0.7300266118
0.7373053295
0.7448526037
0.7525575712
0.7602395276
0.7678945944
0.7755021624
0.7830993561
0.7906848506
0.7983157258
0.8062035466
0.8139124029
0.8215975233
0.8292621566
0.8369143532
0.8446680009
0.8525514375
0.8604791344
0.8683955878
0.8761063496
0.8840598638
0.8919478516
0.8999514532
0.9079452887
0.916513402
0.9246983993
0.9326669167
0.940968838
0.9494464278
0.9580204343
0.9673172989
0.9758219791
0.9851399083
0.9902875488
0.9897725186
0.988450967
0.9871570467
0.9853495066
0.9832171818
)


100
(
0.1681565265
0.1927304785
0.2116594911
0.2276615846
0.242300098
0.2557719527
0.2684785689
0.2804053471
0.2920864634
0.3030697678
0.3138419536
0.3245433573
0.3345334004
0.344390815
0.3542493439
0.3638072441
0.3729376605
0.3820731701
0.3912873251
0.4003206315
0.4088841979
0.4175199256
0.4261930752
0.4348722225
0.4432199984
0.4514138818
0.4596326239
0.4678595293
0.476148221
0.4843472895
0.4922325113
0.5001348729
0.5080457964
0.5161505515
0.5243164692
0.5319379943
0.5395433648
0.5473062547
0.5551411563
0.5630002419
0.5708768437
0.578384397
0.5859501566
0.5935518279
0.6011618133
0.6089635284
0.6169313709
0.624308128
0.6316989402
0.6392962301
0.6470090632
0.6547393876
0.6623978096
0.6698223255
0.6772758944
0.6847289304
0.6923881691
0.7003267301
0.7077290651
0.7150079229
0.7227109844
0.7304102586
0.7381793924
0.7459634967
0.753717754
0.7613158419
0.768919213
0.776518477
0.7840494563
0.791687405
0.799524602
0.8073259098
0.8151324069
0.822914199
0.8306673787
0.8386141573
0.8464990556
0.8542916258
0.8621069153
0.8699466529
0.8778984547
0.8860983324
0.8941009226
0.9019757413
0.9103381797
0.9185250622
0.9266821663
0.9350737577
0.9433629213
0.9519858226
0.9605038985
0.9694737411
0.9787426992
0.9873203508
0.9925670927
0.99169546
0.9905578959
0.9894072633
0.9876985727
0.9857399804
)


100
(
0.1656280254
0.1899673058
0.2087940831
0.2248337805
0.2395756072
0.2529349595
0.2657338153
0.2776809862
0.2892508118
0.3006041176
0.3112667878
0.32181387
0.3323024382
0.3420612095
0.3517576123
0.3614943352
0.3709560682
0.3799748518
0.3890236319
0.3981275601
0.4072227366
0.4157131535
0.424277073
0.4328641025
0.4414555704
0.4500037599
0.4581326089
0.4663257316
0.4745292401
0.4827403859
0.4912008535
0.4990849789
0.506926389
0.5147770409
0.5228466658
0.5309471575
0.5389436781
0.5464957141
0.5542298368
0.5620102272
0.5698015633
0.5776198732
0.5856355919
0.593161809
0.600705372
0.6082608883
0.616099955
0.6240205486
0.6318458361
0.6391892182
0.6468156445
0.6544595807
0.6620774209
0.6698627126
0.677608956
0.6850103119
0.692399754
0.7002106881
0.7080794326
0.7158499151
0.7233092942
0.7310399317
0.7387785953
0.7465182834
0.7542370216
0.7619140565
0.7695816434
0.7772348729
0.785066077
0.7930518363
0.8008552121
0.80858509
0.8162960622
0.8240174618
0.8319004179
0.8398414065
0.8478500864
0.8558683935
0.8638334607
0.871743107
0.879713021
0.8877056437
0.8958161035
0.9041379874
0.9123960496
0.9204700403
0.9288505266
0.9374223013
0.9462275348
0.9544409192
0.963291021
0.9721320678
0.980959335
0.9905731598
0.9945166805
0.9933458916
0.992412258
0.9914001667
0.9897967545
0.9879968076
)


100
(
0.1631294735
0.1872166563
0.2059587306
0.2220559496
0.2366406879
0.2501402282
0.262814486
0.2750043036
0.2864639476
0.297782458
0.308740372
0.3191802948
0.3295195392
0.3397865317
0.3493866066
0.3589326692
0.3685488646
0.3779666821
0.3868784082
0.395842017
0.4048428416
0.4138353738
0.4224458863
0.430937159
0.4394402744
0.4479444732
0.4564917752
0.4648728383
0.4729985954
0.4811316936
0.4892986143
0.497678398
0.5058962318
0.5136733821
0.5214818362
0.5294973598
0.5375277383
0.5455754631
0.5534189788
0.561117972
0.5688589556
0.5766094558
0.5843564939
0.5924824569
0.6003414423
0.6078326448
0.6153808648
0.6232166405
0.6310742008
0.6389374692
0.6466945366
0.654235033
0.6617717029
0.6693014818
0.6772375599
0.6852897834
0.6927131108
0.700228633
0.708005945
0.7158019425
0.7236963002
0.7315302326
0.7393429906
0.7471346367
0.7548069546
0.7624640926
0.7700502061
0.7778795797
0.7857688203
0.7936202802
0.8014955752
0.8093588329
0.8171929764
0.8252254203
0.833308647
0.8411809061
0.8489874834
0.8569705606
0.8649778469
0.8730987096
0.8813878796
0.8893485584
0.897591546
0.9059431855
0.9141719918
0.9225311207
0.9311410227
0.9395111741
0.9481733376
0.956842524
0.9659436402
0.9745769367
0.9843791825
0.9926950097
0.9960948363
0.9947911162
0.9940526124
0.9931702698
0.9916898713
0.9900649625
)


100
(
0.160659373
0.1844930672
0.2031567297
0.2192485621
0.2337300743
0.2473716924
0.2599208904
0.2720790038
0.2837161943
0.2949209098
0.3059792802
0.3165883183
0.326817072
0.3369936805
0.347060471
0.3565102751
0.3659370744
0.3754108288
0.384833213
0.3936435525
0.4025214061
0.4114187332
0.4203095696
0.4290715836
0.4374821839
0.4459399516
0.454398821
0.4628905853
0.4715334969
0.4795825014
0.4876447466
0.4957639126
0.5040614417
0.5123746625
0.5203543322
0.5281247402
0.536075417
0.5440368719
0.5520065373
0.5600607544
0.5679805206
0.5756585053
0.5833455393
0.5911070403
0.5991737234
0.6072574123
0.6149093037
0.6224946559
0.6302756334
0.6380380979
0.6457508723
0.6538489435
0.6615070674
0.6689793823
0.6765801364
0.6845399882
0.6925227287
0.700326108
0.7080314184
0.71584619
0.7236584183
0.7314734685
0.7392622303
0.7470056694
0.7547388246
0.7624468972
0.7704356523
0.7784674491
0.7864778636
0.7942724771
0.80203128
0.8098066562
0.8177696363
0.8257912466
0.8338337687
0.8419473316
0.8500173729
0.8581699802
0.8661827176
0.8741460748
0.882307693
0.8905603453
0.8989976209
0.9072722588
0.9153794898
0.9240129804
0.9325302935
0.9413816916
0.9499033066
0.9587302484
0.9674539667
0.9765004029
0.9856928573
0.9947750711
0.9973464291
0.9960583784
0.9955012575
0.9947563864
0.9933893247
0.991835422
)


100
(
0.1581285415
0.1818056389
0.2003911673
0.2163049764
0.2308536266
0.2443556412
0.257062957
0.2690980029
0.28088607
0.2920943373
0.3030309837
0.3138766403
0.3241626385
0.3341931221
0.3442120888
0.3541357863
0.3634438236
0.3727546175
0.382094001
0.3914069574
0.4002715866
0.4090628615
0.4178605644
0.4266468947
0.4354557677
0.4439924908
0.4523723323
0.4607476092
0.4691809542
0.4777981753
0.4860827904
0.4940746226
0.5021434247
0.5103613729
0.5185913675
0.5268308537
0.5346980468
0.5425787317
0.550476049
0.5583738531
0.5664222519
0.5747227428
0.5823983191
0.5900199196
0.5978119103
0.6058081007
0.6138168134
0.6218357479
0.6295151387
0.6371668618
0.6448173128
0.6524778718
0.6606897955
0.6687211776
0.6761231387
0.6838748225
0.6917663891
0.6997053309
0.7076819334
0.7156008444
0.7235065311
0.7314099309
0.7391567517
0.7468878499
0.7545363606
0.7624926658
0.7704450446
0.7783774113
0.7863144005
0.794228752
0.8021060518
0.8101322004
0.8183987896
0.8263919453
0.8343086049
0.8423140247
0.8504169315
0.8585301187
0.8668643179
0.8752209253
0.8832745749
0.8918025956
0.9001700973
0.9083137969
0.9168896912
0.9255722535
0.9339712765
0.9424752423
0.9513956839
0.9600801815
0.9693698493
0.9786689722
0.9880501347
0.996238294
0.9983306777
0.9971200298
0.9967424869
0.9961397849
0.9949321203
0.993562306
)


100
(
0.1556229653
0.1790963687
0.1975088881
0.2133832941
0.228014322
0.2413667438
0.2541572093
0.2661468495
0.2778282365
0.2893053589
0.300133581
0.3108145734
0.3214554948
0.3314813011
0.3413248815
0.3511911789
0.3610056362
0.3702002423
0.3793979397
0.3886113912
0.3978048809
0.4067750044
0.4154753008
0.4241870648
0.4329092916
0.4416625342
0.4504100731
0.4587049122
0.4669984624
0.475369464
0.4838940103
0.4924230066
0.5004323147
0.5084454008
0.5165890677
0.5247369715
0.5328841101
0.541203738
0.549025483
0.5568527871
0.5646798563
0.5727218034
0.5809399075
0.5891061318
0.596656751
0.6044702835
0.6124034562