/*--------------------------------*- C++ -*----------------------------------*\
| =========                 |                                                 |
| \\      /  F ield         | OpenFOAM: The Open Source CFD Toolbox           |
|  \\    /   O peration     | Version:  2.3.1                                 |
|   \\  /    A nd           | Web:      www.OpenFOAM.org                      |
|    \\/     M anipulation  |                                                 |
\*---------------------------------------------------------------------------*/
FoamFile
{
    version     2.0;
    format      ascii;
    class       dictionary;
    location    "constant";
    object      la_i2;
}
// * * * * * * * * * * * * * * * * * * * * * * * * * * * * * * * * * * * * * //

la_i2_table
100
(
100{0}
100{0}
100{0}
100{0}
100{0}
100{0}
100{0}
100{0}
100{0}
100{0}
100{0}
100{0}
100{0}
100{0}
100{0}
100{0}
100{0}
100{0}
100{0}
100{0}
100{0}
100{0}
100{0}
100{0}
100{0}
100{0}
100{0}
100{0}
100{0}
100{0}
100{0}
100{0}
100{0}
100{0}
100{0}
100{0}
100{0}
100{0}
100{0}
100{0}
100{0}
100{0}
100{0}
100{0}
100{0}
100{0}
100{0}
100{0}
100{0}
100{0}
100{0}
100{0}
100{0}
100{0}
100{0}
100{0}
100{0}
100{0}
100{0}
100{0}
100{0}
100{0}
100{0}
100{0}
100{0}
100{0}
100{0}
100{0}
100{0}
100{0}
100{0}
100{0}
100{0}
100{0}
100{0}
100{0}
100{0}
100{0}
100{0}
100{0}
100{0}
100{0}
100{0}
100{0}
100{0}
100{0}
100{0}
100{0}
100{0}
100{0}
100{0}
100{0}
100{0}
100{0}
100{0}
100{0}
100{0}
100{0}

100
(
0
0
0
-0.0008310399778
0
0
7.012802386e-05
0
0
0
0
0
0
0
0
0
0
0
0
0
0
0
0
0
0
0
0
0
0
0
0
0
0
0
0
0
0
0
0
0
0
0
0
0
0
0
0
0
0
0
0
0
0
0
0
0
0
0
0
0
0
0
0
0
0
0
0
0
0
0
0
0
0
0
0
0
0
0
0
0
0
0
0
0
0
0
0
0
0
0
0
0
0
0
0
0
0
0
0
0
)


100
(
0
0
-9.411350034e-05
0.0001812132229
-0.0003114069803
7.729163992e-05
-2.981247783e-07
-9.82361287e-07
0
0
0
0
0
0
0
0
0
0
0
0
0
0
0
0
0
0
0
0
0
0
0
0
0
0
0
0
0
0
0
0
0
0
0
0
0
0
0
0
0
0
0
0
0
0
0
0
0
0
0
0
0
0
0
0
0
0
0
0
0
0
0
0
0
0
0
0
0
0
0
0
0
0
0
0
0
0
0
0
0
0
0
0
0
0
0
0
0
0
0
0
)

)
;