/*--------------------------------*- C++ -*----------------------------------*\
| =========                 |                                                 |
| \\      /  F ield         | OpenFOAM: The Open Source CFD Toolbox           |
|  \\    /   O peration     | Version:  2.3.1                                 |
|   \\  /    A nd           | Web:      www.OpenFOAM.org                      |
|    \\/     M anipulation  |                                                 |
\*---------------------------------------------------------------------------*/
FoamFile
{
    version     2.0;
    format      ascii;
    class       dictionary;
    location    "constant";
    object      la_i6;
}
// * * * * * * * * * * * * * * * * * * * * * * * * * * * * * * * * * * * * * //

la_i6_table
100
(

100
(
259.1679909
0.5912770055
0.9639649425
-0.9148909568
103.5525033
56.24922203
-166.0775681
36.72731761
88.85604767
-11.97984545
-41.16093129
-57.63788098
130.1092389
-56.38976054
5.840759824
-22.72435889
66.02004466
-125.9448299
121.6451536
-94.5193951
86.61873437
-73.57980018
45.10769647
1.813302352
-78.89268515
74.03290334
-18.09414682
-50.93193151
34.44112972
15.52138616
2.568065741
31.21232622
-74.55826036
23.72877628
74.53509578
-127.8102705
52.5139119
-36.17014673
-186.1354187
299.2577771
-95.78674271
115.6525426
-168.7222013
-124.2344153
182.6917055
157.9548456
-501.1465156
292.9352384
-24.08084389
-144.4909757
145.7038979
-206.7660751
150.0680097
-80.70084387
-58.67498388
267.8454017
-318.494565
177.3009637
-138.7139612
53.08995098
15.27514505
5.544658622
5.954264748
1.94528031
12.30090899
15.42139513
-6.908347553
-41.46724516
13.52737864
29.17617438
-11.33853846
-16.99214749
18.12006404
-0.2790624194
1.196431495
-3.206156756
-5.191885427
2.35155103
-0.2486264181
-5.217850119
0.190296856
-0.9830944517
15.75377976
-6.228168204
0.5927668285
-4.104086509
-0.3991465196
6.187151819
-5.582560062
23.72897767
-14.53958631
-18.38320804
6.731579062
-7.677422527
-4.207025886
-0.8999171258
-16.36191318
-12.97174121
-17.25533072
-0.02731498063
)


100
(
256.213019
2849.820357
2630.90801
2239.106324
1950.921163
1775.607738
1567.545928
1484.729639
1331.623138
1273.868948
1203.8508
1075.534137
1049.318306
1018.94079
899.1399825
825.8995714
804.0632734
728.3804932
647.0882895
611.7465032
595.5461466
542.7327376
497.5303694
445.5703153
324.0101599
307.0034671
371.1523882
411.0823557
385.8411347
287.3091272
277.5512896
206.5416246
15.87224959
64.23573631
224.3092235
303.6714572
300.7244198
168.1307881
39.77140592
59.41141933
61.10464333
21.87288815
29.32382422
129.652384
-6.317832435
-225.3330454
-99.45022586
97.2179924
89.38426696
-14.85239917
-113.4662051
-107.7902079
-49.61123878
-152.2843902
-167.0656923
-46.29301872
-24.99190216
-241.5660567
-235.2755511
219.1773275
140.075973
-414.0945271
40.39689283
235.3969003
64.27208295
-536.3911627
-96.4089504
441.843057
12.39336992
-594.9884848
95.12703347
685.9832856
-770.5569082
-646.9560974
926.0089626
110.1724748
-1188.678188
717.7368627
340.0658478
-1329.852142
1057.803787
-525.2805254
-680.6335963
1237.040077
-1630.550545
506.9803022
61.9383155
-812.1618898
656.1049197
-670.480038
208.3586325
-233.8808975
267.19428
-80.62636458
127.9676369
-83.06801337
33.48114062
99.76768641
-129.4480984
-5.110972563
)


100
(
250.2713015
2733.583458
2497.531181
2007.456162
1678.651384
1384.168554
1215.612605
1074.321515
931.8867937
803.9926
782.0089703
618.2202881
529.8778613
587.2896671
512.7061978
369.1865105
340.1361837
343.9015275
257.7937025
184.1121915
186.4295556
186.37057
141.3698992
129.7871085
89.11506649
-0.9357609907
-23.94860174
41.46879466
109.7553088
72.85781096
31.05049402
45.46884105
11.95413767
-102.687749
-168.1150279
-40.72697675
71.53866644
46.50919489
3.168717219
-71.14957619
-108.1126694
-82.07628677
-116.5874636
-95.25335124
-75.12704911
23.03554498
-3.305852604
-171.1070082
-221.0859101
-85.09164006
11.45657855
-68.84697732
-64.10803757
-122.5212817
146.4451821
-33.80758438
-241.6510023
-188.7988137
289.0216922
269.9861304
111.3181593
432.2043058
-98.68166209
-449.910782
395.4640545
435.1073497
-151.9406926
-397.1575666
441.0777923
379.7032134
-362.5264943
-483.3714211
194.7833036
-128.1648033
-857.1825643
-350.5705506
961.926939
-21.73800884
-900.1987757
135.3664942
-541.9516645
486.7322336
-1401.779278
792.3417107
56.36736521
-783.0698892
375.7922815
-145.417721
-225.0416006
218.0702498
192.1154025
143.8986813
35.15042559
176.0334559
-30.49239248
0.4953425328
-126.3221252
-254.9851103
168.7713434
25.34292612
)


100
(
243.0706356
2614.679299
2337.025737
1888.166432
1449.673407
1020.728784
887.1958132
718.7754044
608.7794424
456.3801428
420.7816409
336.1646209
155.1422006
181.9281295
254.7080502
155.6900259
50.1012982
60.74625043
79.25572585
24.87748332
-19.77688794
-2.204701176
-1.237385047
-29.64552799
-29.04254522
-26.29573309
-89.17815321
-155.0788096
-84.62692178
-6.10334613
-22.90096779
-29.13408958
-26.78548313
36.34687185
28.12360406
-89.10266813
-155.4390571
-56.20101573
41.53996236
40.94322772
95.1178972
128.184476
136.8432639
197.7335782
-7.787954502
-60.93123379
31.06007245
313.2675609
67.83522823
-298.8710988
-156.7547633
435.1615473
503.1422306
2.532276035
-31.91853315
476.3968877
299.0449651
-27.17810085
-28.67148087
501.4984625
366.9619868
-103.6852009
162.6550732
144.3039882
-339.0607581
-126.3159444
66.32188759
15.88326066
-235.8269982
-460.1298144
-199.2537076
-11.11930688
25.90597882
-276.9082196
-449.5504674
-164.1538702
650.9656503
-203.7338395
-1205.907942
806.3185839
164.7870116
-648.3155444
420.9378487
-114.7204179
-251.2921698
-193.4680989
172.4034127
176.070417
245.1157079
126.882994
311.3144865
175.7425025
83.71866534
-30.41887324
100.4187397
60.86581679
426.0524209
-767.6930387
136.6084178
50.68090741
)


100
(
238.6325932
2579.927431
2247.682721
1804.087026
1250.298083
803.313075
585.6513083
479.1548546
361.1203062
231.8568217
148.4023026
154.7443953
44.97404778
-63.47351448
13.96982997
79.38516206
0.1405409771
-66.30114729
-33.14854279
10.67136209
5.038096556
-11.11806596
6.548905809
6.164196031
-10.4030821
-7.683811989
24.46801341
-18.35840678
-96.83957816
-66.26777883
40.70067129
121.8480605
153.4158382
199.6265779
241.9459901
309.8239154
73.29044106
-268.9060033
-191.0251228
139.3668457
377.0912932
284.1777278
-45.66564931
125.6721092
300.0132482
11.12902512
-12.66947195
69.49615086
498.546681
236.6458766
-262.9303908
-5.173837464
732.2864543
530.5459538
-60.10223848
-0.1509814182
337.8919736
345.4060869
-112.7423441
-100.1156618
29.13652498
-64.3438941
-268.3858784
-380.1876282
-148.4212262
47.41573633
-20.625354
-279.8959528
-70.99924302
193.077441
175.7358658
-136.2919599
-298.1674425
247.116866
362.9589341
67.80997067
-448.8664431
135.4114386
286.8112472
-11.70817366
-390.2723821
-409.6350333
95.44063616
132.4790178
128.5773522
486.7421846
118.1810146
379.5530223
156.4594546
676.3279338
117.9238525
43.9693068
101.9355645
44.55305662
144.0921519
45.33923019
915.1834937
202.9551275
144.1645549
70.08003184
)


100
(
237.2588318
2507.360742
2166.9805
1707.977745
1093.556073
654.1611549
347.5938496
278.8688764
192.6122542
96.19691643
10.13006295
9.788570082
26.81985123
-58.48395991
-115.8716312
-23.42383087
47.90893829
8.234247686
-21.01880819
36.06212534
115.817546
168.9963151
186.9698134
192.0839379
186.1871084
175.097958
202.2299803
277.8818478
242.5615913
64.92138043
-53.03956232
52.7683117
210.7197097
191.9617803
-19.20229907
66.75262798
278.3743264
10.90704203
-276.6520742
-164.8096411
448.970416
743.4620238
218.4794644
-50.06573859
295.1185475
355.4109377
134.1602422
-5.349593061
92.33653105
469.5591175
231.6447847
-184.8344837
96.97898982
454.0788353
184.7467166
-241.4435309
-339.432374
143.4053908
43.69659175
-133.8373387
-228.457965
-220.7327982
-109.9623501
63.50815691
14.55867536
-213.4104571
-196.6190064
39.80007684
160.2528712
0.7184183128
-134.0040138
-75.07682297
106.2696177
67.85514156
-47.57000405
79.13831171
312.5717927
21.3765447
-163.2677983
-163.6569498
329.7093139
383.7881924
-130.9773517
299.8057227
337.771146
294.5825515
621.3793392
236.4042664
501.7826059
95.62815426
93.18618694
148.8230271
24.30352034
114.9564474
1.956284687
222.2866652
101.2444407
261.3204605
220.5826612
67.08513614
)


100
(
237.0640307
2405.636946
2056.520635
1599.458
1021.254903
551.229178
227.5766569
115.4670615
86.38497453
15.98050615
-48.86661146
-70.33325559
-22.68368603
8.858687221
-50.82804133
-74.96246153
37.36808164
141.3719073
154.5021682
153.8866146
215.41083
316.7673362
387.4537046
352.2223536
249.6395841
136.5646993
38.36510238
62.81194353
192.7180618
184.2571451
-40.47335107
-143.2898715
110.1350774
423.4328926
285.5526998
-15.66407302
157.8748201
357.62957
101.034566
-243.1042981
-12.00192496
692.0260173
680.1485805
75.07284513
-57.23590011
170.5573781
383.7013684
37.63827109
-15.4752616
-26.64488423
281.6523806
162.9303672
11.11323733
-150.1630902
-157.3504478
-23.86926177
-28.04812992
-233.4783366
-305.2622081
-27.09753418
184.5667455
131.5285918
-132.7324933
-172.79569
-195.082007
59.69188248
260.2413291
8.530710407
-269.1170765
-117.0300778
182.3081177
217.1131431
-64.95047186
-81.85644655
57.40725603
160.1638472
50.29973105
24.23121775
358.5608708
386.8694428
51.30685091
324.152896
447.9675828
321.0685374
495.0833399
520.1854035
233.7526208
456.961071
377.777013
248.2055063
159.7955909
54.56103707
142.7312699
29.61818983
-51.00941988
-1.583997031
-247.7617629
269.3895616
22.6161909
190.404483
)


100
(
233.2710436
2252.316683
1915.579897
1516.211041
962.2296731
465.0516612
177.4087636
9.749895488
-1.195965981
-19.02568921
-62.93924708
-85.58010116
-55.92316575
22.64387568
70.90376961
38.93030923
49.17270778
184.5153999
303.8102762
307.365121
242.4651183
222.4719878
258.6024101
235.1169601
59.34202476
-97.39041952
-169.1175984
-123.5711464
88.2883504
318.1538809
247.4585275
-64.06465853
-137.3501525
283.1088482
595.956706
255.4980283
-24.29592894
191.8370209
369.1001082
115.3066823
-188.3329528
183.9341081
699.076024
422.9357384
-79.53269632
-246.4005602
80.24356727
314.0432967
241.7073527
118.774676
-57.4067864
-48.85133328
31.94447043
-78.48174291
-216.6630836
-207.4106987
-203.1427905
33.04973429
100.348188
-96.1424456
-276.0001366
-33.98050967
273.6229013
421.6262171
187.1529306
-16.06323767
-183.2285741
70.45896831
185.8689995
57.43530457
-226.7326518
-178.4743166
105.7763835
191.9168522
22.04769547
-71.06580316
324.0300784
336.4196328
22.33833928
175.9651106
364.2480942
346.9441127
413.7348024
510.2684375
326.0991021
266.3542276
179.9975497
21.5951753
275.4493884
-64.69180911
-491.2314965
66.17146541
-350.6425285
-246.8336445
-241.2318626
287.9222246
-75.37107781
238.8726569
289.9958229
126.571001
)


100
(
230.0391366
2102.761893
1785.508998
1459.57217
880.001601
406.0914852
154.7551224
-14.55605379
-70.00745247
-43.07652858
-43.08683688
-56.38307432
-32.38696745
39.16112067
134.5184061
191.8776653
172.2280968
179.876937
258.7496413
309.4090858
214.8543207
25.87507397
-27.03452463
58.2539371
78.78702422
-95.25702011
-290.6143655
-319.6648488
-112.4325097
270.4439462
506.3901527
321.0174108
-80.99477655
-73.08294858
418.4443308
550.5504925
122.6733325
-84.65305453
115.1194768
329.5999486
71.17719689
-28.98267922
267.5675966
360.168681
194.5665198
-39.50996204
-171.5788313
-35.24511781
84.67663009
125.7957533
73.74554708
-204.0456658
-263.2847928
-93.96629144
25.59846264
72.19120637
-92.03802701
-128.933782
-80.04220822
180.9460455
508.2152149
268.0615529
-108.2929817
-154.7957171
60.76880381
288.0407087
83.07522489
-182.5930481
-201.3042283
58.61324651
310.4733192
131.4361164
-197.2475743
-59.88818193
347.5572575
205.3865677
-149.8945099
63.35532116
230.7518208
215.9432108
245.0087537
397.2425178
315.2598842
354.9469481
571.9835871
458.1744574
316.1724635
-142.842445
68.03312728
176.7043351
547.4208421
-341.6672921
332.545588
-24.03471558
-263.20149
355.538766
31.27991768
408.2429952
300.1714262
189.3160654
)


100
(
230.1599953
2013.730981
1679.315927
1398.105806
782.6109321
352.8208755
118.786352
3.828383564
-86.32511711
-75.62152289
-17.25885005
6.479847376
26.57295867
85.73154131
156.0342067
223.0717002
249.4259685
178.0085856
68.19638358
89.7905564
142.2456872
52.69801989
-150.0288742
-181.2435982
-15.2246922
85.92939178
-78.49758449
-329.3040186
-361.9521388
-58.17058996
383.5547526
590.3815512
304.1950108
-90.07977489
50.18289722
486.8684968
413.301587
-5.899906736
-163.7738387
82.26989113
331.6545159
295.0775053
299.721975
107.1450573
-19.87528694
-2.572264066
-69.03701798
-251.552369
-372.0697744
-227.7295763
100.8079966
245.8246413
19.75608877
-168.5327571
-148.7331361
-15.30695468
327.7948511
533.6927268
325.2620746
50.73535276
-153.3360902
-23.75661554
128.2559814
53.65750262
-238.3041457
-206.7329956
113.2081131
285.759294
201.9283108
-80.8584928
-171.3578167
130.5194034
282.235588
-51.6162498
-279.604013
28.19178754
122.2500645
47.05495562
90.0239328
220.9657244
189.5155989
77.23278575
261.6566648
182.8479211
236.1138567
321.7135491
141.936756
-592.8308403
-604.9179717
-515.8596497
-1200.096435
-333.7504842
-1150.215176
-1416.96171
409.9036363
-114.0668735
372.8183827
148.0770585
281.6183736
443.969851
)


100
(
228.7914282
1892.245035
1558.982955
1321.735094
739.0979396
292.4999267
75.43237987
16.68417537
-48.65973474
-81.83017874
-14.0181942
63.62998212
93.05813087
121.323799
159.7085351
143.5930065
152.7427843
145.946092
34.04559889
-113.71031
-76.44740101
53.89342034
27.12617945
-150.5986292
-201.8587465
-21.65203729
122.4466687
-31.75401641
-327.0048728
-413.390658
19.80419683
480.6415907
526.6855899
203.4493131
-65.67401866
106.9191119
340.8337184
263.8462029
57.98059455
65.31854384
263.0559986
299.961153
201.0807202
22.69052067
-184.5551704
-245.3219192
-104.1580123
27.05788149
6.491183032
-229.0378049
-367.944441
-73.35812069
236.3399473
343.6016733
433.1555568
282.1240491
-14.31544593
-53.32732567
115.381834
232.7682273
-11.54267325
-245.978674
-227.1257007
-38.4904983
203.1467652
376.075623
49.87339189
-123.4852432
162.0472103
331.1723196
13.59492598
-300.5674631
-33.33017584
88.66107709
-51.6211931
-179.6762317
-68.51701253
11.01703681
-67.41207479
-103.898467
197.2914973
286.5595703
284.1005557
57.06153015
-148.3993292
-256.3895146
-183.0446271
-119.5833602
-123.3036698
-697.7637973
-21.98496013
-734.4274171
-570.0582191
884.7158169
-937.8585987
-778.3098343
-445.1242343
432.8389725
146.6719764
324.7165707
)


100
(
225.3739086
1762.786176
1423.70717
1233.224168
724.0429971
238.4668003
40.20217916
-1.836295194
-0.1803293574
-33.07670933
-17.04968348
78.84914282
137.1898489
117.0984253
109.5328566
93.20212801
24.96837215
21.83029135
35.99446164
-48.66986378
-180.562054
-121.3069828
47.84687492
62.76566531
-111.1769311
-213.0849285
-64.69163751
100.6810704
11.95896797
-231.4892165
-307.1636386
-105.3975055
348.9451574
395.5931144
189.3918825
81.3320399
183.7214607
304.4647498
239.0601638
38.84991508
-179.6601715
-226.5967587
-83.60725891
102.2751605
113.7700381
-89.96591212
-214.9736415
-200.433616
-62.59400844
155.7900621
227.0030991
278.3170181
392.4924051
209.6353974
186.2851705
276.5645791
168.5060675
-136.2421837
-350.3838727
-176.1792553
101.3278612
105.1962344
117.7725487
107.0129761
-65.9966329
102.265125
336.1278904
27.82802402
-300.1553139
-14.02960261
301.7882419
208.4280404
-94.01725569
-176.4811873
-171.3280574
-276.5300825
-325.055541
-107.5405014
154.4919564
205.3541128
238.5326421
171.8298011
-62.39651081
-21.11966795
-46.20493253
-206.9222903
-232.8563384
-576.174897
-793.177156
-656.4387608
-1465.398733
-814.8456537
-880.0390636
-848.7789883
-1414.93671
-381.645983
-2300.235384
594.1121959
52.1705037
-80.11120709
)


100
(
223.4907964
1617.933913
1283.885486
1175.52198
707.644882
219.5285309
14.93970388
-23.72626476
14.26295913
33.42477082
19.76060453
46.58090822
124.1618238
116.4442342
38.26879066
9.256156496
3.592469525
-39.16437579
-31.77482953
13.7956444
-33.37294442
-134.1961458
-106.1636149
40.65497446
82.07618922
-72.46688321
-202.5883759
-101.7268371
71.57239492
87.9956096
0.7343506189
-32.10783781
125.2525257
334.8365229
469.9612517
379.3041535
144.603433
-74.2757625
-110.8397595
2.578635869
53.03356359
-98.83412694
-309.4627379
-262.8781261
4.038816714
167.6510223
105.4343575
14.16786498
75.33511981
278.5144496
576.4428954
528.959989
342.9887403
20.86378923
-172.6994422
-189.7583111
13.56983603
111.683701
-21.37728727
-176.8169592
-40.32650302
79.93013965
191.6678033
267.5424672
-17.11375514
-300.6906024
-113.2348067
137.0364699
56.28303634
-23.04492938
-282.6887138
-294.3919871
-187.0514211
-156.9140835
-53.40221756
167.1512448
114.2941513
37.76872332
22.36640776
-54.9295853
-285.9555102
41.71932436
183.5042105
67.00515559
-313.3884863
-548.0762727
-439.2184244
-726.3537232
-860.5085324
-767.7232382
-561.2168002
-1247.949277
-2072.889563
-3034.254765
-1088.868288
-570.3473795
125.402573
-1245.090892
-377.8891247
-224.0161565
)


100
(
224.0876864
1518.780253
1176.613315
1115.212997
677.1577427
237.1764523
2.079778786
-30.648164
3.516329361
61.10231221
76.81463367
34.28917299
45.57343757
88.50986945
42.5514432
-44.81435927
-46.98242871
-12.32934772
-31.22076823
-28.00912504
21.59862293
7.891054405
-87.69043863
-121.6431986
-7.845447613
78.92730678
-2.423564511
-95.5535859
-24.35434533
157.9084402
313.9810823
380.792297
367.7692582
276.2748126
200.8082694
187.1456159
166.5935485
60.09990124
-162.9986473
-271.9766386
-141.2129214
44.65184143
44.6435713
-134.9790319
-232.9283477
-35.52403015
263.0839441
489.2774187
595.5518793
392.8768328
86.40286306
-59.42059841
84.14892703
195.0426983
89.20043573
-188.4359
-287.9975995
-192.6371165
154.5494262
386.1599655
178.1464086
-103.7998914
-233.1975686
-1.354702227
199.2604847
-55.30169894
-303.4673743
-228.6561085
-306.8033833
-291.8305112
-294.8641884
-286.925769
-193.8861172
-56.89210509
-51.22951271
-220.0436704
-339.101596
-319.8452366
-234.0889023
-62.24668246
60.83925058
56.80316523
-276.6976934
-843.386258
-398.5633258
-344.2662617
-836.9649243
-1053.195434
-439.9861544
-897.2007344
-887.4212691
-1946.101547
-1248.535683
-330.7691933
-1482.966788
-1518.291832
-405.8832031
345.9708045
-677.3543278
-441.441187
)


100
(
225.9578757
1452.981788
1077.344941
1038.200478
651.0352569
261.3698417
13.0946246
-29.99258573
1.456549332
48.92275906
95.85735594
73.08399935
-0.5487948382
2.333891652
47.35723593
8.270288019
-63.25370921
-42.63847528
8.79254143
-6.43156851
-25.00775721
13.40010669
22.58708823
-68.67589258
-137.1640729
-35.71941348
105.8765778
154.155108
167.6276611
258.2323412
392.1776084
511.5296787
515.3682949
371.6995754
107.4961321
-117.7305489
-133.4132925
13.44358944
77.61332899
-92.36874734
-274.153778
-244.5876922
-43.79251565
158.2148857
250.7167227
313.1667298
351.3861541
219.2250052
209.8294266
340.3897208
346.689974
-7.961054794
-289.3264982
-194.1358877
19.93828633
116.0308136
73.91698357
51.62523249
-191.1018381
-169.5185019
168.01362
246.6881353
-127.9575222
-367.3532154
-281.0792751
-59.92357446
-152.668238
-401.2023282
-489.9354336
-527.4968866
-556.3057576
-616.295301
-531.5943559
-431.7511926
-298.2612415
-252.821684
-272.4795979
-211.1823591
-237.9492513
-332.0531615
-524.0403631
-505.4511732
-589.7988276
-472.4892607
-598.2325483
-1343.115255
-1280.962958
-1297.357824
-1856.904812
-1416.548385
-1797.946906
-2509.378698
-1127.213428
-897.5967687
-1395.062578
-1009.13128
-510.8019648
79.4681392
232.2227501
-307.6034127
)


100
(
223.8467441
1384.934977
988.025106
950.9183197
631.9295719
272.6143861
49.32225831
-22.54889867
9.621915621
41.79174435
66.31798975
80.60379727
35.23055553
-37.04608799
-14.75900302
51.17560442
26.1498916
-40.19568526
-22.23673587
25.39485736
4.721734815
-40.3745448
-13.42212389
30.98734041
1.360426439
-12.93551588
82.56113522
251.7381694
403.0575728
469.1161501
430.316714
283.1606497
193.0745712
192.3953096
171.9863258
8.190523378
-218.7868637
-283.846044
-120.3870338
38.66075539
0.05264158054
-101.5300628
-61.63026188
119.4618917
367.7034714
502.8595974
474.8210293
214.3899919
-197.8103018
-235.1796208
86.91678754
281.5447348
33.73944756
-256.067743
-300.7043106
-87.74564006
103.1869684
240.8558949
202.8052144
-272.1071783
-331.3813483
0.8951986954
89.31281828
-139.6809385
-269.9356346
-555.4948242
-716.8130287
-696.7121941
-653.5443222
-597.0574462
-521.9266119
-384.406008
-491.2833643
-515.5302159
-571.6371292
-650.0921394
-742.3420639
-560.3945972
-427.1099492
-399.7559073
-564.6497408
-716.2302937
-819.9066775
-946.3493007
-1067.505163
-1337.875809
-1521.350101
-1502.13125
-1571.048051
-2416.116628
-2156.25778
-449.531057
-3493.10202
-4062.892575
-1960.650669
-175.2837191
-873.1799904
-472.1949659
-221.3709767
-103.0807274
)


100
(
219.8481873
1319.293728
913.7317361
878.5181032
599.7278222
268.0945013
87.82081046
4.337382547
10.94040512
46.19398627
52.81693518
47.11465434
49.54012397
14.08233731
-35.63885294
4.524958749
78.85314975
58.07115971
-11.39556452
-13.16385732
23.35722803
4.948585404
-39.46661734
-2.664323216
96.04804058
180.6246792
242.4802291
309.9318435
373.2124258
428.1998685
430.184372
311.0601316
54.87578063
-123.1988221
-71.94298606
59.9441561
29.00957792
-166.9298272
-298.348383
-191.7575941
36.83803751
212.1880651
325.8865455
338.0521631
160.4924084
24.32438529
99.14759793
262.8529189
165.3396972
-226.8123024
-464.3542198
-244.6073953
-22.11911157
11.03410768
23.48103592
-106.5644669
-346.6003658
-181.061385
254.9816239
183.0390217
-321.2795441
-503.8267294
-263.6556499
-131.5695664
-353.6379364
-492.8358642
-531.8459683
-573.6110981
-567.0719403
-574.1531229
-617.8778299
-865.1535328
-848.8989132
-776.1156259
-726.0048729
-689.9547676
-544.012909
-398.1656756
-573.8140754
-1001.863517
-1087.782947
-871.1551682
-653.9734645
-1082.154765
-1661.645355
-1339.358765
-1442.317659
-1882.251106
-2048.778315
-2227.915084
-2703.227863
-1299.770506
-2825.885873
-2954.945248
-1841.225745
-1260.155518
570.014775
-401.2245388
-571.9613795
518.8121723
)


100
(
219.1682075
1255.02841
857.2907177
821.2307917
555.2381082
267.8958374
107.1805282
48.37464023
18.48490067
27.51427795
59.44655992
49.10674562
36.46940109
48.95290721
34.0873289
-2.368708057
33.21260139
97.21442616
80.95223497
5.378516216
-15.88197431
21.44735251
39.08909629
58.84808566
131.9970221
272.0254106
418.6901208
472.220509
379.9117157
190.6847015
113.4319119
180.5556039
188.0522314
-17.84553957
-241.8516341
-220.2651304
-39.14574699
56.78269365
1.549359416
-46.64883965
55.37886032
194.5431967
305.2426634
379.7187165
309.6355301
18.20497697
-264.8755594
-231.6119797
5.553326018
25.28585562
-210.8889727
-378.3972612
-356.3683876
-276.8830328
-58.46525379
167.739881
-41.42567874
-492.2044908
-340.0559758
79.36670359
-61.30839976
-322.530056
-464.8184609
-690.8625527
-915.1207903
-869.0071418
-750.5773867
-595.9442873
-507.2361344
-481.1566418
-550.1938597
-585.0617151
-694.7448344
-814.0093987
-940.8537665
-1070.61856
-847.9784886
-575.5650389
-690.3806274
-962.2398158
-909.1587208
-1162.138409
-1363.236196
-1672.69001
-1884.3366
-2107.807384
-2558.164453
-2790.404156
-3097.337678
-3079.022874
-3892.550206
-3501.864639
-3967.783361
-4605.487769
-3709.121487
-1970.606403
-108.9282235
214.4022305
-238.7520559
-519.3706
)


100
(
220.8334113
1225.526632
815.9842533
771.3577867
511.0867329
263.7177759
110.9118107
81.43552967
53.42702407
5.545130372
25.65081995
77.56069151
73.67830557
57.48602437
79.80469721
79.06066669
44.20172384
58.92660034
103.9855179
88.47561616
24.38806389
17.3265197
76.75247402
162.162161
254.1251874
331.8227884
376.8177817
404.0451384
375.2814321
213.2563803
-63.25436756
-151.442268
4.391877538
147.4871906
31.42302806
-180.1486193
-222.8821116
-65.03626181
153.155689
299.5131618
362.9730217
282.5774119
35.4800398
-28.98906449
154.2208824
265.6116529
46.04173507
-315.765434
-453.1485515
-323.9067703
-189.15154
-87.5127947
-114.3390295
-298.9164199
-419.0319898
-156.234486
167.0029271
-86.60354133
-521.8097369
-598.4251102
-495.9074766
-553.4659456
-605.486827
-614.1106328
-621.2037269
-664.0895617
-667.7270691
-641.6774876
-717.2673995
-1017.347637
-1072.729815
-958.79216
-837.9029324
-874.6627722
-878.3046392
-778.218596
-810.0475014
-1047.724518
-1345.705677
-1165.588991
-1088.898358
-1277.833048
-1842.632217
-2216.533188
-2339.363756
-2657.585703
-2931.40802
-3198.999649
-3096.35417
-3973.338712
-3987.644749
-4936.807439
-5253.598881
-4038.895112
-3351.094749
-2787.170388
-1797.757929
-899.9270683
-523.1815055
191.6904858
)


100
(
222.6898036
1185.042395
780.924377
725.4215993
488.6007418
256.1374134
119.5584028
90.35316948
90.87061412
34.24911116
-11.06288021
43.32926524
120.5230179
115.9586356
90.40811761
111.1029289
118.7154604
82.83427187
72.21302492
89.31756648
89.12669972
100.1913238
140.5340908
221.0937012
324.5032193
389.8069133
345.7935291
206.1240673
139.1203361
164.8705667
102.753837
-102.8393692
-235.5301136
-108.9990049
85.13941152
96.12136539
8.936493735
6.488954312
103.9479077
226.7723879
330.347861
423.7062345
339.7564223
-28.0668621
-240.5818815
-94.45374179
66.58234847
-69.97421436
-332.742018
-447.3576966
-432.6708943
-343.482727
-52.55230525
94.82072314
-199.8167054
-539.2545146
-459.4111749
-299.0713915
-400.3097124
-549.9639639
-679.4809482
-840.1433168
-1013.56629
-1116.095192
-1032.76761
-832.5607559
-758.2969264
-816.187255
-865.2973249
-850.6353959
-988.8492017
-1141.737479
-1221.415693
-1279.026007
-1372.552196
-1244.910186
-1129.79303
-1372.434812
-1157.836832
-965.3801564
-1648.546373
-2029.42033
-2337.093976
-2583.72833
-3011.481177
-3348.75292
-3418.75461
-3744.557153
-3886.126921
-4478.462255
-4265.956946
-5688.189919
-4999.855434
-4953.513417
-2968.525492
-2201.994624
-2149.96112
-2457.009101
-1247.483602
-1650.816766
)


100
(
220.2993033
1140.496497
749.0416368
685.3547247
467.7512202
245.117494
129.0171082
95.35663092
102.7342938
81.35848462
24.30167745
5.942426443
82.62347715
165.398511
153.596065
110.6157974
116.698641
129.7567265
100.7661326
80.09016441
89.66180393
148.1553529
245.9527096
319.3893045
335.8246369
326.9544291
301.0739332
189.9597343
-4.282613953
-60.40396432
33.57825851
74.49464049
-57.60843868
-196.8642082
-134.9703395
52.00871609
193.4023768
267.6748058
281.0924411
163.9487219
2.726492156
51.92358829
292.2059972
304.9673813
-63.3983175
-405.4348786
-430.1032546
-317.8836242
-255.32411
-197.7766556
-183.9787389
-388.6332616
-419.0383483
-78.64472105
63.59853137
-276.3521076
-634.8869171
-707.372478
-779.539502
-881.4994185
-907.2853908
-882.4295688
-886.4587496
-953.2112076
-962.313157
-897.8305264
-953.7649692
-1214.857907
-1466.679076
-1458.114946
-1357.130472
-1404.142393
-1483.843996
-1349.078136
-1354.608142
-1654.961472
-1917.858403
-1873.068694
-1427.562112
-1225.854737
-1840.86376
-2392.836731
-2646.979679
-2997.834394
-3531.945783
-3833.119393
-4240.988023
-4401.360443
-4922.807843
-5418.820159
-5974.284048
-6820.472564
-6938.0439
-6752.242213
-3154.657841
-1219.961942
-1430.123598
-2111.048888
-1695.75385
-302.7107183
)


100
(
218.3385064
1084.238359
715.5715998
657.0396993
440.3016737
245.6349179
132.8228605
102.9985291
100.5110246
100.8511106
89.31505986
61.28579202
51.9218616
120.1703224
200.6676412
183.3656862
119.4568719
105.971578
131.3506462
151.3099563
154.7074976
177.0153311
255.3048311
353.9087972
359.0147243
244.0848661
144.6162299
128.0119181
78.94221982
-50.175088
-122.2020779
-51.69384511
35.02235633
8.404331503
-42.78159565
3.155375976
106.906696
215.3868548
332.0005278
365.5040117
156.9217492
-185.4577266
-208.6397527
33.0786734
81.54075072
-199.3042186
-480.161372
-584.0523437
-544.0748879
-351.1819322
26.02740359
138.8769291
-268.8927392
-527.7048194
-372.0239807
-287.0287513
-460.6109055
-654.5623629
-771.7168149
-962.175811
-1168.13873
-1283.685604
-1232.560249
-1095.118587
-1059.19325
-1188.639598
-1237.243209
-1214.203156
-1403.781231
-1601.709789
-1637.075748
-1600.05929
-1874.723878
-1952.923715
-1941.361761
-2128.721865
-2168.804761
-1713.003494
-1760.701567
-2320.576137
-2622.340201
-2965.749345
-3363.384275
-3875.067687
-4260.350486
-4554.418698
-5065.840066
-5478.311609
-5785.972167
-6346.312956
-6430.148418
-7228.812632
-8009.230297
-7188.250467
-4268.278929
-2069.292227
-392.8641666
-1322.385748
-1564.720766
-2300.180213
)


100
(
220.0523058
1034.853246
675.3791079
635.3329641
410.2880442
243.0302509
135.8372818
101.2335886
99.04375375
97.79178437
110.8285551
138.2113114
129.0822884
99.35388762
143.5875052
218.3783468
204.2535559
131.4496557
99.6633851
149.5562775
243.7833071
297.5190032
293.438012
291.3477027
309.7149129
256.6874954
92.36588803
-10.52759272
11.24105043
33.48877055
-37.34476526
-129.3590227
-94.45666985
16.53929464
110.0394402
178.7559599
193.0931365
86.2211864
47.97125485
180.8611598
324.3297789
166.9988834
-206.4359268
-417.241271
-326.7573344
-278.4805982
-316.7944384
-298.1556903
-351.8458022
-530.9110472
-395.2687564
34.56931541
47.00972081
-419.7147058
-732.589263
-737.2014891
-755.6346653
-872.282203
-876.3409284
-815.6038414
-883.7027133
-1046.994209
-1133.754497
-1102.615476
-1115.846108
-1436.584054
-1755.434027
-1789.574215
-1761.44796
-1861.746212
-1940.048363
-1720.752702
-1733.633648
-2164.263639
-2573.215585
-2535.238134
-2444.547444
-2159.306406
-2289.958439
-2884.555682
-3047.115043
-3322.76833
-3897.694443
-4516.60149
-4977.249636
-5560.82
-6096.532229
-6666.075786
-7361.628354
-7800.825459
-8201.40665
-8734.301692
-9907.815165
-8049.223052
-5831.058941
-3832.092925
-1723.650594
-1629.90324
-1146.461229
-1295.781504
)


100
(
221.5902681
987.6068686
621.2382681
612.2423599
395.3390354
230.7771124
147.0682508
101.3472256
85.4978825
95.40490381
105.9509408
142.585424
198.8691041
188.7199586
132.2883013
142.7809939
207.3300459
223.546668
174.3330427
141.6186891
208.9860494
343.0560368
393.3424658
301.0303027
194.744974
173.1451231
146.1306239
21.97331491
-66.29223773
-25.32152335
60.90107801
12.14886837
-33.62335444
0.7270821264
79.23496639
174.0055575
271.4755843
280.9588459
106.1160779
-90.81571802
-23.65660578
150.232287
73.59927518
-218.6101229
-433.740944