/*--------------------------------*- C++ -*----------------------------------*\
| =========                 |                                                 |
| \\      /  F ield         | OpenFOAM: The Open Source CFD Toolbox           |
|  \\    /   O peration     | Version:  2.3.1                                 |
|   \\  /    A nd           | Web:      www.OpenFOAM.org                      |
|    \\/     M anipulation  |                                                 |
\*---------------------------------------------------------------------------*/
FoamFile
{
    version     2.0;
    format      ascii;
    class       dictionary;
    location    "constant";
    object      la_i3;
}
// * * * * * * * * * * * * * * * * * * * * * * * * * * * * * * * * * * * * * //

la_i3_table
100
(

100
(
26.6226344
2.976026693
10.18246958
114.3951972
-102.8178635
-1551.272175
1224.707099
-9.455910345
-580.8084105
52.45596315
181.3304864
231.21822
-498.176244
212.2293445
-23.13588988
75.74537956
-216.5682994
375.7093431
-340.9039199
260.9843034
-228.9378051
178.5246413
-112.2147099
-4.663139141
188.2426853
-172.9705772
31.17892948
123.1255056
-87.38761179
-33.73429939
-9.694891206
-71.05143966
153.9019505
-59.27539699
-155.7177735
244.7235867
-110.9549792
63.06961946
342.515981
-559.2943353
157.4974227
-208.3531719
275.4859685
216.4522488
-330.5515333
-277.3088896
874.0999197
-565.1186618
15.58011412
236.3678045
-247.3105445
339.6482746
-254.8671091
119.7274295
104.938315
-441.9248797
527.633239
-322.3506718
254.8919835
-104.8984792
-22.58591772
-15.40307745
-13.05902949
18.97220191
-35.74420968
-54.36970586
2.501408502
85.34130322
-26.75428381
-75.29825177
19.42622563
69.82930627
41.50319834
-9.123788592
-63.55782043
10.31142339
48.3104855
34.97859489
-8.58449819
-11.69872364
33.47040798
17.86479365
-129.1660891
47.6728551
-14.45313377
21.66541562
1.840166072
-32.0965836
15.00123783
-78.12001384
-41.15506923
44.69859862
-14.06754299
12.59295535
6.274256139
1.065864203
23.53087875
-42.16459312
-45.27514524
0.01179626057
)


100
(
25.01016375
1864.955216
2394.366203
2126.022195
1656.013313
1432.691061
1398.878477
1337.777214
1154.622845
970.980388
736.9800898
638.0112816
548.0962339
551.8073559
830.2420513
490.7479931
207.9634324
834.0793933
836.697262
119.9455004
377.3558682
908.451143
513.6624622
211.0681932
807.2937686
782.3980057
136.715808
333.4318183
1390.656999
1248.025478
306.5754394
122.690928
828.8568932
699.2311287
39.42446505
30.28237006
1114.943985
1548.950922
674.5356614
-73.66679578
490.9472667
1234.65011
705.4791413
79.15926257
313.3166838
1036.810527
498.7138611
-131.6379099
132.3357037
1308.200594
1422.973461
472.2925539
196.8138631
830.5251209
1069.89248
458.6388152
280.2062753
586.0954057
651.2559115
0.6163583922
-960.5615319
1026.767268
1914.497208
-419.1396776
-1429.063143
1283.156256
2023.269012
-1831.2405
-267.4040814
1421.191442
374.2501032
-1658.187553
1076.418136
1588.186423
-1509.532406
-450.697151
2148.583034
-1029.342472
-606.9936188
1834.483786
-1265.807212
518.2716341
733.6065723
-1194.812856
1448.239054
-416.9927286
-32.09643206
571.3028145
-415.6627308
431.1056926
-116.2467852
149.914661
-106.7194646
57.38275993
-36.71927676
44.80724957
-3.366692775
-24.98625613
178.9775932
-54.03193469
)


100
(
21.4495187
1835.289687
2609.043317
2414.794208
1708.255618
1265.590525
1276.377593
1365.115859
1184.903448
996.4478354
625.7390651
463.2660891
414.452161
167.9346259
726.997299
904.4056571
-40.40515947
258.2685893
1373.712531
741.9304268
-151.1647796
596.240862
1205.726734
456.1780787
168.9437716
875.0729113
816.4151564
-16.91896111
165.8266277
1320.454111
1616.830405
664.1268528
165.1217681
690.5665279
981.2366629
275.4041392
-113.845457
641.0022421
1843.899487
1760.982145
742.519067
372.2541324
1027.476929
1807.856969
1144.83537
601.8380597
613.5038474
1080.847727
919.7333349
389.4750586
249.3701499
1043.511911
2141.380665
1152.423929
-95.71752412
-242.8920453
1737.207013
651.7548965
-548.3490337
-818.7684809
439.4134751
-1573.919597
-89.2974259
1337.11449
-14.13273879
-1907.110066
130.7303157
1800.911568
-1278.495243
-640.2555439
591.9262911
1466.893898
-577.7457265
85.31309517
1530.126228
961.57721
-1899.409543
90.25973726
1532.092184
-446.8923713
942.2881861
-846.2900342
1811.683279
-870.6784126
-56.5334892
866.4957792
-341.4965588
189.7355021
263.5725555
-62.3445665
-46.34821864
-22.09938629
106.965984
-33.94409719
113.4516967
117.041587
239.3930956
434.4520332
-195.586238
-21.87464956
)


100
(
15.58785869
1677.295626
2760.53683
2677.852892
1892.691725
1153.547129
1083.467861
1261.816996
1194.50211
1049.608106
733.49443
423.4945848
520.1646794
177.7511648
239.4245518
1133.375231
807.4757776
-173.9240308
590.8201385
1677.598994
806.3097172
-70.80945648
746.7749809
1575.827534
906.9877722
364.9280955
948.5743219
1336.244403
586.9995421
191.2777145
1084.00635
2185.375863
1821.275982
912.0832399
655.6667255
1110.497432
1175.371716
534.2915634
240.1966513
1159.324886
2517.857717
2621.089265
1228.304841
170.1749525
519.7145135
1868.845893
740.0178383
-994.7380002
-934.2946499
1362.988026
394.0650936
-1194.045879
-1073.849845
1304.15906
439.9691755
-2120.128793
-2386.783743
1254.734224
830.1648355
-1664.044447
-1057.795631
897.7276196
-584.164973
-258.0480642
640.291387
744.4260626
-476.6088535
108.8316606
978.7228084
1508.503273
508.3056645
114.8223115
-16.61675084
409.8195744
1330.027986
927.2966194
-2018.302842
502.5092044
2749.073529
-1691.710994
-145.5328753
1250.583818
-585.9737505
328.3740203
457.6174361
383.0567751
79.38195379
19.41918999
15.07472904
73.01886791
33.55754623
113.4940746
102.2718528
288.6682618
237.5118432
259.55016
-92.94405022
1202.205755
-61.78675716
-5.378316977
)


100
(
9.644274562
1547.836732
2734.621965
2964.143059
2153.787697
1213.166101
885.4843691
1072.332043
1133.749509
1035.926071
885.1737639
539.9829792
524.5902985
547.8330593
127.2581522
491.4867392
1361.574477
864.391023
-60.89302186
662.1599313
1655.721754
986.141945
106.0139267
786.1982007
1933.639048
1711.204526
1050.320371
1256.818678
1826.687055
1479.887743
754.8248485
900.4658143
2129.772353
3052.915244
1985.783051
317.2819751
278.5221107
1558.40949
1016.342834
-647.9608223
-754.059487
759.4518312
1627.486799
-620.341858
-2787.936042
-1353.749676
2180.814443
194.8633535
-2720.470287
-1654.318703
1575.108929
430.4559626
-1759.93855
-989.0172796
1159.040369
-181.6492965
-2689.873689
-940.3725253
1398.906121
1419.137479
7.368194731
354.2596597
1435.35483
1457.035142
515.3897822
-30.13000468
-236.6864424
652.7960972
176.7703467
-153.3799465
-97.56058097
423.3642519
1273.70865
-42.35283222
-2162.373202
210.1826737
2291.079405
-548.2503685
-543.362111
397.0689413
1091.44666
1189.298078
71.8416727
-14.45759291
188.7854186
-384.4116927
272.4146915
158.5820703
329.9515787
-396.5850379
85.97334486
514.2776613
215.6828925
395.2998928
367.4897254
334.1152424
-13.93604234
230.618513
143.8246203
99.83760137
)


100
(
10.4225937
1345.503851
2646.32616
3172.935455
2412.279735
1391.949758
797.9309798
844.8056346
1001.861528
979.8814257
896.5381508
756.9964235
525.4325263
590.0094807
539.5675801
154.3858237
592.2306677
1448.080502
1030.194675
93.06040983
481.7821192
1423.597595
1204.941834
376.2877154
691.9249581
1969.440168
2420.683116
1573.35573
978.1407747
1370.107173
1682.002264
520.0420732
-667.7619852
387.509732
2043.792285
466.2656927
-2404.692449
-2023.938642
1337.190873
951.6182559
-1468.78537
-1735.031518
933.5147071
1360.825739
-2114.086872
-4247.666713
-540.7900809
2852.649332
-222.1356288
-2909.223247
-865.7299099
1549.040744
514.2698948
-850.467701
-131.5097016
1100.934733
916.8018931
1211.624578
902.9832107
813.4990693
1550.397269
1727.835552
305.0599877
-705.7244184
-302.4021334
1025.073894
874.0006159
-110.3487054
6.911494192
486.1326394
1487.090526
683.688882
5.315462521
-248.1372826
1179.5093
-1227.383881
38.94105675
482.6696628
1538.763135
1098.270906
-412.2837337
-783.3694852
1116.079629
128.9660068
292.7756344
156.6388183
-133.0956341
32.25783524
28.29615687
541.0385956
324.6567199
337.6954152
483.424126
493.2250619
564.4547851
552.0405503
366.0995795
150.9972288
263.3556559
351.3309119
)


100
(
13.66532628
1040.171901
2441.741741
3235.41978
2615.36577
1602.114932
876.1136854
689.6237686
834.378317
962.1480745
857.3236864
807.8973011
740.4359172
515.2561099
595.0126963
549.5281142
157.6384747
516.4980066
1351.361774
1148.744014
184.5457761
125.9860412
1047.202983
1400.417902
677.1635347
487.8145675
1446.191668
1464.863028
-175.4767946
-1236.445501
41.49105666
1347.324703
-368.306006
-2037.069499
-233.8151225
1833.213768
-678.5350823
-3827.723372
-1873.627477
1972.810595
902.3575312
-1950.458198
-1509.083
1098.177693
469.156556
-2986.236185
-2781.437196
566.7450752
2578.399678
165.4376904
-401.7070664
1002.089298
2635.475648
2684.085004
1424.933851
362.8860745
-134.0009002
478.5413126
801.0335364
-63.05328829
-828.4368209
-516.63829
728.4030092
2073.186459
881.688398
549.8267068
948.0539597
904.6333101
1831.678373
863.0708432
-375.1096347
-582.7500482
709.6542167
626.030208
290.0524
1087.079934
400.5872828
631.4881621
-451.2128329
-479.5947138
601.3184148
206.0107638
43.66530237
109.1169235
-62.67544947
5.003303259
441.9855036
186.9838786
-119.9143867
151.8474332
463.6085345
336.1129121
395.6584492
412.3162177
437.8361926
147.8008171
1062.575493
265.0906777
227.922123
321.4292805
)


100
(
12.21483324
621.110526
2117.766691
3137.47588
2712.298787
1753.553796
1037.557569
683.5440566
668.8921446
902.7448776
962.7629788
779.3499427
867.1603138
799.588715
472.880033
570.7331928
586.864869
145.3413473
255.6565553
1081.964091
1212.786747
242.0055163
-270.9527679
659.8604891
1559.437044
1114.36465
813.15905
1200.499801
252.1547044
-2151.78891
-2674.550496
223.9384124
1500.018086
-1222.699428
-2731.23418
112.9785713
1559.871368
-1884.326794
-4250.388054
-1059.479303
2226.169688
674.8075482
-1743.626274
-794.5279219
1020.463851
336.0168198
-929.2993934
4.450152106
2190.510203
3446.295371
2889.874531
1360.315403
10.91240708
-424.330422
800.2991703
2203.480123
986.8080802
-374.6905203
-477.1847885
329.305553
1071.43198
232.4913192
260.8770936
813.2306631
881.7025996
1470.293633
1635.135764
-84.07006921
-1468.461291
-30.48805821
1743.406811
1174.161529
1190.313199
744.3898592
488.2195507
965.8573847
-869.1241878
-465.1334259
908.1874084
894.6966013
166.4053077
-55.29466935
-178.7008077
-110.7099668
138.8426387
419.3892457
357.0263825
653.2032753
145.2992046
596.5056604
1082.159782
878.2915642
890.6702215
733.4732914
889.2147166
375.325021
857.7631122
176.4529842
177.1008985
201.043581
)


100
(
8.246076159
186.9698904
1705.575046
2938.052562
2661.783612
1837.868143
1187.529291
794.7462788
609.6711483
740.4581383
1063.762357
954.5628359
797.2949845
1054.690719
856.2554631
365.6999812
521.1609974
760.6487877
135.9837209
-40.38485845
855.4728797
1426.391843
462.3097555
-531.5451346
115.7890975
1227.482701
1436.822706
1393.505205
1074.011329
-1057.311675
-3797.771137
-2892.824592
1071.242933
1431.871728
-1847.095512
-2360.333051
648.9730202
931.8247632
-2423.786259
-2993.435227
187.2529863
2539.931445
1286.076707
136.7480808
778.999574
1977.536473
2204.364675
1431.48297
592.4977528
211.6404982
656.1712273
1708.695728
1685.304787
59.57881827
-1337.263053
-708.168101
891.1595236
2276.379372
1799.557049
1210.957335
1107.012343
533.225628
708.0891845
927.5936372
38.48570767
-644.4237817
39.49435295
1334.072222
1222.515857
545.3983918
1054.190978
498.2023244
1660.410184
676.6789502
-1354.21224
-85.80896602
1500.656924
1219.503815
409.5302157
138.417534
77.56118269
89.16066999
445.4401348
451.4015265
261.2522028
61.72670912
409.5563787
221.5225971
722.646029
579.0838738
276.8267074
500.0472298
612.1287874
940.0007405
892.6377889
232.5991932
440.9169774
307.0964503
35.59317877
-89.66765212
)


100
(
5.305861836
-132.4074271
1264.476799
2668.937391
2487.680436
1820.229263
1273.427366
940.6848511
689.6773901
596.7755152
909.4190661
1186.47338
881.0295942
863.4933266
1222.936469
843.4927051
165.0377656
424.8743955
780.0631515
164.798846
-308.152206
620.20867
1583.738504
783.4143266
-508.0747545
-450.8587404
703.6735913
1728.146636
1960.410368
762.0335034
-2508.28204
-4824.317821
-2280.406281
1671.303163
942.2187466
-2074.343366
-1518.473388
1024.97632
1031.69614
-771.5591853
-358.1659496
2004.610348
3890.978013
3533.393081
1878.795942
314.1062127
-212.18482
551.9878578
1440.643599
831.1195903
-219.2669517
-523.9454807
337.2763415
1464.781191
1574.82165
382.3673654
203.9906234
710.2113305
1211.657255
1982.659107
2034.528166
317.4933798
-1177.56549
-461.2527183
1125.090931
1351.781689
674.2785551
1077.651159
849.2875737
933.6716379
1361.43524
-261.2654277
-744.7728062
671.2584284
1875.753499
1118.944725
404.216356
235.6943167
173.0352116
188.4810952
560.8075557
769.828058
146.3681182
-270.4624918
39.51414964
216.3110786
520.1690648
1452.251738
1088.517292
1080.539805
1144.592931
1082.144807
948.5977315
1159.431389
-99.82445669
439.3756046
-30.46871563
-81.87418872
43.40356264
-779.8392805
)


100
(
5.636566582
-479.630459
803.2605652
2346.810217
2322.587367
1704.606093
1292.774336
1063.075516
832.973459
633.0633688
638.9194628
1027.707565
1109.219225
702.572745
839.9885421
1311.18924
787.9955362
-43.69698596
288.9448423
922.7275321
289.8240606
-534.027206
188.1329338
1330.512574
1063.182132
-247.9449748
-839.9106183
178.8752305
1732.073842
2227.711136
860.687796
-2781.348655
-4181.074757
-951.9447696
2144.576364
1257.959291
-417.0408683
265.1114188
1967.990675
2580.301748
1960.123971
1101.558271
878.2898808
1495.828379
2477.95824
2077.489404
306.9933818
-1145.083187
-707.7491812
840.8843484
1935.323653
1222.063132
406.7084413
326.4167343
868.6291445
1460.244613
2072.435742
1195.632253
-59.56315282
-678.627776
372.7716253
1955.584155
1514.109342
202.733601
774.1619598
1786.369577
1516.00587
1542.323523
-236.9329487
-1777.425476
284.5270366
2389.937843
1305.92613
1124.266252
702.3498656
793.5059496
468.6716369
479.933991
941.890737
1074.367669
276.9781637
-54.93279755
-108.7700808
189.6802412
291.5157065
797.5861067
432.1126973
362.9777164
571.1120598
708.3949835
599.4318219
810.4992363
903.5315343
331.0989418
180.4234881
116.1715397
-734.722917
-376.6883796
-125.6947174
-4.502017884
)


100
(
9.120582432
-838.9027044
338.8824156
1990.542245
2155.10852
1557.343616
1237.313683
1138.890869
972.7539031
782.0746108
615.2735566
654.5073021
983.6095462
914.9303398
428.8569828
704.7711055
1299.981969
727.3330687
-228.6574179
168.4049967
1031.879
477.9548087
-544.3755068
-246.2632819
1022.570251
1463.237818
316.1056369
-832.533347
-306.482365
1442.585874
2686.240022
1163.147273
-1987.281816
-1797.526176
1002.824038
3292.5381
3170.840525
2105.609112
1195.43239
1179.359462
1789.543793
1794.844609
711.9004648
-524.4235239
-480.8565412
964.7383634
2264.159755
1602.424473
83.75387518
-200.855266
668.3612611
1845.791311
2777.623242
2263.884505
879.6810253
-609.7637608
-878.3129595
848.7364534
2207.60645
1032.40549
74.31962497
605.7534459
1807.845587
2639.839897
2203.391328
495.0196853
-1060.624719
219.4291406
2030.53085
-249.8645289
290.8576383
1245.952235
1175.074781
1199.786398
1292.293116
1816.048493
2118.095644
1401.747839
294.8877784
-209.310403
-164.3032876
298.145637
867.8730227
966.0530813
313.7290305
481.8248859
359.7063387
1256.844216
836.0464782
894.797125
1185.521933
1047.30074
1202.833804
990.6153917
1252.15735
1333.166596
532.0962838
-501.7238446
-127.5607922
200.4184964
)


100
(
9.386794633
-1198.767266
-98.3160929
1639.657344
1982.081851
1466.361133
1136.650497
1136.411685
1083.253829
905.3833246
783.2949337
592.0738893
587.9818209
916.5701132
730.5333002
147.7222692
480.0515539
1185.284495
679.9877411
-326.866334
-31.37960764
868.690008
655.7071818
-376.5446241
-544.0649166
688.9031463
1711.875542
1054.73674
-272.9618919
-512.8904066
958.0566925
2518.917561
2169.263939
746.2338678
729.1855523
1926.860273
3083.328874
3414.968333
2259.264738
374.4213922
-542.0845531
246.5544496
1497.474249
1273.451092
-3.127425446
-711.4424043
85.98642386
1597.719278
2765.718443
2774.391283
2112.781275
792.5902856
-24.4734899
652.4217467
2415.38714
1631.14031
-292.6205019
-813.9217976
694.497231
2507.692364
3742.599679
2769.654208
772.8884247
-652.9084473
525.7056987
2641.168471
558.2403656
-376.8984235
744.579975
1699.375859
1628.251569
1091.449859
577.3126622
497.275123
342.6230794
8.355567032
37.55193392
575.6647731
567.5988777
868.2097303
1391.395814
612.5618455
30.57974289
77.25976853
988.2988766
1670.891029
960.2410676
878.8017435
1414.719201
1818.282363
2090.779236
2313.481958
2661.819102
2913.884542
2101.831861
1621.727059
1606.051897
-289.5539271
-118.4202638
136.9832172
)


100
(
6.757302741
-1461.692176
-476.5352702
1307.169839
1800.504832
1430.028226
1067.841904
1064.847167
1123.747598
974.621423
845.8815211
760.2778192
484.7555598
517.758897
895.4133617
625.0239632
-72.50136504
215.6993768
1027.126815
726.776314
-272.1893641
-276.0099108
665.4485708
958.532456
40.65095359
-607.7542327
226.4277163
1522.426125
1777.779348
805.5652435
1.047042372
511.2151795
1820.859835
2609.887204
2228.028095
1275.800873
533.1735109
947.6016997
2081.466232
2211.081593
708.404147
-822.6683002
-603.5937688
846.6801347
1928.512894
1607.134254
892.3594067
696.0415053
1074.138508
1683.171239
2530.879618
2060.399951
95.22061289
-1632.992628
-670.9122298
1705.083323
3232.192306
2210.99083
1879.263723
1644.755717
1174.790322
1951.11104
2319.124493
-19.99052724
-1555.822898
461.3131103
2522.513289
3012.162115
2116.676478
1372.954803
1061.945133
917.5898669
547.9103725
471.0571373
601.1735735
713.6171502
1254.781631
1115.999892
1245.409383
563.4339349
-57.63994428
75.79189838
1043.750602
2332.049474
1054.811054
152.8210866
1317.933963
1901.070877
2250.054284
2046.864466
1881.750081
2883.736232
2505.009149
1028.631453
1880.127391
1741.998194
1393.989686
-580.9767461
-124.8961888
1107.224956
)


100
(
4.93906206
-1611.691085
-780.9432625
1003.037218
1627.357666
1400.577915
1071.377987
994.4432645
1078.00146
1018.88185
801.4433505
721.8849005
611.9879904
325.880622
434.7594469
892.1727903
619.8010106
-178.7974001
-18.6814076
890.8753142
918.4097971
-58.09976457
-410.100257
535.2786367
1322.259362
720.7943517
-165.5087299
33.50664291
1267.853761
2285.607644
2033.926362
947.8053548
109.724445
419.6677723
1516.720567
2186.104509
1372.034257
-140.531035
-480.1592088
833.4895897
2171.52797
1820.481586
489.4657913
-16.92715568
714.8394143
1831.282355
2573.670425
2269.189922
1153.745554
-200.7767203
-357.4568825
1126.328324
2366.845805
923.9884276
-682.5645608
-79.38544729
1820.851479
3360.542419
3784.09588
2143.329842
-468.5286534
-1585.613581
894.619789
3001.983819
1217.54461
1062.366727
1572.245324
1747.175069
1915.952407
1834.863527
2048.292227
2709.380415
3059.558368
2046.132782
1056.59184
406.220715
311.1706016
539.0268766
992.4805169
1340.102509
2153.128379
1322.172837
1378.481619
683.9786837
1230.229608
2634.178605
2141.594138
1885.348492
1788.323869
2342.984034
2501.36553
11797.02994
1943.98629
2675.06939
3027.578993
920.7942376
305.4223694
-555.8353066
-526.3745666
-278.9213253
)


100
(
5.83932818
-1726.66009
-1012.536953
736.4525551
1461.964947
1361.266076
1111.808211
990.3698144
992.298229
1001.153346
834.5562599
561.6882795
495.04285
442.8537457
164.5980109
305.962231
875.6293991
713.974343
-153.7110791
-193.6246798
816.7501287
1253.955681
358.5920322
-350.4608098
342.683258
1385.170047
1450.589903
681.805969
211.5101488
811.9342676
1961.366625
2503.832724
1607.119208
-16.37330747
-758.056451
253.4304505
1855.330081
1996.864486
628.9525849
-441.8517318
179.1174551
1735.483403
2795.700965
2593.047141
1884.026728
1016.48854
491.8189531
902.9839636
2050.902551
1590.699374
-37.37014866
-874.2671958
405.7055287
2061.876139
2728.28007
2123.345364
1497.603234
619.5696471
665.9781706
2092.713155
1536.857471
-803.7222586
-914.1809408
1308.409055
2980.41052
3570.763281
3117.127534
2310.165324
1995.659912
1941.112943
1475.792554
1168.936995
1184.307129
1485.320683
1649.289076
2107.814548
2819.130845
2053.398248
1124.447804
534.6797137
865.9558485
1682.960706
2249.878185
2552.992553
1721.534024
2088.252986
2497.502091
2659.359233
2513.378497
2362.662097
2340.575812
271.098507
5307.180764
3687.021015
1582.44429
-54.61099964
-288.313672
-491.4468793
-460.1758279
-1298.409657
)


100
(
8.551622778
-1811.961232
-1151.269924
498.3416951
1296.89704
1310.929002
1146.204611
1034.26143
951.7958791
898.3492529
877.2785472
640.854733
279.7027602
319.7276785
380.4805276
53.32100434
156.0316664
865.2787828
912.0109482
7.113096452
-283.2385316
769.7448933
1616.482316
1017.329537
174.4697781
393.5049498
1442.673025
2122.378489
1636.508622
648.5160164
202.1087314
893.5277263
1982.377693
1955.021267
397.989645
-1117.110843
-697.8445342
1205.668726
2608.033557
2256.219771
1209.87032
832.9317434
1413.089052
2312.281975
3004.420938
2698.196016
1078.520871
-724.8598678
-551.6743133
1283.179926
2553.999423
1690.722303
887.5484302
1121.089044
1680.514401
1858.366746
2294.016133
1137.824255
-673.1533391
-441.5117842
1479.403935
2463.093669
1255.105061
1221.111085
1279.385054
1419.460615
1626.896353
1501.048066
1563.84778
2072.607527
2738.69214
3103.431509
2342.839991
1910.37251
1714.689303
1412.059585
1016.516849
565.4721672
1468.49715
2734.436168
2603.644756
1487.396937
369.4454716
1663.045191
3196.737364
3498.44006
3061.015609
2972.187519
3176.13937
2955.8887
2520.372757
-8570.737063
3396.725537
2345.499403
-920.0066848
-54.58605601
-773.0077632
-689.5903786
-607.501312
-1607.882883
)


100
(
8.282791678
-1868.580339
-1213.678115
320.1278234
1134.781439
1250.812766
1162.963325
1078.702322
963.6725283
791.9928606
752.2170349
796.790429
449.9615324
64.45416559
286.6825245
457.5621311
46.63407612
52.55460507
884.7859532
1205.342626
328.2835876
-230.7950367
624.5510888
1714.248632
1754.105251
1021.036899
590.3873967
1034.493804
1766.555665
1898.428089
1001.331434
-198.7290234
-184.344154
1214.138101
2271.716996
1366.053625
-347.470713
-750.3796162
675.0623192
2595.852632
3711.587019
3316.066273
2010.990011
503.4999689
125.5415742
1472.884569
3022.799045
2044.315497
30.95312817
-384.2869645
1220.848375
2944.131667
3660.378618
2906.625879
1266.662452
-293.9782042
305.1426585
2166.111792
1482.969366
-106.5431254
178.3968197
1474.401634
2136.171735
2323.513345
2171.753921
1672.16257
1569.570114
1634.135289
1217.457749
915.4487826
979.9520601
1354.112274
1507.683897
1846.509811
2515.681471
3131.597554
1787.586649
629.8608166
448.315376
1160.564329
1665.848945
2351.270987
1945.898035
1869.276587
2238.781967
2590.970757
3135.812124
3188.109834
3542.707
3892.413827
3563.756079
2358.513747
3857.81293
3230.630061
1861.856609
-397.1611036
-740.8671756
-1240.50652
-1092.915052
-1556.125373
)


100
(
6.550562089
-1848.745252
-1230.122629
208.0218578
984.5165521
1172.077538
1159.328672
1105.781081
980.9176876
750.2828264
537.9888854
634.6054867
725.6257631
285.7621238
-68.30897094
342.2502356
647.0549383
168.0532023
15.04913139
877.7979774
1469.39231
856.17385
193.5927416
635.5329563
1776.462555
2412.260968
1884.510031
844.0766558
315.018896
878.0985136
1801.419219
1493.900898
79.48270607
-682.7914599
358.815013
1934.856134
2269.627061
1270.369291
558.7379307
875.4095613
1884.699688
2947.911169
3413.419604
2201.690953
-190.427703
-1497.717128
1.891381259
2479.234784
3419.924648
2475.123683
1961.11126
1893.079496
1873.393621
2535.347156
2919.853815
992.353191
-1154.448199
-72.8748369
2082.978712
3056.63822
2442.387504
1889.694585
1706.839132
1769.055369
1757.556245
1430.772697
1245.10525
1519.347226
1979.677349
2287.790899
2022.198684
1757.201759
1648.764027
1390.040463
1252.583843
1470.654016
1537.313837
1762.606641
2265.758409
1795.321953
1670.586912
1799.113088
2243.336499
3077.299109
2996.003097
2704.902695
3159.681357
3831.177992
4126.90708
4426.080399
5146.520541
4996.064315
5422.695125
3910.923896
1636.819868
-561.0558671
-740.6599925
-1376.574922
-1502.477601
-1391.680619
)


100
(
5.330352511
-1803.071032
-1181.502698
152.6447651
854.7123486
1085.29083
1129.905093
1116.998769
980.638243
745.4971379
454.2389428
299.8343485
524.2400237
661.8159856
171.1557676
-156.2753431
426.5492507
903.253387
406.6627189
98.37241025
720.1867305
1562.812379
1501.460886
888.8494461
716.617918
1364.617266
2147.367715
2118.047857
973.5720507
-294.8732266
-102.8214818
1248.222061
1903.849218
976.4838015
-151.5997961
113.5527302
1493.667414
2627.884486
2770.981945
2153.681634
1135.461062
393.4556682
883.5252406
2235.71515
2340.468731
495.2186727
-999.4696845
-24.70173281
2327.43425
4137.246644
4507.285974
3068.549881
449.6626543
-850.1461933
1105.965294
3409.205492
2288.576603
920.7698266
1367.49881
2426.647664
2859.075039
2954.364047
3131.828325
3386.360324
3360.786308
3209.886284
2582.491516
2087.296706
1965.851077
1955.9413
1922.463687
2008.107126
2330.165045
2619.969142
2660.707984
2248.637045
2159.87285
1889.155689
1252.002597
1164.929918
2985.7171
3624.645502
3704.236887
4007.753129
4242.202939
4734.629498
4614.678834
4748.494794
5137.733736
5151.084649
5624.540496
6095.688046
5652.496106
3977.682216
736.4190711
-1325.360767
-1407.207681
-1225.195644
-1925.417846
-1803.100457
)


100
(
6.797435881
-1767.418768
-1092.215576
133.5351074
753.3384144
1000.153991
1078.766168
1097.377302
983.0549906
728.3501325
474.5683654
232.2836291
119.5873159
447.1726322
665.1047656
149.8261032
-189.8420995
490.7761173
1121.067985
699.586849
160.1687608
620.6838671
1666.16982
2162.270253
1633.907061
780.5828737
614.2362237
1411.835206
2131.892258
1404.95063
-148.3353706
-618.3024865
596.4112065
2019.06295
2138.846799
1356.147772
923.9985689
1237.756301
1903.93528
2548.43236
2518.595251
1275.81354
-351.9679782
-398.3090149
1324.037006
2730.062911
2292.111163
1424.436478
1431.698457
1884.860344
2613.632323
3458.370249
2476.576698
-303.1986047
-1484.76549
922.472796
3504.242141
4337.94242
3854.390207
3177.386611
2762.458024
2583.163422
2418.259719
2351.917554
2394.892875
2751.18102
3255.860858
3834.395429
4424.54514
4150.407892
3867.02034
3493.798202
3131.087831
2504.228865
2346.134002
2739.661455
3473.307179
3758.879781
2316.035744
1194.666707
2112.388288
3299.815121
4174.587432
4059.589906
3955.245248
4759.042262
5473.163688
5767.630781
6331.39446
6595.752396
6905.409979
7578.853485
7158.433178
6197.73021
-201.6544388
-2263.224156
-2211.006334
-1735.048921
-2601.892064
-1492.728554
)


100
(
8.026850137
-1746.505201
-983.7453979
138.9911519
668.6502269
915.4576727
1024.747719
1036.434286
957.5803828
730.5521445
464.7856528
338.8297441
132.0978407
11.07832826
434.1397486
754.8617737
241.7232761
-150.7049187
497.6530989
1278.504708
1170.61981
663.2499685
717.0692361
1499.589571
2181.710359
1885.344828
717.342778
-141.1325688
462.1039734
1739.66637
1875.932416
657.7792101
-310.2021458
323.5006794
1913.443692
3083.199415
3021.533968
2070.587388
784.0193546
280.2981715
1170.992207
2447.205241
2037.886637
476.6094798
-108.4976366
1185.506473
2883.324068
3727.931146
3305.705796
2048.874269
379.1380443
322.3577072
2084.013976
2589.264331
802.1776334
366.6075265
1824.563959
3195.084319
3798.248091
3943.708817
4160.343218
4462.555313
4284.546118
3967.97902
3495.924311
3147.316937
3023.722422
2948.84324
3228.828118
3533.929149
4003.797502
4436.108304
5508.720499
5121.779832
4371.921541
4033.52456
3513.291008
2721.801546
3007.460686
3932.201631
3653.067049
3895.790615
4305.167381
4813.936374
5769.773089
6113.644503
6477.969987
6892.876349
7147.410859
7630.401968
7726.201509
7967.598509
8339.374161
5708.275027
-607.1582605
-2197.38628
-2857.191861
-2464.635328
-2729.231561
-2473.071104
)


100
(
7.028323329
-1727.289416
-911.6326179
193.0401394
609.8310804
824.3262047
969.2833666
963.4902779
864.6344637
712.5816637
455.1860139
320.6951912
341.4185099
113.1062175
-46.2892125
440.6365914
863.3681156
447.5430248
43.04077564
549.7850803
1475.624432
1820.273534
1343.21133
782.3315833
923.7152462
1624.475501
1894.714609
982.087657
-252.1220667
-107.848854
1229.747823
2382.791927
2015.429478
1074.14956
859.7347342
1635.094149
2714.657643
3263.893041
2464.193366
540.9264543
-879.3683851
-154.7146252
1880.219176
3013.868568
2441.902655
1782.902676
1690.190924
1820.426527
2327.179885
3087.519931
2098.425443
17.92658129
-220.3870702
1741.211211
3113.246465
2909.758484
2696.027948
2520.986065
2448.629911
2460.634293
2533.133275
2684.602493
2841.09237
3241.841891
3871.812204
4609.356832
5185.401494
4851.41006
4552.838578
4346.705744
4007.150416
3289.886649
3507.051817
4431.861852
5435.060538
5820.932814
5446.178004
4229.914469
3815.199796
4306.408414
4717.295604
5407.403289
5431.69748
6085.921291
7051.858258
7769.850549
8080.003393
8691.491572
8934.797631
9198.613397
9549.993586
9947.029754
10313.21884
5905.50288
-550.0352761
-2017.725371
-3099.04206
-3009.906692
-3405.910987
-2278.868713
)


100
(
6.295099553
-1697.517838
-859.5056998
264.6329636
588.7686164
736.2991233
898.0472535
911.5264921
739.1709081
600.1368106
458.0261312
257.2354326
272.0606188
391.8383459
137.7020617
-65.10840219
404.0413131
941.1943225
811.6928637
472.2315312
729.5712032
1580.688112
2144.238533
1716.18612
716.5017723
211.1152659
863.0008435
1853.192866
1807.653945
248.5535687
-546.0345308
759.2579074
2465.305463
3310.047908
2846.849297
1830.360537
980.8500263
1075.266332
1988.536307
2366.91602
1061.711426
-640.7720684
-538.9969378
1367.620338
3281.831188
3988.974636
3140.986322
1242.613467
-257.0062048
481.6733563
2555.701951
2762.916273
1342.142352
1019.980929
2088.592912
2920.627325
3304.235486
3369.354746
3323.662521
3165.3086
3094.928799
3025.714339
2822.09676
2745.86987
2793.556606
3044.792944
3559.369662
3966.99157
4512.320154
5162.771085
5722.834213
4929.311986
4256.808698
4470.343194
4951.633684
4374.531144
4225.609632
5368.507651
6557.777682
6079.748581
5998.821841
5978.476427
6531.574155
7730.752826
8005.704458
8230.689642
8608.827712
9113.702808
9453.732215
9833.592429
10158.64386
10505.34857
11118.58022
4885.872939
-1528.156673
-2769.818283
-3443.428227
-3296.023149
-4341.761577