/*--------------------------------*- C++ -*----------------------------------*\
| =========                 |                                                 |
| \\      /  F ield         | OpenFOAM: The Open Source CFD Toolbox           |
|  \\    /   O peration     | Version:  2.3.1                                 |
|   \\  /    A nd           | Web:      www.OpenFOAM.org                      |
|    \\/     M anipulation  |                                                 |
\*---------------------------------------------------------------------------*/
FoamFile
{
    version     2.0;
    format      ascii;
    class       dictionary;
    location    "constant";
    object      la_i8;
}
// * * * * * * * * * * * * * * * * * * * * * * * * * * * * * * * * * * * * * //

la_i8_table
100
(

100
(
271.0850538
-5.912742086
-17.90681754
-189.6012212
244.8297741
2211.058165
-1860.558658
39.84024974
826.7483931
-74.77073625
-269.3298389
-337.8845288
734.9552462
-322.8621008
33.68774965
-113.1322376
330.5965771
-580.6403194
525.0058532
-406.4013868
361.7923003
-285.7721083
176.9906257
6.38332611
-307.9554456
283.6162178
-59.13545386
-197.5890593
140.0911709
53.20832095
13.88050371
120.7274094
-272.3099538
94.29052766
271.6991543
-437.331826
184.1957968
-122.3637495
-584.2230853
945.8759342
-288.1667755
354.6812483
-493.6026478
-366.9448373
550.6363497
493.7943545
-1536.227047
922.1294069
-58.28195755
-411.3077528
407.0106324
-565.2129505
398.8399769
-214.5829163
-168.3494422
719.7501318
-867.3166819
495.5286392
-408.3969357
147.7163736
29.79017963
15.91308297
13.25337326
-6.690625574
42.94799484
38.74422273
-20.85581012
-110.4850816
28.19337948
66.86317392
-33.04075818
-34.80168246
42.08164678
-2.869172498
-18.72850253
-7.835104432
7.785390293
18.59970479
-3.665986659
-19.20501011
15.8152826
8.418333842
-47.49745038
16.91540754
-10.26760648
8.285200207
0.822682515
-17.54690476
1.856894599
-39.79586555
-8.662392621
20.09403984
-7.391575426
1.961363937
3.161070201
-0.007806531282
18.39495731
-20.76993056
-49.84373586
0.006432541342
)


100
(
276.4577887
194.7789252
-266.3316285
-93.0282846
208.9828054
329.2159889
204.0748176
209.8799378
217.6848207
292.4604245
368.2324847
370.5788523
338.3480296
205.371116
32.88072434
159.6439421
205.7956707
-145.7145564
-177.8506179
96.89797783
-44.87667208
-319.7680221
-213.1067515
-84.23065457
-286.1847436
-304.9467612
-150.0620692
-367.8829635
-919.9900031
-882.6281993
-440.5602993
-239.6587559
-418.0088973
-414.6263016
-258.1244854
-429.5649257
-1102.537435
-1339.284727
-822.0822813
-354.3515833
-622.9815668
-1040.293301
-836.8486979
-513.2309368
-545.5187528
-806.0574103
-566.7423791
-300.2002551
-580.3886674
-1388.557551
-1468.864747
-858.9557232
-617.4109618
-937.1919596
-1105.681147
-823.4336781
-662.8970619
-667.716934
-677.5180747
-291.6576291
660.8968565
-937.9257473
-2318.076949
-10.03070347
1428.345131
-1224.585319
-2508.390158
1629.133938
455.2327317
-1574.258044
-724.8427278
1710.640818
-1026.093886
-2186.83005
1560.784589
893.9525083
-3017.544994
1118.72405
1068.820118
-2755.262021
1788.790288
-727.3876331
-1188.258821
1904.228645
-2253.972968
671.6299669
55.34468738
-851.0421279
691.3467359
-642.9920643
183.470206
-187.8731065
177.8248071
-67.42431492
59.87996892
10.08194895
150.64634
88.89188213
13.06048748
87.53496158
)


100
(
288.2549795
-154.6502035
-822.6693649
-678.7686909
-147.7344577
67.86678633
-42.15237082
-226.0677295
-184.7138164
-140.929561
23.25493535
94.4449824
89.33071066
24.42121453
-355.6097565
-430.7770847
-45.8399839
-270.6516209
-829.9340135
-571.6006083
-178.2016533
-529.0550596
-863.0657788
-593.8793957
-425.7168792
-647.2354225
-602.0480626
-324.7925583
-578.3847441
-1247.183833
-1440.294527
-976.4063502
-609.5951904
-680.6513941
-700.8619628
-429.7844614
-430.9301308
-1045.767179
-1801.531317
-1750.610889
-1131.780443
-859.5912986
-1200.1997
-1639.900333
-1369.490653
-1062.47858
-950.3725618
-1064.289889
-971.6196459
-750.0140344
-777.1063151
-1442.038693
-2165.597906
-1366.483916
-333.5213538
-192.3155774
-1475.133138
-807.590443
168.298007
438.5495955
-48.13399105
1382.312586
262.1951368
-1105.839578
-230.2736924
1781.499866
-83.07078582
-1641.813661
1113.220421
555.0300994
-754.5541147
-1676.198978
435.8663514
-456.2371038
-2310.670769
-1227.139252
2981.850899
-290.3039671
-2240.50596
885.3760541
-1643.816922
1300.760072
-2696.314035
1481.025483
-16.72908696
-1209.189479
561.3493025
-271.581461
-297.603011
273.3376428
242.1082872
161.7834525
31.33236443
220.7234253
14.52769462
49.275344
-214.4626619
93.31559612
103.4437972
40.22422165
)


100
(
304.8887518
-375.4559572
-1345.075328
-1178.976746
-611.1568249
-188.111458
-220.2908834
-490.2677928
-528.2853581
-473.2365918
-340.4867096
-176.7472611
-167.5526403
-98.14175135
-343.9731816
-816.6892679
-621.3805363
-218.968927
-664.7676489
-1190.642472
-790.0413268
-401.7769942
-807.4078172
-1232.929888
-993.2585265
-739.1722279
-897.9388883
-959.5730308
-672.1674601
-670.3333305
-1273.51967
-1907.765014
-1785.877441
-1279.804813
-958.8650147
-955.4997001
-889.4147231
-666.1530566
-735.4862425
-1507.454788
-2466.815137
-2467.815008
-1463.85382
-718.5201807
-920.8524676
-1611.021875
-848.3044834
370.780401
411.0628837
-724.4909496
-193.8782774
694.8878924
361.9641953
-905.9570914
-10.25928977
1927.482721
1919.800528
-826.523225
-589.2850408
1180.139785
843.9087873
-392.3636721
528.2854935
135.6647259
-594.7762652
-773.3360493
226.2032799
-557.7196086
-1545.130489
-1719.537951
-762.2879089
-420.1095424
-296.7369921
-260.329567
-1642.523023
-1519.500008
2980.899853
-698.2503041
-3976.863351
2789.092878
106.4762799
-1859.778588
1450.525703
-621.5981955
-631.5888655
-300.0342114
230.0626213
324.4954976
279.3810999
149.5167129
422.5808065
241.7580396
166.2273552
-17.52191051
107.325955
34.31630073
926.4800399
-230.4980805
161.4089017
102.4171003
)


100
(
318.2951947
-460.1164306
-1628.980884
-1746.935663
-1140.098839
-469.1399492
-340.2109813
-570.3886963
-736.1507699
-700.0061804
-619.49399
-449.8342481
-373.2459075
-316.1497267
-263.0664321
-642.2075094
-1054.026217
-754.7635009
-388.4026943
-821.8002511
-1300.536688
-986.7468049
-619.4466981
-986.0877693
-1561.878509
-1523.353462
-1227.965375
-1216.016836
-1332.829524
-1146.697924
-926.9437673
-1217.489699
-2027.500351
-2500.804467
-1847.594886
-797.9436793
-528.9554013
-897.0837875
-621.6374024
103.4305081
-130.2977341
-1078.827381
-1071.760343
581.454524
1890.198355
805.7103137
-1284.861778
-25.64126133
1858.372662
1208.330502
-683.2377783
-146.7168475
1009.852664
530.0061475
-552.5163025
617.7206261
2316.800287
781.2883531
-1275.397148
-1446.276428
-418.7356726
-728.6572871
-1664.346214
-1565.059954
-799.5894528
-269.8132228
115.4265319
-109.9199673
89.46291455
71.37481777
2.864193612
-337.5776123
-1224.297277
203.1194555
3329.855844
-435.5364689
-3131.789986
1464.50644
680.8456948
-619.3680514
-1148.600518
-1424.105269
-59.87853094
219.8400967
259.1871838
795.1634637
45.81417442
497.2395431
10.31811237
1342.033501
222.8923784
-42.7849225
193.9182529
45.75860783
147.3843883
95.15206752
1691.425731
-2.312451415
224.9616822
168.4195221
)


100
(
319.4099215
-552.3148126
-1920.48674
-2273.781993
-1644.953917
-837.45494
-471.110663
-578.4998651
-781.4084032
-824.0130898
-751.5382636
-670.6433897
-549.6907107
-479.4688479
-391.2090314
-380.3586997
-780.4234541
-1171.127302
-912.1858408
-540.0822533
-824.0959045
-1300.183973
-1203.610648
-862.5357829
-1061.280516
-1670.311795
-1853.322857
-1420.462547
-1053.66968
-1108.217497
-1095.164233
-544.8288943
-166.7793323
-824.2607936
-1377.280683
-319.7571207
1266.6991
1127.548286
-427.7190016
-388.5133669
564.4959426
402.7998836
-730.9742177
-365.470986
1920.464033
3011.417479
489.0905389
-1622.594596
253.0257934
1961.869756
694.1792072
-924.5234169
-514.9630257
297.7694283
-97.70474705
-886.4315331
-956.584693
-1521.131809
-1401.786501
-1302.532542
-1658.469043
-1497.934007
-277.323302
608.9766867
361.9712613
-665.0601804
-644.9831391
-10.83287873
-94.00934161
-563.0387544
-1523.856342
-708.9311348
-117.7183567
-123.5034328
-795.0048093
2507.720252
-243.0415352
-585.5303086
-1676.629062
-847.7189404
665.8937647
1062.338149
-606.5438003
206.890323
269.2239104
498.1317583
1114.660982
549.7619945
968.5990475
-233.3777223
148.2082297
337.200403
10.56812757
185.3518059
114.9738295
-321.3321853
838.1655668
653.6831182
168.5926883
215.3217657
)


100
(
315.5725479
-581.5983744
-2136.543472
-2694.732435
-2055.57858
-1223.373753
-656.2164845
-575.737876
-735.9391973
-873.9218262
-822.3779681
-759.5419129
-725.8523045
-600.5722251
-518.2084348
-443.1303301
-439.2363898
-796.9976351
-1189.670679
-1031.11461
-617.8520309
-684.1230454
-1154.388296
-1281.301441
-926.1356596
-810.7506139
-1129.421304
-980.1558564
-124.4969308
380.9104837
-167.5187593
-638.0973944
111.8265457
660.7056331
-224.0692996
-802.1817494
751.7118392
2367.194577
1303.036703
-708.4455625
-451.4670331
681.4686993
450.4548447
-473.040913
376.7824741
2435.040913
2066.070507
-418.0872899
-1870.580898
-495.2960794
-150.5902861
-1308.516003
-2622.943007
-2585.577377
-1564.815179
-616.2054472
-9.582908161
-50.16723508
-51.41710932
417.5176385
792.5607579
412.014791
-667.1431775
-1718.147865
-929.2886008
-872.2368471
-1442.42864
-1381.706125
-1744.386205
-781.7594978
297.8982446
614.0938618
-133.8400754
-236.489393
-365.3783388
-1063.454616
-145.8997435
75.02036221
622.50669
697.6329542
236.5505525
351.5965198
769.1810642
703.5876334
1019.090178
763.4603177
233.3399438
716.7661737
993.2913523
598.832127
222.9366985
78.23006253
329.1631944
253.3650562
296.8462554
1522.442193
313.5390494
299.3927611
868.9266331
203.3470686
)


100
(
323.6821041
-555.6438229
-2263.054556
-2936.672343
-2412.121755
-1542.127392
-904.3687343
-630.5961071
-661.9081239
-845.1396306
-909.0264396
-800.1804651
-817.9722115
-795.6599716
-610.3198007
-531.8068003
-498.7259373
-461.9807614
-685.4524959
-1064.858262
-1012.983775
-521.1508975
-327.3297032
-756.9935508
-1071.114332
-834.8499412
-655.6675765
-655.3043318
17.9670203
1229.740525
1385.996915
35.08263379
-538.3071245
555.7384644
1036.686585
-117.0237308
-326.6967306
1607.379078
2687.712172
880.5815535
-1026.822573
-608.8564995
436.800918
180.9764953
-420.6417617
176.0658369
706.7704752
-382.9152245
-2303.283079
-3275.391455
-2610.327616
-1299.800111
-251.7964489
77.96615564
-649.0624253
-1469.96791
-768.764455
127.2728941
376.6131961
93.94461816
-161.2613478
84.10059893
-373.3076332
-1206.668773
-1381.333726
-1627.270251
-1223.423232
268.3020719
1318.142062
185.873437
-1336.119431
-1173.690473
-1258.200929
-751.3403962
-269.9274634
-392.5741249
990.2630473
839.4589045
-203.7797425
-471.7510988
679.1981282
1098.449687
1296.857246
1052.695752
499.3824574
700.6897678
565.4757233
-127.8887645
493.03503
60.20715836
-553.0495545
222.1533283
-201.4452449
-1.042417845
175.0968959
1931.089894
271.2397947
467.2108512
477.8215866
543.1460096
)


100
(
334.5762973
-456.2732205
-2243.541868
-3080.832619
-2631.307841
-1768.809665
-1145.560035
-761.3439023
-628.9134482
-746.9190962
-953.1074652
-910.3665618
-819.821162
-932.9491755
-847.791005
-571.755449
-522.1750033
-577.9460377
-399.8100305
-444.7676319
-820.5322662
-898.5375527
-356.8680017
65.60500044
-244.9662894
-696.870682
-785.6338482
-734.25297
-360.2221019
913.2416779
2235.626884
1647.596722
-268.3952244
-531.4539879
783.776453
962.6029355
-164.7277966
90.88842307
1815.045457
1884.174356
-127.2076195
-1767.899058
-1455.001844
-756.4097007
-886.457891
-1339.426516
-1297.480685
-909.708873
-624.7058132
-662.6645717
-1009.130447
-1260.576369
-861.3936417
284.4219409
1151.357155
600.9806836
-705.7479873
-1841.539474
-1813.570302
-1555.796839
-1433.642037
-667.3843024
-227.3813098
-190.4247141
163.7406171
296.8774201
-113.7105172
-814.2447726
-664.2091144
-414.2554296
-1069.160293
-714.6684824
-1230.97125
-204.6554208
1285.968983
378.2432993
-977.9082267
-908.3918105
297.8898756
764.6209382
882.1755854
792.5415655
24.85996947
818.434521
1307.615785
1064.018831
292.0980924
207.5436732
251.3158998
301.4580052
867.7415791
-172.7402232
604.6659044
259.2856629
-370.9434675
1768.498167
391.5681252
290.5726406
233.4217906
765.6934948
)


100
(
338.9245402
-326.2378807
-2141.132456
-3145.968142
-2702.034526
-1910.015506
-1312.96416
-942.5361699
-688.5804785
-640.3133191
-853.8583352
-1013.603306
-868.8753914
-857.5664785
-1016.478488
-823.1376471
-439.5405323
-418.6365487
-463.302464
-223.2243882
-116.5031585
-518.7843827
-775.358716
-310.0409175
243.3859003
168.0706315
-349.1961521
-806.7738463
-852.6069851
-53.46282363
1703.33138
2801.865522
1456.243069
-581.0579538
-477.6577784
739.0195938
572.3905741
-399.19218
-244.2791132
502.6624327
-116.4399362
-1856.559723
-3184.211179
-2867.839854
-1608.239164
-409.1208052
157.3803049
1.0652405
-340.2455909
-209.9620189
65.66207469
56.64210443
-343.9505133
-829.3184203
-775.967736
-195.4801495
-347.3583697
-1025.295005
-1571.074607
-1954.315578
-1570.835414
-192.3840997
980.5575019
707.9539844
-255.0139415
-695.3210277
-694.1231449
-1060.598127
-790.637512
-531.3143757
-639.3669098
356.547412
571.3305884
-397.9272359
-1432.355779
-848.7446029
231.1345817
575.2430286
714.5594353
648.4827902
-23.41701729
299.3781565
1286.173275
1424.328344
805.1415195
663.6742098
689.3479478
-559.0096954
-529.1572054
-131.91761
-761.5206203
378.5642193
-470.6722313
-351.1374791
5.286553232
3240.033284
381.4185012
650.2551884
296.2226096
-101.2656218
)


100
(
340.9017969
-169.8824677
-1984.714384
-3116.580191
-2730.140545
-1948.840471
-1398.031645
-1104.08402
-827.1425386
-639.8739288
-674.8485266
-911.8927618
-951.6589838
-753.1539824
-816.6074046
-997.5667514
-702.6338417
-231.1985062
-227.9656496
-357.5082181
-79.15175589
167.3781997
-191.8098879
-597.3106105
-374.0803996
208.5050337
424.1122532
-36.49680707
-716.4652047
-929.5968533
-383.3533143
1467.691829
2193.876246
564.8717301
-1150.152308
-1003.693215
-269.1963791
-494.9037003
-1224.587924
-1508.205593
-1291.048499
-1037.2224
-1146.454948
-1548.634077
-1795.194118
-1267.0598
-88.76240058
839.2748499
688.9503372
-139.3994413
-829.0979117
-839.3881497
-626.9095466
-619.2106627
-969.3796765
-1232.431192
-1265.219138
-701.2656268
-26.82674406
164.9054542
-416.5814749
-1210.413212
-934.4387783
-259.6989724
-819.5029037
-1722.264544
-1334.480623
-790.0062471
571.8179921
1578.436012
28.11156111
-1726.222701
-1408.745752
-1034.339615
-274.564281
-169.6146444
376.1087723
395.3896037
-271.3670809
-207.5755159
976.603562
1331.239283
1224.86559
428.0382745
698.9960554
746.3594395
532.1714517
592.7914444
785.8389095
-42.78541572
703.6857284
-79.17224495
241.6808388
1126.404736
517.3347569
3432.52023
2257.892761
285.2474936
440.1054213
570.873329
)


100
(
341.8228973
2.116384193
-1778.699813
-2983.013924
-2739.974446
-1918.522945
-1419.66314
-1197.98069
-986.4615086
-752.850584
-618.9513869
-682.0721965
-861.900672
-791.4354267
-541.687077
-661.9242267
-876.6760235
-543.0113845
-23.58058966
-66.22677615
-301.2108688
-49.48022372
290.0582515
77.23880718
-449.2791429
-556.3561306
-38.55988385
420.1595507
123.7263669
-739.7616866
-1348.23886
-599.5841898
827.1819025
612.0932914
-908.4333216
-2260.815686
-2317.040114
-1679.962363
-1031.468317
-802.9801457
-860.5722081
-738.7168299
-256.1241866
193.1282479
28.84876876
-694.4653595
-1256.393094
-878.9566969
-140.1664996
-108.5181148
-782.4204219
-1697.197089
-2329.13506
-1869.022515
-785.8499266
305.4907882
575.5212831
-260.0325744
-1031.220992
-727.639449
-432.7799735
-793.2424087
-1698.55739
-2282.781262
-1708.104164
-434.7833052
639.8321929
121.810396
-740.3991018
366.777506
-378.6658379
-1265.727204
-771.5370077
-396.8501643
-309.0181146
-915.0236237
-1580.778192
-1065.369259
661.3320205
1383.817111
1416.754459
813.810164
236.8000477
793.5737084
947.1595959
377.0593695
600.2948038
205.6959007
-281.3597168
195.2707795
-514.4479592
232.6905701
273.9158501
140.7478943
2161.517922
1852.184577
2996.186875
226.6142239
729.9392467
794.8915598
)


100
(
344.971563
183.3470786
-1525.288641
-2812.638441
-2705.604725
-1905.341935
-1395.370206
-1221.751752
-1101.859185
-891.1167463
-713.8496919
-589.0819871
-624.776277
-767.4444358
-600.6056011
-290.276022
-441.6739163
-717.1623771
-420.8716711
99.38678556
68.97505111
-219.794069
-96.76454763
280.5922938
254.3084819
-317.7295782
-742.1902277
-459.4052257
78.13530566
61.30760957
-797.5720129
-1610.406565
-1497.876759
-872.6690879
-925.6595132
-1632.087817
-2272.456074
-2268.968316
-1491.176311
-382.3219319
247.1548278
97.97927556
-297.0298307
-216.1825294
201.2956606
320.7531394
-280.8417975
-1288.013597
-2132.922171
-2341.136199
-2018.328359
-1112.389663
-468.7774204
-659.0683267
-1352.886014
-861.9976817
225.9214495
449.0704783
-668.7981571
-2146.775817
-3157.284551
-2495.910717
-866.9632873
244.5600364
-315.3979967
-1498.703661
-492.21954
-30.06525033
-801.8108321
-1331.903469
-533.9186502
353.6100136
834.3049635
692.6192597
426.8508815
270.2725116
500.338172
321.5519675
829.224197
672.7505778
-88.25789023
880.8025943
1450.91697
1219.703787
85.55955355
9.382771305
399.8811905
-310.7464426
-352.0322707
-170.3469484
84.03440195
-713.271894
-1140.741043
-1197.540843
3634.795344
104.8837939
124.1218746
2667.068053
1495.12365
53.2158728
)


100
(
347.8582302
341.1116574
-1250.772687
-2616.152596
-2613.421554
-1936.748534
-1380.399748
-1207.49612
-1139.616089
-980.279287
-801.8971953
-654.0332639
-498.5717642
-546.9485891
-685.9388627
-453.7317683
-83.61168825
-230.2448116
-581.6711476
-395.6951185
106.8491693
176.5336219
-161.0751988
-241.9627593
111.5428733
280.9909323
-190.8822292
-850.6108872
-1027.531739
-658.6322317
-416.29088
-790.2266379
-1468.293726
-1770.604799
-1505.135274
-1055.796556
-783.5177583
-979.843824
-1322.270999
-1146.810589
-320.748265
446.9611793
415.6196935
-215.1025062
-771.5007628
-835.8511642
-740.4818295
-876.3522962
-1301.477066
-1718.632649
-1890.049623
-1236.709655
106.7812569
1093.543291
452.4861499
-1107.212724
-2201.918494
-1989.219898
-1964.897927
-1892.656359
-1569.40334
-1687.123668
-1432.713023
154.8162028
1012.526175
-531.1884495
-2292.805757
-2883.306539
-1842.036517
-842.7977827
-295.856456
-58.67199248
176.5629005
83.49508113
17.89351321
705.9308515
861.1869405
631.5241243
-94.36531377
277.1004265
1289.479761
1528.260494
759.7608055
-733.7475626
528.3151315
810.0261217
-319.3424929
-269.3346115
564.5844299
-2.829089113
318.005029
-1344.084654
240.7929499
1484.303216
3729.217184
405.0603367
562.6128825
896.8025995
1700.357531
1562.637459
)


100
(
347.3922156
474.4897574
-986.1846608
-2381.551106
-2504.639529
-1966.035296
-1419.686055
-1197.420699
-1132.229923
-1019.182605
-823.1692653
-671.3055843
-518.0619976
-371.2153969
-463.3334966
-636.8737003
-397.330673
25.85626779
-71.21372076
-501.0188636
-483.80014
-0.4630616535
199.3189357
-172.0239543
-491.019136
-278.3605025
-10.91430795
-270.0197566
-1002.315195
-1589.090031
-1509.334002
-995.4972855
-574.432755
-646.5214157
-1024.71106
-1181.736873
-772.3385203
-136.9515988
-29.27332135
-573.004937
-1099.383324
-952.1175548
-432.5153252
-290.1409823
-725.627136
-1356.78063
-1707.384873
-1437.805441
-843.9136856
-302.5080937
-312.8572313
-761.6191108
-910.1029984
-80.5658795
540.3296699
-209.9741509
-1794.050878
-2977.079505
-2901.496181
-1575.409967
142.6503475
762.3281718
-643.688006
-1964.918062
-1308.500822
-1414.424782
-1734.963706
-1585.111181
-1329.969918
-1034.398278
-1231.212247
-2027.725139
-2529.450672
-1395.613405
12.45462877
903.5746034
968.3220818
503.2722369
-86.02552454
284.0086756
286.380469
459.6494532
-74.29381054
548.9110128
418.0271895
-943.0609702
-542.5697899
-151.5569516
-623.3509142
-226.1428842
-617.790202
-6955.361639
842.3520153
1487.68201
4364.406038
1096.819954
1229.885566
1006.486047
526.3920173
1495.435624
)


100
(
349.8332043
592.0501079
-745.5034514
-2122.678497
-2396.261556
-1969.886376
-1501.917908
-1232.135728
-1117.085243
-1026.383864
-861.485174
-628.1033945
-480.8830867
-370.2551082
-248.5158605
-372.4558735
-618.6523178
-438.6726133
29.04855412
22.03273568
-488.2004897
-684.571864
-257.3067835
69.99444779
-244.3891457
-744.4089481
-826.9895278
-580.4856366
-529.1120966
-977.4466812
-1592.48486
-1729.631155
-1117.629689
-186.41123
255.9596702
-149.6399003
-838.2478834
-935.525079
-424.5453565
-48.10781158
-400.9469005
-1216.267935
-1862.104841
-1923.163707
-1648.464214
-1190.344008
-808.7096083
-733.676331
-853.007479
-587.4686707
-76.50189073
83.50372196
-465.7732061
-1136.239315
-1431.707198
-1331.518699
-1292.956338
-1179.086204
-1241.588445
-1276.212202
-488.8798955
677.9301972
343.5699712
-1466.510869
-2779.950406
-2799.192041
-2020.909181
-1214.075428
-1035.164243
-1276.509139
-1341.312885
-1418.247746
-1046.215656
-735.4417093
-335.8176271
-498.1508365
-1093.685044
-554.870456
564.3188476
1068.123426
665.6284044
-220.3522123
-269.604406
-226.0402932
-361.0352205
-668.184882
-609.4842719
-302.8519873
95.26282205
-669.6753407
22.24434612
-360.3545452
-1854.629119
-154.8898951
3894.969373
1867.25638
1440.533913
1682.017046
1178.915553
1043.568047
)


100
(
353.2090664
688.385309
-550.9699036
-1874.396542
-2266.14086
-1954.24354
-1583.066995
-1312.090092
-1131.26343
-1000.337844
-914.2904053
-704.8501334
-408.4648717
-327.522142
-301.9332048
-171.4326546
-291.5640264
-637.5569229
-572.5462739
-73.17674192
36.3951251
-529.1972468
-968.0957269
-717.1060031
-360.8687452
-510.2642415
-1039.781313
-1361.763386
-1141.210857
-736.7615391
-627.7878098
-975.8535439
-1313.882455
-1014.397188
-85.3854104
660.6784513
405.7629253
-602.1670756
-1427.743566
-1487.40872
-1174.263282
-1090.553527
-1440.362446
-1940.847927
-2201.852717
-1896.533765
-957.9172088
49.35037238
185.2089794
-493.8264976
-1159.197922
-1156.656447
-1050.769283
-1171.073132
-1321.925826
-1207.85999
-1085.802722
-606.3747371
-56.62506113
-180.428467
-836.9311509
-1213.423306
-911.0600095
-1056.314072
-935.6207188
-801.9251123
-770.8822806
-657.6628187
-890.2358089
-1593.729713
-2155.179126
-1774.368993
-807.3171833
-489.1588343
-599.879841
-503.0575082
-30.07052039
797.4127235
799.2073496
-70.83756254
-603.1887235
375.8659655
1097.334972
17.37429623
-1270.05344
-39.79816916
197.6715245
-483.0390869
-584.0840791
-236.3915154
-57.86229163
8337.190164
301.0871431
2237.098108
3406.770711
3167.699368
1457.717745
1448.410829
1694.129792
667.6343525
)


100
(
354.938791
762.7441495
-401.6225087
-1660.749726
-2114.384417
-1942.548804
-1643.811815
-1408.124151
-1181.681815
-961.99722
-873.5612132
-841.7556998
-551.5778013
-239.0939297
-288.3802443
-351.1534572
-178.5873501
-256.4223989
-697.3252608
-788.439515
-302.6624382
-72.80948314
-585.9721408
-1216.14444
-1298.509948
-991.3139288
-816.6572247
-1011.083537
-1275.165729
-1185.447839
-696.2171314
-196.9538047
-264.1366272
-805.0232299
-1047.90637
-477.7516403
294.275013
309.3595633
-640.4557511
-1884.730082
-2658.673334
-2515.965573
-1760.040899
-883.5731725
-609.0408385
-1134.692647
-1723.742935
-1302.365382
-417.6614519
-232.9927815
-1055.294898
-2096.832479
-2593.531452
-2204.122503
-1225.885313
-219.5375676
-116.4154116
-722.2875666
-754.4610381
-506.9746196
-703.7122686
-1224.061896
-1322.25705
-906.2473594
-253.2756966
118.478144
-152.6874861
-683.6414894
-768.0861934
-595.2734559
-382.8944546
-354.435265
-222.545757
-482.7127084
-1129.463739
-1121.128442
425.0437167
1510.384789
1464.989058
579.6901298
-38.0709578
226.0404001
472.4213658
-208.7808419
-90.73785028
-285.1189913
-962.9532305
-1033.82004
-1324.360643
-1026.527663
-1170.14877
790.6420624
-56.65438338
1728.231234
4170.350879
4207.676422
2655.56121
1018.548949
1562.041402
2566.784548
)


100
(
354.4861062
803.3316189
-289.1214409
-1484.58019
-1958.175904
-1917.213707
-1688.239826
-1491.604373
-1254.794701
-961.5043866
-742.1872311
-778.4735475
-778.2243785
-421.4826129
-145.2540263
-346.0161354
-506.9929357
-286.4276666
-278.3703572
-761.7271299
-1033.092266
-709.6449379
-432.2951821
-764.1196816
-1444.060989
-1803.166867
-1527.030439
-958.7707533
-607.9518451
-722.6036848
-939.7131181
-709.4103645
-137.2112934
82.08410648
-405.8242353
-1043.580775
-1132.946597
-742.8587917
-610.3770781
-1057.369329
-1837.725964
-2461.619163
-2394.351489
-1437.500739
-50.47844975
591.5960019
-219.3722755
-1624.6176
-2375.042658
-2205.091651
-2019.24054
-1920.037873
-1837.77348
-1969.927516
-1907.782727
-897.8041881
177.4682962
-204.8209225
-1373.392271
-2178.496935
-2024.057139
-1483.970914
-1066.274557
-877.34557
-727.8070546
-533.6452628
-602.7371172
-986.6740191
-1062.6822
-492.567981
87.25844428
66.38998074
-290.9481541
-317.4143474
-158.009967
-88.46031176
414.5120644
836.8305275
605.7500958
712.794542
444.8766864
-34.03533295
-305.0901207
-573.106124
-411.3070739
-1067.340887
-1314.429319
-1377.899091
-802.6317059
-1698.608065
-1456.272225
-1468.074876
-1142.205195
3087.707501
4880.029739
4643.230154
4088.946288
2238.884947
2048.922257
-1015.759373
)


100
(
352.9323883
842.4472301
-225.4709173
-1348.508683
-1825.323149
-1877.256798
-1726.927014
-1557.103991
-1325.8911
-1015.385414
-688.2358467
-544.0347192
-692.3345765
-724.567628
-338.4004129
-107.0032444
-454.5716961
-732.6033779
-488.1086485
-383.6985805
-767.2782526
-1253.188762
-1243.61644
-961.4552888
-933.026291
-1313.96597
-1700.900527
-1570.333542
-865.6232082
-128.5517658
-90.90718224
-604.6379514
-874.5547424
-571.5677402
-230.2207297
-457.8216461
-1132.394109
-1691.741015
-1793.430762
-1562.588589
-1208.11201
-1033.744076
-1266.97393
-1560.212557
-1202.372177
-194.7587637
370.9768864
-420.0390637
-2008.9718
-3285.348276
-3476.692869
-2473.516339
-867.9240598
-77.9806588
-957.5259438
-2187.370475
-1992.954405
-1537.26232
-1801.567693
-2297.788038
-2273.589048
-1882.449663
-1639.442862
-1786.188007
-2173.426035
-2533.013373
-2316.87434
-1754.104281
-1278.1045
-930.898635
-665.8797655
-731.5853061
-1034.851487
-812.8356752
-211.927886
-28.29212929
-344.2111009
66.09241056
792.3335847
1100.601698
-79.77775619
-1326.322551
-1169.564324
-1002.031324
-1620.815502
-2151.911797
-1686.263689
-1800.382824
-1651.311675
-1953.297032
-1317.409909
-2203.803884
-176.2621292
3869.942467
5070.878741
4353.985878
4209.455743
3719.94694
3040.381541
5685.2161
)


100
(
356.0514569
878.434999
-201.9127803
-1252.006617
-1707.919807
-1823.533563
-1750.680072
-1603.210921
-1391.023598
-1081.214903
-759.4372374
-481.4141494
-393.9333053
-634.4308989
-729.8228844
-336.7299043
-123.7452451
-571.198382
-967.0477434
-757.6396161
-500.107124
-827.1936734
-1476.394959
-1762.287759
-1449.300285
-955.9510992
-841.8731308
-1193.733704
-1409.74325
-926.3333881
-87.09733639
186.4800439
-384.9008573
-1141.16071
-1379.935185
-1203.971075
-1098.699612
-1262.283824
-1550.176081
-1748.915848
-1598.356619
-1018.886562
-403.9020541
-436.9538993
-1081.972611
-1554.062702
-1366.069977
-1158.984941
-1474.761818
-2061.40422
-2586.293474
-2597.037343
-1575.761917
-1.137903849
407.217893
-1192.056009
-3043.792837
-3813.548568
-3499.518445
-2805.079291
-2219.566736
-1883.573548
-1777.898267
-1960.734547
-2378.710578
-2859.767024
-2926.020995
-2654.089287
-2550.580693
-2553.536379
-2767.707548
-2681.988733
-2194.874338
-1323.597095
-740.5286326
-763.6901987
-1316.763069
-1083.072074
229.899728
810.656818
-164.958419
-1134.028661
-1239.763791
-1450.901814
-2173.384923
-2235.646766
-2587.840281
-2427.714824
-2789.209948
-2863.646166
-2704.220223
-2876.380685
-1261.435622
3966.386494
4877.722524
3995.999833
3317.298362
3394.463727
3274.025571
437.6182753
)


100
(
358.5980855
920.7378938
-199.1008044
-1196.998854
-1599.746914
-1765.583189
-1759.579109
-1620.859479
-1422.869905
-1140.577543
-836.5773506
-625.4115487
-384.6137906
-306.6664032
-636.9590398
-821.440477
-441.9109428
-215.3773648
-686.9764537
-1227.037152
-1189.294405
-910.7098864
-985.1955627
-1471.389081
-1825.931622
-1546.774039
-788.8592089
-267.1152916
-549.7725432
-1159.129211
-1175.46583
-575.5055891
-135.8055636
-529.578332
-1463.860873
-2210.911099
-2268.609888
-1772.412865
-1049.651144
-687.6886749
-941.338249
-1376.155491
-1268.929506
-788.2836552
-684.5669725
-1296.082327
-2066.046538
-2435.999425
-2242.631736
-1761.721957
-1203.236803
-1196.101407
-1617.891219
-1489.832999
-766.9180644
-977.473609
-2159.568511
-3100.434552
-3303.137575
-3046.906366
-2878.863036
-3017.160871
-3245.597576
-3494.502105
-3446.567747
-3037.593521
-2603.307014
-2344.462623
-2470.340762
-2861.284666
-3393.805968
-3543.363772
-3567.511833
-3093.092288
-2748.868626
-2531.216672
-1942.108239
-1107.51389
-731.5952642
-1150.693483
-1358.024892
-1078.228589
-1387.630766
-2541.016054
-3107.490558
-2954.768328
-3419.129146
-3699.940021
-3676.668388
-3866.120525
-3142.628077
-2683.123882
-1513.331476
5051.041704
4974.574736
4458.591516
2958.614637
2241.453706
2813.38428
5190.614876
)


100
(
356.9067206
959.5388762
-174.0284229
-1191.801746
-1520.320634
-1696.247262
-1752.803049
-1618.361408
-1395.830862
-1152.545499
-865.1865214
-702.4942952
-624.914079
-370.831464
-273.1705571
-676.4019971
-968.0814305
-673.9882619
-449.180991
-867.0279173
-1530.919475
-1747.902336
-1422.640457
-1054.360888
-1114.823135
-1452.512322
-1449.152578
-827.5235828
-129.3206309
-256.6442378
-975.7103398
-1664.960961
-1571.533264
-1189.533142
-1169.309602
-1656.609605
-2250.753084
-2399.543027
-1815.125308
-710.2615123
65.07769004
-231.697931
-1265.341218
-2038.755195
-2079.921216
-1907.191237
-1787.796508
-1720.345039
-1817.135516
-1940.772884
-1554.576541
-860.6210509
-841.4829838
-1634.23874
-2244.552787
-2258.599956
-2191.714185
-1996.968372
-1833.054815
-1825.312633
-2003.292447
-2366.980794
-2830.432024
-3327.633976
-3577.23232
-3494.817587
-3404.287571
-3353.2409
-3589.472797
-3723.489906
-3377.606953
-2665.316018
-2615.42082
-3164.093426
-3968.958439
-4072.700411
-3167.499431
-2252.808868
-2179.706607
-2404.44908
-2280.846606
-2285.338885
-2930.016928
-3951.092251
-4202.57869
-4745.203755
-4894.340112
-5197.070119
-5585.022468
-5260.105829
-4912.493767
-4121.516449
-3188.911957
4961.042477
5476.490938
5159.618215
3456.91126