/*--------------------------------*- C++ -*----------------------------------*\
| =========                 |                                                 |
| \\      /  F ield         | OpenFOAM: The Open Source CFD Toolbox           |
|  \\    /   O peration     | Version:  2.3.1                                 |
|   \\  /    A nd           | Web:      www.OpenFOAM.org                      |
|    \\/     M anipulation  |                                                 |
\*---------------------------------------------------------------------------*/
FoamFile
{
    version     2.0;
    format      ascii;
    class       dictionary;
    location    "constant";
    object      la_i20;
}
// * * * * * * * * * * * * * * * * * * * * * * * * * * * * * * * * * * * * * //

la_i20_table
100
(

100
(
2.821858243
-0.5009155301
-0.548555548
-8.520834275
15.37300529
66.50822377
-46.08532176
-0.2054195728
21.93781429
-2.11093247
-4.296405346
-4.876396981
8.773945643
-2.400554472
0.2421509109
-0.3700702348
0.6352444347
0.3964707179
-1.282823524
1.49337724
-2.57177887
2.528921533
-1.91891257
0.06423178835
4.784814775
-4.96080727
1.07795548
4.227509089
-3.644742111
-1.175748398
-0.7349023966
-3.739904146
9.011080634
-3.253399755
-9.366966989
15.66081465
-7.181049468
6.077007415
24.69697602
-41.90066393
14.01487436
-17.60583557
24.98415855
18.46621754
-29.4739576
-30.66620461
93.95057893
-57.20685374
3.521261316
28.45752919
-29.58840765
42.61523291
-30.94555679
17.93276126
16.15489064
-65.70329361
82.18349244
-48.94714399
43.36110133
-15.04413707
-2.374584036
-1.565433411
-1.244134597
2.514102032
-5.922240079
-6.355573986
2.603078378
16.63802307
-3.859753498
-10.66621577
5.131597535
8.658787269
-0.4290561097
-0.3052117359
-3.078189248
1.85054914
3.001509582
1.459219535
-0.4233220283
0.9843210947
1.57636418
0.8228858087
-3.163124979
2.976254341
-0.3758138677
1.561879392
0.1190048413
-1.412002739
1.16799684
-4.476929035
6.967515888
2.854646853
-0.9870945539
1.001327609
0.5374062926
0.1095401151
1.271939062
2.795799558
3.016231833
-0.002337527822
)


100
(
3.047013959
-64.01857903
-87.55740747
-68.43218693
-42.19571547
-26.97983357
-28.35456044
-22.41056085
-12.36663723
3.455431607
21.05403661
15.24496229
35.69071652
49.30215244
8.759929656
43.17130269
77.42868856
8.892145943
11.77171416
83.69067895
48.82719238
4.789720071
55.09281567
65.80377199
-29.18681043
-15.01516547
82.07863886
96.3084691
25.31636035
42.54727773
105.7962448
67.62165118
-49.75816776
-13.1593853
89.25706729
140.4793605
117.8810129
95.54647367
100.3217183
104.5076007
82.78378093
73.96085688
110.7032208
132.9055212
82.83150016
13.25742548
51.00254521
95.31763088
130.6911374
183.8724537
184.0116455
138.7935288
118.7504799
130.3344961
152.7718906
154.0028815
132.3414958
83.50161985
90.43289421
116.1287507
-114.4334549
98.84893459
490.0657066
48.65005262
-308.1383644
171.7971583
561.2744927
-325.1042335
-109.4219868
292.1699376
189.0891809
-359.2970756
167.3576981
494.0448968
-321.6410451
-229.2681369
681.0837395
-244.5155543
-255.5285962
623.0491454
-398.5926677
150.4460934
265.6642636
-407.7514281
481.3479759
-137.7304026
-14.69219942
189.9884464
-142.7079878
144.4950166
-36.89100033
49.98633904
-33.55560551
20.85124205
-11.03808677
14.41368095
-3.262579515
-0.7721572201
-0.7074343357
3.752018325
)


100
(
3.590684538
-72.82460309
-114.3195254
-98.03207742
-53.46432216
-28.70949288
-30.91859824
-34.88326632
-23.38235581
-12.34372207
28.76705781
13.10042435
13.23967519
81.68603536
24.93307269
-7.570898565
100.2313621
73.14025035
-40.15289232
30.7108875
112.5821525
34.29760273
-5.301737546
83.26858028
81.5176272
-23.99498308
-18.32374913
89.47407199
120.6457388
58.59770828
55.65327719
126.9277424
115.3467945
14.03556952
-38.90915838
44.77621531
128.7014457
143.3410617
121.3320066
124.9516931
142.5387993
139.6720972
121.705542
121.8431206
167.8667035
185.2977285
150.5282352
86.54549587
82.88371137
122.0173785
162.9695611
224.7884709
286.8992652
198.5119191
116.9737461
67.70269894
167.6361709
113.9648004
47.84588357
7.314071264
18.16928067
-184.0816321
-78.81375669
127.1260228
123.9594618
-286.2652477
-11.21068271
281.4018646
-180.0894057
-63.89350233
113.6398635
317.9766006
-78.89994877
81.28782804
446.5543518
284.6325088
-601.9190764
61.56394537
447.9923977
-181.3187343
356.9815213
-304.9164062
572.3243375
-302.3321463
4.404099523
257.2926697
-102.8058165
68.69934822
81.50524497
-14.89062509
-11.04337216
2.372438956
39.57855146
-10.53081577
37.98041797
39.95315216
73.99720867
25.39102692
9.588851903
4.655111039
)


100
(
4.46045099
-76.34618527
-140.2299832
-122.8206165
-72.34826463
-32.81259817
-27.47815201
-36.27960143
-28.45877304
-28.46910693
10.2305496
20.47262297
-32.76310744
36.50662672
75.23517767
-26.38648694
-1.090549789
112.7331751
44.28604921
-61.12942804
31.69514654
115.7463155
39.2132922
-21.42679001
63.09603599
103.098874
11.34444445
-52.33387478
42.15209144
128.5078588
102.2047309
55.59912248
109.9056169
164.4829172
125.5996583
23.4773525
-5.580705555
75.07358012
158.6216693
190.1929334
213.3275787
217.4583103
206.9165711
197.1267762
158.1007245
113.5039183
118.8180389
108.2577744
47.60546189
-55.55472221
-18.67015644
59.97987627
133.7756989
70.20932745
-41.56578363
-151.1850451
-162.661804
77.48580533
63.54330451
-70.83916789
-57.14519099
31.26997545
-67.25565706
10.54045056
59.88463085
138.0746675
-13.07466723
130.5583506
291.8459559
281.2574064
135.6028722
98.28213772
85.56499988
-17.27050934
330.4395678
371.5030727
-692.3941385
143.7285866
834.2828698
-587.7382177
-2.869270177
394.3130733
-264.7946473
148.9288775
158.1783941
91.76218987
25.96442839
-5.160577215
31.50968262
39.39116048
9.519491505
36.49968344
29.48980362
91.30115906
76.76042637
88.22629462
-2.013269245
116.7633487
32.88608494
17.24755446
)


100
(
5.27120486
-74.86441816
-149.7583541
-149.5922614
-94.60960414
-43.36321799
-23.3673873
-29.36275397
-25.82405858
-29.03685075
-17.44833373
22.7897327
-17.94856603
-43.20328772
52.37313652
55.17459343
-43.84621848
2.996052263
117.2353715
61.92745376
-26.1869866
51.24564958
145.4445986
88.10323334
-0.5455236546
49.9266108
117.4073344
63.13302173
-29.58579543
8.985314437
118.3456881
175.4020077
150.7875398
113.6306635
166.4547294
217.7231688
110.1867702
-84.93810418
-31.86023146
132.1858236
231.7108437
185.3640852
-6.74328507
1.00080908
53.14275649
29.82152303
-25.51145187
2.95674608
32.2940103
-14.99710667
-90.97008351
-10.06087007
113.3446256
92.31822198
-5.992314691
-114.8893543
-186.9019755
-14.8038303
158.7431797
202.6218049
121.1225352
160.4250676
274.997166
223.7411697
146.761584
84.11385049
-11.69101206
-21.33698979
-19.4806638
16.35596282
32.09120146
79.24795008
282.2028385
48.46448687
-730.4449018
118.8169427
675.2898737
-310.5924049
-104.1621555
168.9448021
239.9424825
324.8806469
68.07918428
0.6462331427
12.66949761
-56.28303421
92.70202572
44.6943752
118.5322615
-153.9319238
31.19425816
134.083151
54.02041487
104.6530394
100.2848875
97.18523991
-15.6351973
114.0895427
50.83652757
35.42716403
)


100
(
5.243222978
-71.53900363
-157.6021871
-171.1605152
-113.9539455
-57.96886466
-26.16326059
-19.72083158
-18.85799663
-18.79074918
-20.98411866
2.037986484
23.75304852
-24.05048317
-25.57503842
72.67502205
68.8636164
-20.73872044
26.56264432
149.4029747
138.6961692
70.54512771
112.2609439
203.3782266
179.7620479
72.45578473
48.17999713
132.1286958
146.2144627
45.69772685
-33.14762128
80.14183799
231.7543291
177.8699423
-31.19310761
32.47476911
198.1258089
105.2203889
-179.5184477
-79.16095505
208.2734045
327.258
57.57670527
-130.0374838
-40.39407367
45.12465655
-0.6502993656
-47.1566143
7.542868549
44.39110706
6.831357832
-7.515245552
95.16861529
144.3699738
103.7480835
71.07866231
109.8418616
298.5789076
267.2393837
205.5605087
190.7634722
150.0949466
29.90234628
-63.62308008
-46.08897326
55.22443141
66.6312386
28.99998527
85.14860829
155.9806646
320.0534036
168.7483119
75.38740291
60.75173815
221.0317267
-536.5341521
149.8039017
184.8057317
411.2974904
195.6403298
-44.88901235
-132.1962497
153.073475
92.0027633
101.6472864
-1.250881853
-34.47719952
42.37785577
-76.43343036
147.2451427
89.62015495
13.71698753
92.93401426
67.37562781
79.95576235
150.2323802
-28.59857228
15.88553607
94.67337833
45.89142515
)


100
(
4.861719232
-63.55180682
-159.4010541
-183.0102594
-128.2058718
-70.25625248
-35.93368025
-17.11859727
-10.86241801
-14.96999361
-7.809527691
-2.37609363
21.82332445
43.05681364
-1.047133891
8.774793598
114.4745629
126.9984563
52.33955938
82.34383839
204.2607926
240.9838378
173.5570033
133.9164693
178.7841687
160.6797215
25.76487446
0.4938947964
142.6020747
211.9508187
42.29803034
-109.8027821
93.51970075
317.7207579
152.3754953
-137.993347
1.361176529
216.1304475
48.07110863
-218.2947331
-28.83269487
307.1131208
271.1076968
-49.91431253
-152.5479903
-21.55882762
46.23844737
38.34929884
61.98157217
129.6344592
188.110001
249.5038675
313.7750759
268.8922153
196.1684412
126.7548651
38.0765208
-64.24273176
-111.0272999
-71.39109643
-44.23963851
-4.080573318
68.74342613
167.5390016
119.0631778
214.9400757
379.0502829
309.0376344
232.8442212
119.7303755
6.673610954
-48.83882376
13.16853584
34.17832034
125.2314254
339.4985633
121.8402586
34.56932185
-36.04244407
-47.10736123
15.50091543
105.1173533
28.39039674
-39.83966705
-54.77893301
32.41969854
58.97680098
-0.3816966265
-84.37459718
-42.05878064
21.42269981
32.25991498
-9.467162235
-26.50917776
-58.64508018
-204.1305301
-41.3682511
10.27108833
-62.24739464
70.04988571
)


100
(
5.258719752
-50.39362533
-154.5071866
-184.9447043
-135.8114184
-75.37005358
-44.70297522
-24.90975204
-4.472517303
-10.06380942
-7.88703393
14.69615315
17.18680039
50.74527615
85.47607406
46.52459314
59.82922433
172.3547769
208.6836644
126.6849124
92.27714917
180.4228942
235.7516854
128.4670733
-16.9743475
-10.81016367
-11.63709171
-79.81682661
-4.436996357
221.1242337
258.8017114
-55.27524465
-160.8552802
181.9086489
388.5044156
56.37969974
-194.7158592
37.64182832
227.6231425
10.45924426
-170.2280935
86.29073487
341.4736538
184.8278961
-54.86214521
-83.46098765
64.72723654
207.7286862
301.1697171
302.3199042
204.8183287
131.3839838
95.19109434
52.34783969
10.90300118
0.4674790498
19.23269547
33.88061484
8.897154157
-44.68418513
-93.21240055
4.523390719
191.5646074
377.6463846
321.5554476
232.1143068
96.90593814
-13.69637068
-105.7711912
-3.963407928
131.1422163
165.0366647
309.6795501
250.7007293
88.63639586
40.14834142
-83.34904852
-53.8053657
61.03418768
203.8172136
4.656500422
-109.6166928
-132.6810453
-41.14378739
17.34322924
-64.81985466
-81.28773435
5.69269843
-29.65436423
-33.61277713
-39.17700877
-76.99872238
-112.8494417
-138.9529538
-155.847535
-334.1879141
-132.4819476
-75.3982089
-19.42938653
-19.90943377
)


100
(
5.964529174
-34.42816606
-141.6740211
-181.48709
-135.367642
-77.64782226
-46.71632574
-33.28200405
-7.745077981
4.064820871
-9.833579649
17.21404634
45.67186167
41.09823974
93.33135942
144.5362102
98.76024512
78.18824925
181.1998051
222.2797613
96.03143919
-33.64043615
38.04384418
152.2076181
77.80219442
-87.46613674
-145.9019294
-151.2420605
-128.1354848
71.94651491
342.6530778
250.9087372
-148.0119539
-130.2118417
275.5842265
330.4584492
-48.9956592
-175.0901915
90.42583673
190.1431153
34.8365588
-2.833489481
216.3125146
279.6491548
185.9074307
68.10666299
-5.460586926
37.45541491
108.3062395
166.8019694
149.5753677
-6.654064838
-94.42094395
-67.07458003
-30.89910479
5.106693996
45.30122119
108.5261995
200.3640639
314.7983856
404.0817812
232.7995231
12.18517827
-48.96594235
1.959340151
68.1360262
48.34863296
22.61691687
15.37427006
127.729565
309.9717166
205.4091928
95.40647503
-9.27462683
-75.01444155
-5.249884023
99.49641547
185.7553348
3.229486633
-100.83212
-123.1409267
-67.13588409
40.46964313
-119.5100351
-177.0027483
-169.2657916
-78.75271619
-101.5068424
-149.5863235
-166.585181
-199.3825807
-238.6319122
-242.7040906
-298.0252728
-305.7442416
-444.9158773
-302.6891836
-145.5798216
-60.03876888
-93.18324343
)


100
(
6.371581256
-20.17695285
-124.8802822
-173.359455
-128.274319
-76.77520542
-44.65891222
-34.44552217
-16.27337708
15.70011655
12.77971249
10.43790247
65.10013918
80.9472569
60.54110499
119.8581192
175.9104758
93.70888174
11.78328796
89.78703922
160.6183934
26.38912534
-154.6991455
-88.29457242
83.73637492
93.69694963
-71.01019133
-222.9006285
-249.7169198
-124.6693904
201.1841926
436.0035684
178.4997823
-181.0217912
-16.0765033
349.2396817
249.9603647
-67.16899914
-100.756619
114.0116033
217.5267602
196.325074
180.5512446
142.4027841
108.7900335
94.36318003
31.63171097
-105.4157401
-203.9579616
-103.7585332
58.76699916
129.912663
46.71928282
-44.7070027
-52.01167486
54.1702991
208.6062221
354.9775727
338.0403946
218.4082952
74.15807945
28.16934666
-7.184422123
-59.11910434
-104.7266803
-29.06902977
131.2778568
241.1500096
201.6305246
45.48382902
-33.34031015
-1.616547923
27.35148734
11.50373936
56.45487847
106.5710076
-43.67238322
-125.1699988
-148.6516645
-124.7312388
-54.38337966
-163.3656149
-268.3691572
-279.7341685
-227.7691342
-174.1698625
-243.5636874
-307.2806956
-296.8954288
-356.5147107
-404.603321
-404.9741686
-487.2596593
-558.8620515
-461.6894086
-862.2009302
-449.494043
-372.5522317
-265.9480901
-27.26509678
)


100
(
6.444783387
-3.474260803
-105.3049262
-160.3305586
-123.5452035
-72.56295756
-43.7537379
-30.66490625
-18.53290873
11.82365265
45.81587715
37.44571675
54.77083776
113.768308
95.29736987
28.91780418
81.77404846
141.1116537
30.39248105
-105.5913518
-21.36587649
114.9493245
22.50048621
-164.6718153
-153.325358
33.69101704
125.1418263
-29.72375496
-250.642461
-294.4382642
-67.16356686
318.2814845
436.687532
116.9010922
-117.5917907
75.2820812
269.7160924
176.4286449
9.46167472
-10.14576597
82.64780566
162.3199068
191.6694443
125.9443616
-43.68716601
-98.28998438
-21.63486328
45.47901986
-8.423846256
-128.6607721
-173.4049939
16.00339645
174.0827288
231.1719762
272.7479978
217.7549203
35.93595049
24.40296779
84.01253519
139.9752321
54.30669311
-55.40043287
-42.31781575
46.49034689
153.2853297
273.5539463
157.4741489
-33.90669098
-27.26096054
-1.271661324
-39.79209104
-31.91550289
99.31816494
82.49559166
-43.17190637
-96.48065486
-170.371781
-198.289943
-176.9808114
-224.2693657
-276.0344538
-268.7874658
-289.0957883
-317.1407278
-336.3344507
-496.0275219
-430.8181302
-458.7855213
-513.7702795
-559.495835
-572.3985741
-645.1233179
-681.8251362
-655.648303
-882.7680456
-1166.786687
-821.3560447
-465.6827149
-317.1808016
-293.8340262
)


100
(
6.221319459
14.64789133
-83.2934646
-143.2325651
-118.1470927
-67.24783935
-41.94833097
-29.30858908
-12.13368792
5.901273854
45.30780866
78.89794966
65.35145303
76.24143957
121.7997369
59.95886793
-46.03618583
8.194896439
92.05810868
-20.90274642
-182.2349027
-94.1200209
82.42329147
53.64746484
-140.1097156
-210.1304109
-35.58532313
127.6304638
44.71763281
-174.3458788
-280.6424636
-75.63519662
301.928245
322.2639244
99.70257065
-24.36102955
60.53706624
143.1035226
139.1000185
38.88260719
-114.5463592
-161.7899764
-49.67252431
107.1165828
130.9843615
-13.91830748
-143.8677825
-89.54633031
54.57292577
140.6058502
163.9422864
203.0549554
236.2696945
173.7639261
138.3555141
150.0253701
102.5405528
-78.99001642
-184.2556106
-26.18697855
109.257791
109.2645407
134.7323428
148.5078414
42.15489468
67.8150275
131.0212155
-42.53677042
-229.8616806
-64.77647719
49.26016105
72.31068123
-40.73021024
-141.2101313
-214.7068393
-235.7897085
-192.292714
-182.3492026
-261.8354577
-264.0492378
-328.2375872
-415.3922551
-411.7497442
-523.790327
-427.9912022
-540.5464302
-453.818365
-635.3959386
-655.6781933
-745.8443456
-905.1297732
-879.6172642
-896.0195917
-978.2182622
-1304.620197
-1111.339757
-1046.276104
-755.2744597
-502.3902147
-282.5048278
)


100
(
6.347637936
33.91640189
-59.60784454
-126.977679
-111.1178203
-65.37883314
-37.63011928
-28.64032901
-8.123376823
12.61527027
24.43805095
66.58849451
92.22202563
48.177452
44.98008367
88.35274126
16.20055362
-99.06164985
-42.78884869
66.87807992
-21.90516468
-177.2241383
-131.7809207
47.06978214
82.25881894
-97.58537467
-227.2434359
-101.7631809
95.70842284
135.6555998
-2.648768588
-117.5487041
-4.804281598
197.5396879
241.958507
149.8696024
21.58951864
-93.76069652
-61.99337321
61.49826932
96.15366004
-58.72892548
-247.1283195
-202.6352079
-0.4103621081
133.2305482
105.9498262
47.14088221
60.72523081
178.1721209
289.0600212
293.6551985
246.1682324
90.30432799
-136.4100021
-106.0247336
28.79783921
73.78650984
14.7181572
-8.886022313
30.7189167
89.25668504
110.3233467
150.5387123
-1.685028291
-197.3397956
-19.08212153
55.09590438
-24.63914338
-100.4482186
-280.9308236
-392.3378071
-381.9557461
-332.9201
-283.4423401
-254.4631795
-242.5214834
-194.5087213
-377.3274289
-537.2120118
-644.3513245
-575.493268
-436.8587312
-474.4114018
-737.5189893
-770.8031368
-625.1172125
-713.9261318
-804.1726271
-866.9631032
-946.1540468
-1131.611749
-1390.376548
-1509.389381
-1642.619647
-1203.194064
-645.3609504
-1244.814118
-770.6440239
-960.6443441
)


100
(
6.686706801
49.40292076
-37.51204682
-109.7574839
-102.1095502
-66.44373267
-35.247528
-23.9349456
-8.266453231
22.13965179
26.25260523
20.16817453
63.29576246
64.55427387
-8.402045232
-9.136704148
58.00967689
4.316224656
-114.4374617
-73.29950704
49.07179532
9.577530972
-149.5268145
-175.8324817
-10.47166672
98.50977343
-7.825372466
-141.1147121
-103.1627835
78.19369972
221.2899873
207.4705445
102.9949965
13.67009798
17.58940121
89.77222904
162.1918216
92.87460163
-110.0990313
-195.209
-52.89759237
108.6187596
60.87840381
-112.6261294
-193.1053219
-54.82514291
129.1226015
248.757017
300.4135666
228.7263583
29.74846177
-68.71781934
18.69301761
136.1709729
52.97997576
-115.7491846
-184.6961972
-25.47747146
77.50723887
148.4153939
156.5976936
-7.670801906
-161.7232985
-12.90215365
106.4797128
-40.39920067
-138.7632988
-127.3142511
-180.8985673
-216.287556
-224.642978
-243.3756231
-310.1896519
-363.7087878
-399.9332844
-506.2545446
-699.8454348
-610.4120796
-500.956236
-623.0017389
-485.1491693
-501.9644565
-791.3783247
-1062.780836
-768.8379647
-485.4454769
-903.5536391
-972.2826093
-947.7298772
-1031.186358
-1089.001404
-1204.034746
-1252.780575
-1380.424249
-1903.06045
-1540.566659
-1229.85169
-1031.807522
-1036.622752
-292.5521671
)


100
(
6.817356213
60.54485815
-18.2988709
-92.46433108
-93.64283145
-66.56469285
-38.16503267
-19.22052286
-6.630411931
18.94944382
42.32336854
19.05712642
2.654632122
40.8974952
26.69557671
-60.09676217
-52.77420201
42.43574715
13.51144327
-112.6828482
-106.9575271
23.9795029
39.40312668
-119.211529
-207.1136851
-70.29993872
93.45645973
108.0055532
21.8454341
-7.747783503
85.03763952
223.6317616
290.3050554
202.1354862
-0.9402425515
-155.9962473
-84.3222289
111.2965504
161.3764777
-26.96934586
-210.4028759
-147.9108122
49.02903134
149.5696379
122.9905839
83.73985665
53.17529323
18.60954905
74.10307394
219.3693807
237.6788756
-31.0095571
-296.9165999
-184.0147756
8.338168296
32.74028723
-16.04691466
-54.36386491
-167.9871936
-116.1718794
104.2618803
215.7454285
-75.86426278
-287.890063
-96.13090804
-87.33825842
-153.5678783
-175.0954169
-207.2832756
-314.0560369
-405.6210306
-464.6970028
-474.5175975
-480.0773947
-472.6358158
-431.4159163
-499.2889875
-638.5067642
-675.4067856
-668.829785
-932.774195
-818.2595163
-1040.776616
-680.7367249
-812.4865203
-1258.378161
-1304.248833
-1367.164449
-1468.644627
-1396.996736
-1457.54263
-355.1017988
-1567.149624
-1848.933605
-2149.544972
-1637.732346
-1679.418207
-1331.705601
-1036.760308
-1018.271025
)


100
(
6.885980354
70.35208227
-2.450566822
-76.12687412
-86.06612004
-64.78473111
-42.88227414
-21.68333068
-1.84602862
11.48093423
30.96112693
40.59156467
2.638612525
-21.09778174
24.80931793
12.85705954
-84.41079388
-83.02242281
30.11189944
29.24992478
-109.0271605
-150.296827
-14.17301049
67.87408818
-38.32664419
-136.5900208
-69.35853361
97.86387146
216.7287272
203.0051286
99.07603522
-6.185056741
25.66909565
148.8769649
190.2694655
21.07501703
-211.9134437
-218.3441371
-4.00722356
158.7036559
87.81644234
-65.03413257
-101.0839532
15.19482678
143.2562418
226.8278954
235.4851038
81.31906477
-218.4852314
-202.9268124
54.65578071
198.1925922
-9.804666697
-259.9089215
-338.9437186
-214.3460769
-75.38715265
132.583815
173.5283571
-195.6611946
-266.0511458
3.849023581
33.28962006
-164.3897281
-301.8301187
-417.2868208
-503.4919973
-483.3911041
-414.1562458
-349.5277454
-381.070019
-431.6421738
-383.204919
-345.1272208
-557.1532984
-783.5012137
-983.4647355
-935.1718389
-782.755067
-586.509793
-832.6263473
-1167.82523
-1052.317874
-1087.454009
-977.807149
-1279.751883
-1307.444686
-1362.309793
-1508.912994
-1791.71827
-2023.503739
-45.35989614
-2218.202206
-2417.891972
-2376.334215
-1822.440279
-1710.625904
-1724.160438
-1413.766245
-1447.517567
)


100
(
6.857833283
78.78912321
8.783608816
-62.53679225
-78.48647555
-62.72973817
-45.08878222
-28.76837305
-5.128761244
12.04699144
5.833457202
16.15189283
30.23823931
-20.0903037
-44.91954614
22.8517341
22.12167055
-92.11569843
-111.9172656
11.50854222
45.10641474
-96.06306764
-176.4810549
-52.73776508
81.34733018
73.76642228
-9.523971112
-31.45079742
60.43039636
190.3835568
251.2687918
145.8933885
-73.84409271
-167.1780406
-22.4215153
158.3033904
99.80018073
-131.6125477
-254.59356
-120.9781891
76.58962558
160.5794882
140.9188991
83.09606452
-33.0388438
-81.30259291
39.93895167
210.0432231
110.5924715
-207.4218292
-372.1794938
-172.1224089
-33.58214126
-89.81618031
-163.9590163
-195.8179621
-331.7138865
-147.6485801
203.564723
144.3100482
-265.6042398
-483.3175209
-321.7913258
-334.0493973
-345.9736717
-310.6626131
-312.2889374
-408.2469761
-515.3704444
-585.5174051
-643.4460262
-788.8168657
-753.4445013
-654.3717482
-635.3947331
-838.0154861
-845.2378945
-612.7293187
-937.6501693
-1329.992931
-1389.11139
-1143.185609
-673.8907375
-1116.093212
-1527.656614
-1410.574683
-1425.728133
-1521.313033
-1582.958843
-1713.585259
-1943.772497
-2715.828079
-2119.707694
-2594.534342
-2472.0711
-2309.463489
-1978.849709
-1834.008928
-1706.40563
-977.6335659
)


100
(
6.974892316
85.93800902
15.98856479
-52.32721987
-71.47849116
-61.93018268
-46.15361937
-32.67683507
-16.21371441
8.997720179
5.118535357
-28.23236475
-2.528595066
21.09513428
-43.47336424
-68.03567035
21.14202997
32.94984963
-97.2151744
-146.5416527
-16.78580317
63.49446043
-36.45324271
-121.2855299
-50.60124179
96.67739338
183.6218544
144.57259
34.21491791
-48.58263479
21.12080036
181.6293173
183.2145249
-58.79565167
-275.0485386
-177.370177
64.0890957
143.817435
15.88743409
-118.7640174
-134.8788598
-41.66277059
72.96734927
198.0143722
196.939295
-40.89607259
-303.899133
-182.1558078
78.68431286
89.04271711
-155.6047793
-340.7964694
-378.2534313
-288.6816298
-94.86097813
106.4951971
-56.85464162
-411.4955628
-242.5896042
62.00407909
-111.9112881
-403.5856604
-503.9033875
-622.1619947
-769.9639334
-727.0877095
-622.3548637
-550.5329141
-595.4511508
-629.0389977
-523.4865938
-439.7856385
-621.2828758
-887.8626771
-1103.088117
-1242.410198
-1091.222843
-871.1320953
-973.8421102
-1371.985398
-1082.342801
-1299.673871
-1388.927831
-1592.800527
-1677.844058
-1777.503501
-1956.079303
-2143.806763
-2248.741453
-2214.659925
-2470.787239
-2581.947037
-2685.982121
-2958.964427
-2951.138995
-2639.707496
-2332.057004
-2125.294353
-1872.660553
-1861.363264
)


100
(
7.092112764
89.09689179
20.26177247
-45.22096319
-65.46110889
-61.02401605
-48.53506298
-34.11256304
-22.06245206
-6.159346023
13.93196709
-18.70401035
-56.4013691
-7.985406551
22.09535605
-59.08584149
-92.82097944
8.635589685
39.43968179
-93.15003414
-164.2553722
-47.13989339
70.21540591
49.82845641
-26.86604722
-36.21815926
53.98618175
167.7655175
197.6578424
53.71263757
-169.7203124
-159.9015676
70.97381203
211.8751741
40.67522082
-214.6494377
-249.3116979
-66.89310214
85.82670441
121.5739631
88.05186269
-10.30973504
-173.1015626
-143.2768488
97.41493321
248.4691165
31.09155046
-284.6823214
-353.1082277
-185.410984
-153.2862131
-175.7902526
-153.6029066
-245.054934
-329.0627926
-53.71509441
234.7339877
-37.95463534
-416.9851006
-550.0972013
-513.4664791
-499.9364027
-457.2751049
-407.315813
-423.6526937
-528.5896707
-654.2325337
-731.543104
-761.7540626
-952.3660193
-984.7981564
-860.4135388
-808.2072133
-1028.31521
-1018.743465
-788.2474802
-916.4649296
-1388.751877
-1780.167989
-1556.78676
-1116.017101
-1062.389868
-1699.117792
-1794.225613
-1785.467997
-1883.982893
-1987.359831
-2085.627245
-2135.54207
-2444.17554
-2532.679595
-2812.585439
-2776.25353
-3049.569148
-3078.297145
-2833.45509
-2773.338139
-2490.674433
-1940.070953
-1544.303295
)


100
(
7.108251245
91.77095589
20.54236925
-40.88278438
-60.76153063
-60.31268577
-51.04909899
-39.13742615
-22.13720381
-15.43490992
0.6168127751
13.16159844
-33.55950813
-69.39588038
-2.57469221
31.53583675
-69.2404439
-121.948243
-16.80876335
35.45588022
-52.03614779
-126.918454
-55.39815974
73.28953366
133.6087421
87.64600347
-6.031311107
-49.97693481
47.97491857
181.5129711
99.35430298
-155.319272
-256.8286553
-63.35826351
149.8875986
111.3435879
-82.46982921
-191.4882846
-156.3067092
-55.91790604
88.11515111
223.2346104
147.9147155
-164.4966267
-302.0957727
-86.02487076
119.377685
-12.08411553
-280.9146251
-436.2322179
-455.9980909
-320.3284087
1.306790549
185.7213229
-108.8031089
-430.4321322
-237.6254079
-106.4358485
-307.736555
-497.6756472
-514.7538717
-586.2742656
-722.1949444
-805.0888213
-737.651252
-679.8412623
-722.858266
-721.7469531
-626.2056912
-557.8808275
-747.7609437
-1027.775343
-1226.218348
-1274.923339
-1334.697752
-1141.208336
-1051.268373
-1537.650582
-1465.08698
-1205.943704
-1634.724477
-1690.19704
-1986.732827
-2075.31367
-2218.396142
-2221.117421
-2255.154987
-2362.420077
-2350.750635
-2567.72198
-2527.385345
-2823.297199
-3062.639887
-3327.557526
-3108.913351
-2899.893888
-3006.135011
-2886.845206
-2253.902295
-3235.180751
)


100
(
7.295169103
94.90866611
18.23332818
-39.05805701
-56.28983537
-60.01665322
-52.25925234
-44.68384289
-29.21764908
-14.80235065
-15.81442212
-0.1500401998
16.60665108
-40.81897211
-81.28383949
-2.556991156
37.17844242
-73.53718664
-140.8792355
-39.48249644
56.41079622
16.08917708
-62.79677256
-60.53950305
33.73504186
137.7734973
144.6814192
-2.613711592
-170.2400839
-99.99448249
110.724091
150.9717754
-62.26568803
-249.6828704
-183.972126
-2.707289816
74.13369
34.1670256
-43.43673342
-156.7632393
-218.1343515
-61.58656875
213.5204669
219.0455377
-122.3629534
-410.1295946
-368.5927918
-249.7311727
-238.5569745
-208.7752313
-198.777968
-356.0619598
-319.6066967
41.935044
200.7392612
-157.6941386
-496.8072064
-595.4713283
-606.6550391
-587.9266283
-515.7825845
-449.5121765
-453.0813044
-567.6330014
-684.7501299
-735.4695372
-708.38028
-856.3892783
-1063.03534
-1007.113873
-978.9086355
-1151.314629
-1172.866865
-932.2030682
-965.6556146
-1371.010712
-1746.167146
-1857.029
-1477.055822
-1097.536587
-1598.60883
-1961.925098
-1946.208453
-2032.77576
-2220.272491
-2306.223878
-2436.81325
-2557.769651
-2779.678768
-2933.132666
-3173.913299
-3314.808432
-3533.1369
-3643.202141
-3251.587525
-2859.174636
-3255.348841
-3060.583767
-2399.639306
-682.7852365
)


100
(
7.439694309
99.27615343
15.0388295
-39.81701207
-51.74921117
-58.89582042
-54.53512418
-45.16627761
-39.22101391
-22.31289081
-13.38759892
-29.10506052
-3.725434164
22.28366636
-47.74760099
-98.49343909
-13.33261475
41.03377649
-54.64463031
-127.2443224
-56.42912309
50.23995876
75.38221741
15.39355207
-54.38758075
-45.43239364
70.0910436
163.2615208
45.48894454
-174.1933528
-197.5742159
-0.2141812743
137.2335722
30.36569463
-162.5705836
-242.118933
-180.7286614
-62.05545924
85.50256086
127.0989428
-65.37268343
-325.2458745
-246.6745179
46.28177249
121.9081809
-158.7087738
-472.8168607
-610.6117516
-536.83849
-296.0930609
82.61592246
157.5487
-223.4803676
-427.8656137
-200.4971481
-188.4439697
-429.3795943
-553.1736602
-547.6507409
-621.923119
-766.1819882
-875.648713
-835.1670189
-795.2528365
-825.4860736
-800.4270524
-682.3341293
-586.1577331
-769.8782654
-1037.312477
-1209.626594
-1164.241836
-1353.467753
-1299.7545
-1224.309981
-1537.942129
-1688.740822
-1263.411331
-1429.88727
-1939.654777
-2141.204523
-2255.037004
-2333.35914
-2418.54844
-2420.908558
-2488.625044
-2629.307181
-2719.165019
-2802.986632
-2990.749969
-2984.775565
-3372.81916
-3562.042887
-3793.824693
-3463.919385
-3059.10696
-3472.526764
-3162.02277
-2828.804387
-3649.568823
)


100
(
7.419697702
103.5116528
14.73933247
-43.79758169
-49.31118955
-55.5093814
-57.80968824
-44.75196428
-37.21749404
-36.00902179
-13.87183775
-20.21448717
-46.97537866
-6.112067262
29.81733335
-50.20034547
-110.5383708
-29.80294811
39.12669157
-17.61827994
-94.15710942
-79.1717795
15.45693295
98.32253432
80.97280517
-41.19442071
-136.8153483
-37.39509837
136.4899556
106.5316553
-114.2427441
-257.2727029
-153.1578563
8.401052156
41.11184213
-44.44838926
-162.0162949
-264.822332
-206.6849594
35.94861877
227.1741314
70.67624329
-271.1187537
-406.031244
-266.0288927
-210.9381585
-287.1608474
-323.199864
-372.2588034
-484.4003794
-267.5197105
152.0467397
151.7216006
-316.8378619
-653.4492947
-673.3322566
-684.8205305
-656.0678238
-551.8092875
-458.8049746
-495.719322
-650.4542899
-791.4977334
-844.0371414
-804.6038985
-949.2458267
-1146.581895
-1100.244579
-1089.023709
-1248.2982
-1289.52192
-974.990905
-889.2234993
-1254.371791
-1691.149111
-1818.226098
-1750.233006
-1377.477768
-1389.020581
-2043.696392
-2105.521563
-2108.098763
-2290.999707
-2449.453654
-2533.5895
-2709.980316
-2906.932268
-3101.147836
-3313.446125
-3437.290498
-3556.567934
-3732.717219
-3718.580406
-3809.187865
-3639.141522
-3356.148903
-3797.159155
-3356.623926
-3293.797726
-3034.832326
)


100
(
7.363242103
107.2171432
16.41794623
-48.38396603
-50.7143153
-52.0621248
-58.1703771
-50.20671159
-29.06047132
-30.59547677
-27.45283712
-5.124624945
-27.47062242
-60.86983133
-7.800293808
36.25019394
-38.86580452
-104.5995729
-51.21576763
25.395128