/*--------------------------------*- C++ -*----------------------------------*\
| =========                 |                                                 |
| \\      /  F ield         | OpenFOAM: The Open Source CFD Toolbox           |
|  \\    /   O peration     | Version:  2.3.1                                 |
|   \\  /    A nd           | Web:      www.OpenFOAM.org                      |
|    \\/     M anipulation  |                                                 |
\*---------------------------------------------------------------------------*/
FoamFile
{
    version     2.0;
    format      ascii;
    class       dictionary;
    location    "constant";
    object      la_i9;
}
// * * * * * * * * * * * * * * * * * * * * * * * * * * * * * * * * * * * * * //

la_i9_table
100
(

100
(
-903.217166
-0.01870795629
0.07856437478
-0.6253744217
-15.04981832
-10.62331698
-0.6245409096
-1.947676674
-3.355151136
0.3194487932
1.463323976
2.650987082
-0.8566831891
0.1944447578
2.455866696
0.1878809892
2.249660738
1.199266786
3.117039066
0.3531716889
3.687245193
1.674678099
3.825113462
3.407296995
1.020666598
7.044958273
4.067745974
1.567580478
7.928746058
6.968354874
7.72652634
11.3519998
0.6069255308
12.47179102
20.24047738
-4.12118644
20.08801146
5.403064184
-41.01785764
87.32404163
-1.770537518
43.86049872
-23.87043811
-42.37995316
90.81739096
69.52428246
-226.4097764
197.8844819
18.39061562
-75.502196
111.8124807
-150.1495805
135.8219979
-56.28368939
-72.83268958
272.7388897
-342.5785419
247.1644007
-199.9601321
85.78110481
19.69345088
16.72535097
14.88164128
-19.09107851
28.83076722
68.11041864
1.772523162
-80.70701524
28.86405526
76.10122938
-14.17598987
-82.29739623
-80.34633236
12.18998946
95.77950557
-12.59660836
-63.90666502
-50.95551211
12.30418005
21.5999774
-47.94804839
-25.59065746
160.0215476
-62.45990463
21.63204235
-27.56977497
-2.533822223
44.82192302
-15.7603381
106.6330417
3.890519476
-56.8009354
18.28715102
-11.71520342
-8.082958792
-0.8825751142
-31.9899585
27.47446265
86.48009733
-2.519677638e-05
)


100
(
-903.1816239
-1020.094816
-1274.576135
-1348.928661
-1406.104855
-1415.288208
-1337.859024
-1326.588382
-1251.253841
-1204.635484
-1157.000006
-1071.866828
-1012.900535
-942.5098867
-863.3886173
-804.9073936
-744.6462164
-666.2894887
-621.229547
-573.9135606
-515.3810868
-473.4094072
-437.0931522
-395.2519733
-349.5724286
-325.8554628
-296.6462625
-263.0215143
-228.8647466
-213.3903776
-191.6280754
-166.5399898
-143.9488881
-132.0102089
-117.2441348
-101.6005801
-85.16879964
-74.71034971
-66.61242495
-55.80834486
-44.60862346
-36.7461811
-32.29895476
-26.19917791
-20.05983674
-15.61544116
-13.75984096
-11.38158313
-8.122107568
-4.897981855
-3.180044325
-2.177102973
-0.3851280908
1.531807233
2.697037403
3.630847041
5.314350702
7.920367795
10.38475785
6.522774404
-7.19292318
-0.7154236514
13.03103414
7.137705065
-6.106664467
-0.1663118067
10.97642019
0.5358073847
-4.346040895
2.673415309
5.916853256
-2.652029873
-0.3902439689
8.992767857
-1.037974255
-5.853636156
9.866540314
0.1991160169
-5.305524319
8.673692843
-3.071470249
1.308269592
4.591496171
-4.632037571
5.622156636
-0.2063713083
-0.4922707731
3.235720918
-1.298815445
2.448860732
0.6127191153
1.971518865
1.082975299
1.710589594
1.423629806
2.073893019
1.990417528
1.52243915
0.7861343814
0.226075546
)


100
(
-903.1699016
-867.3835816
-1075.875066
-1100.023323
-1145.341632
-1093.068881
-1027.08072
-948.9862232
-887.734764
-799.9593539
-753.8845568
-673.0827824
-607.0039879
-548.1424299
-473.3646767
-413.5559704
-367.1791062
-313.3314051
-261.4843011
-233.819718
-201.3693966
-167.7350601
-142.9808738
-123.4368176
-101.1660644
-80.59248452
-68.23233489
-56.05085022
-42.78076266
-30.81141325
-23.29766312
-17.03396695
-9.627877602
-3.260256706
1.166798051
4.027951282
7.567882862
10.73876037
13.66508199
15.42496527
16.55424131
17.47849312
18.23766528
19.46279619
20.1669164
20.96425
21.124407
21.49701319
22.1467599
22.50449419
22.08481706
21.18589926
19.34578221
16.94940577
13.89868552
11.59173949
11.122332
10.64534163
10.65416982
11.82261002
6.133695228
-9.739997445
-7.471576691
3.801823828
6.583188003
-2.893705086
-1.840930183
3.308504013
1.256413141
0.4068694642
2.801075063
6.539472995
4.126210289
6.905238453
12.46999965
7.012045436
-9.310494831
0.7050223291
8.936099596
0.9813708265
7.436758912
-1.616740059
10.94825167
-2.839004357
2.421772126
6.483119338
1.622234611
4.741336383
5.685276214
4.872815538
5.115167725
6.093229087
5.978944332
5.054570798
6.30121977
6.494172053
7.69003349
5.404777785
3.294153307
1.409083912
)


100
(
-903.2525856
-736.0501851
-893.6675696
-921.1636515
-909.7998014
-813.9230405
-756.7738213
-644.4748431
-588.7437813
-508.5902602
-444.3993865
-388.2975348
-316.8474458
-272.8852441
-223.2853855
-170.1820569
-134.0434582
-103.4884973
-72.60519962
-45.63451677
-32.74111742
-17.7494545
-2.852454576
10.13916156
17.91087159
25.96499704
32.44478813
36.88080067
38.41002664
40.86996944
43.5774459
46.87456457
47.36493785
46.86182145
45.72694199
45.59560479
46.36963392
46.84738325
46.52317483
46.66807838
47.6252283
46.60683528
41.97486565
35.32915846
30.3454886
27.573879
23.50646036
17.99749503
14.65111119
14.05658823
11.45716518
6.684610953
3.839390518
4.744758205
4.61315979
1.953651188
0.7725263084
2.663143801
2.864262729
2.239486961
5.109108544
6.067697199
-1.955130182
-0.547631526
5.764305453
11.00651957
8.70723335
10.48193472
13.97972382
13.19967771
10.670146
8.662706156
6.433589667
3.733185492
10.08277576
9.616385955
-8.482117488
5.962877641
17.95384034
-6.135748069
3.211445333
11.19973186
-1.514964722
7.311729102
8.950941159
7.675176242
6.850269223
6.385594509
8.011167469
7.193226485
6.36638589
6.159757255
5.859670415
6.088745594
5.382548568
5.707047608
3.847681777
4.677156023
5.139987862
2.653684193
)


100
(
-903.4126491
-642.0356824
-760.264656
-758.1736897
-693.0139865
-614.507297
-524.4100308
-434.8880974
-351.5214215
-292.2209529
-222.0174071
-181.2729429
-134.9934505
-89.13445716
-60.38940202
-29.75494091
-0.03499342197
18.70395993
33.0214546
45.92689515
58.3513603
63.75815195
68.87514314
75.06722806
83.18260734
86.73702812
88.41324051
87.88988576
86.69587527
83.89269214
81.33481935
79.31921538
78.82421903
77.63302157
71.83118053
62.54688384
54.56263072
49.85202846
43.55051396
33.46728764
24.89681838
21.53741432
20.11498323
14.9921369
8.56771489
6.898680867
8.776529333
6.486848692
1.882975074
1.869772494
5.2429211
4.176132965
0.5603263646
1.111287878
4.979505965
5.797510055
4.394557414
6.267614354
9.582927562
11.3185833
13.27254199
17.47991574
20.51556092
18.67482283
15.17729572
11.60829783
8.946562701
9.491875233
7.806498657
4.959386799
5.477814026
10.38317286
14.17443002
4.748802802
-10.32527289
4.757713567
15.49488072
-0.5753893141
3.080438901
8.178017226
8.490894701
9.169801013
7.7202223
6.101213275
4.726825006
5.577572985
6.893650472
5.470830303
4.009532074
4.186553442
4.1782661
0.894783994
1.763784824
-0.03756381818
-0.4308740056
0.8616738046
-10.81769462
-0.4707562135
3.165985839
1.958394947
)


100
(
-903.3911571
-556.1553377
-637.3676628
-601.326672
-513.9475716
-444.4119414
-335.7979243
-262.9716852
-180.0124823
-126.527179
-78.28971327
-32.97905456
-5.24166398
24.08560874
49.3101911
64.54824039
79.94955437
95.86059405
104.6911901
109.0958339
112.8692935
117.8512359
119.1813793
119.1360385
119.8185293
121.01328
118.9416923
112.3043897
103.1489955
94.07592298
84.54293429
71.84413498
58.37249405
50.14203627
45.94544401
38.25094789
26.76582538
20.25339175
20.26185916
16.38592219
6.747319221
0.5678559065
2.967912568
5.106556969
0.8488717003
-2.970961701
1.103025252
6.566811712
4.665600464
2.235106322
6.177175588
11.753819
12.39953621
12.30487167
16.17675205
21.93657829
26.13838571
27.2788539
22.90851912
16.86604477
13.20567335
11.45261548
8.777173342
5.573273712
5.405096245
7.439686012
7.212257581
6.135177775
8.376327416
12.07153245
14.71793651
12.58152538
9.837591664
9.340077987
8.454471347
-3.697016978
7.118817552
8.90068519
8.467283386
6.453355236
5.043734964
4.06297172
1.622572502
2.931848584
2.818465528
3.01386886
4.090367317
6.214923313
2.158279681
3.199668104
5.551129454
2.811583181
5.933890873
7.846785061
12.34324183
18.2476122
6.544874171
-2.526293404
-2.758435194
-1.181970089
)


100
(
-903.3343761
-471.9506344
-518.7375625
-459.2792677
-387.0314883
-296.7909978
-202.9055954
-122.2343811
-58.68313657
0.5390203345
34.35505568
68.60342753
94.45257061
110.2569626
126.5627145
139.4391611
145.330758
151.2158294
157.8381049
159.3265421
155.6055139
150.3441042
145.131982
139.7303976
133.066721
123.3975359
109.4901638
92.28619142
74.74960866
61.20309267
53.68051015
46.09354422
31.78364141
17.05027081
12.33851012
13.6224557
7.823362464
-0.9345154258
-0.7473014047
5.855872093
3.759364139
-3.515198107
-3.83227824
3.842223221
7.612897818
4.830443287
6.739987647
14.31145476
21.00320447
20.95801795
24.06774535
30.14126767
34.67642434
33.27951826
27.75028674
20.83994458
15.4253081
14.06375181
13.38701568
9.669350493
5.351559026
4.887073714
7.89571237
9.959040435
9.616499825
11.27908199
13.3686606
12.65826411
10.07091276
7.045251779
4.572692992
3.752338775
4.687485568
4.908421466
5.718064205
5.905166833
6.221275227
4.432262413
2.493392673
2.425269562
4.921224197
5.889857331
5.807996618
6.391067806
8.57370621
12.42400424
14.52958011
20.22965326
18.226174
16.83931515
30.22841461
41.43867333
49.8722432
59.69153445
70.07979564
75.56209513
50.1680389
18.80399747
1.836269907
-0.8757977456
)


100
(
-903.3581628
-392.3592448
-409.319896
-349.7496111
-275.1637612
-172.1052533
-93.51608474
-7.349252495
44.10122451
93.34118488
129.6412797
152.3915634
175.7188439
187.6073973
193.1934869
199.7266171
203.3115822
199.6498722
192.7223512
186.2684955
176.7973524
162.6180246
144.1380074
125.804662
113.9990228
105.3322511
90.5067923
66.89405566
39.83791328
18.48129993
10.15474379
13.53112327
13.34151467
1.4803478
-8.57485583
-4.301638925
2.239446407
-2.235793992
-6.90877422
0.2186042831
10.3150688
9.804760667
6.958762773
13.25197018
23.97066208
29.27349695
31.02946592
35.7039428
40.43725828
40.67395358
35.90140196
28.79331221
20.6895201
14.37986525
12.6630613
12.94726823
9.978678865
6.379352952
7.180425252
11.58638767
14.57902508
13.87241123
14.66323879
14.78386918
11.86266175
8.760589987
7.244178323
4.772805204
2.854185164
3.577167596
5.5473216
5.826385511
5.925835304
4.501125773
3.146378255
4.630707459
4.006567617
7.026213998
13.95124119
17.80450779
18.99015254
21.1264302
26.52646952
34.80639164
41.16941711
46.58633795
51.20731945
62.04783799
59.12879581
66.50732948
76.74147323
81.27264556
92.03126608
106.9380154
111.7892713
122.5588711
101.3717977
64.71259642
32.61486253
8.55753374
)


100
(
-903.4440397
-324.8092557
-322.2235185
-260.4273373
-172.2443917
-78.69499423
3.788160572
77.98506675
137.0553588
175.7397027
213.7041315
232.0914718
244.8952398
257.783135
255.7193102
248.6523849
242.2138527
234.3023591
212.5650257
189.8104727
166.893131
147.5083307
126.4019231
98.97402993
75.1912443
66.31705828
64.76286142
53.25129246
27.35981236
-3.193306917
-21.78563922
-18.87184823
-2.313410031
2.230403467
-7.001841253
-9.145418383
2.881292451
12.25983029
9.258346422
11.90069055
23.34739437
35.4500342
37.0590454
40.05614673
46.69581106
52.53004855
51.55133198
44.00146005
33.13113152
21.93892984
15.39130315
15.30733379
15.42187401
11.0172128
6.419109579
7.710680032
12.68885676
16.10832145
15.96354466
16.93932362
17.42863091
15.29035789
13.09734942
10.88161852
6.165618638
2.208268295
4.185637983
10.13992796
13.64816862
14.44260717
13.58300041
8.59046179
11.36795656
12.97678099
11.66347879
21.737203
35.66714965
42.06785675
42.13351877
42.95431478
48.82925815
61.11005037
75.51306691
75.05381997
81.47991269
84.81075183
98.51933005
74.03446269
103.2361264
122.6025968
131.5790796
143.8139652
152.31806
170.6334248
200.2420861
184.8350917
151.3591356
109.5201313
75.17967814
29.53078838
)


100
(
-903.5393546
-269.5979349
-252.0400615
-178.4677311
-81.04690771
1.35126972
92.32513823
158.288814
222.9162243
258.6564257
285.4920565
308.9755361
310.9631122
310.4333301
305.9916959
285.3354102
259.1918158
232.904067
206.5511875
175.7477062
140.0651411
109.5347165
91.64870492
74.24276289
48.59940254
28.38618723
28.24876679
37.32250609
31.58280223
6.785747178
-22.60208258
-35.60771108
-19.51350165
5.809928522
13.25533457
8.275157159
16.03598598
32.89585878
44.36964609
45.92707274
51.31200483
58.60407184
63.14111721
59.33564944
50.47972379
39.35621619
30.04352999
26.12224904
24.83797333
18.703017
9.731859443
5.669223539
10.71894324
18.55972313
22.33492601
21.23194787
21.49615022
20.01353004
16.35050386
13.76855163
12.84150406
8.398011393
4.532695443
8.700523978
18.16245749
23.20898884
24.90764264
29.35657784
27.03762399
25.73768373
30.13017094
25.52636106
28.80319592
48.25486615
66.71357119
72.60459633
69.57481645
66.3738277
72.66367727
88.37543505
105.0415547
107.0208129
107.2176674
106.9508103
125.5251079
126.1198045
127.400153
151.6365405
161.3201274
169.1820649
178.4922285
188.8682979
227.8353791
252.8866502
341.483809
262.722485
232.6735408
159.3261291
122.8791454
76.6367904
)


100
(
-903.469551
-219.2784416
-188.2600942
-102.1738716
-11.02860526
77.24504748
166.6946519
238.9477608
296.9300077
343.0030861
360.1321516
368.9535336
367.7264085
350.6569521
329.0097314
300.612991
260.0244749
215.1953516
174.9656991
143.8962917
111.8477999
75.20000353
50.06313258
43.53705056
36.83595085
18.85259273
5.159272175
12.32533327
30.18713074
31.37097219
8.389492211
-16.37741347
-15.704983
11.91356446
41.53268547
50.94385914
53.92066653
62.77845932
73.90955153
78.92417475
73.63940777
60.99080449
46.35308892
36.09823763
32.72016028
28.38855845
18.7871346
9.870082735
11.0187152
19.59226251
26.76758931
25.10265632
23.97843269
25.99566347
28.47505897
28.73397058
28.62221549
21.79172201
11.92882237
4.897889752
11.27069603
26.01742618
34.31988182
38.59519553
48.61640736
53.87781031
48.64916091
50.90450053
42.06240551
35.64341897
58.31249066
84.78479267
92.61873528
100.3695322
92.45294492
84.92643229
96.94247356
118.6549107
138.800385
144.9353108
135.8117342
131.2157491
150.8663364
187.9346589
166.3551111
204.2178332
209.4299742
238.9623615
256.1023316
289.7399034
321.6332248
343.4306939
373.5926165
429.0595531
500.3425182
391.0929549
339.701627
236.1508968
171.6578274
148.9825765
)


100
(
-903.3432393
-170.9862118
-128.7605477
-37.6525219
50.12565647
150.237551
235.5011325
321.1046037
373.9733048
415.5809766
432.6329403
424.0772335
403.6544315
371.727615
330.4860627
285.5182493
238.0202678
187.6113318
137.7337097
100.8190616
80.0187519
57.08739064
29.48089694
15.01771016
20.54905655
26.61374412
17.94480317
11.00375377
22.64719643
45.03320348
54.32965825
44.95674258
19.46093544
35.66446187
65.10363337
88.93922093
94.93865372
90.91427052
79.8945228
68.78711113
61.40322277
52.71607036
36.945479
18.3298775
9.128277289
14.62833246
25.04875248
27.09110258
24.37812832
27.74709506
35.32309673
41.60535819
43.7442154
39.55003617
29.33523591
16.77263817
12.1347338
24.56565791
40.6616991
43.79716809
49.50771347
64.57343448
79.41754859
85.38053405
81.23686527
64.4585077
48.54143242
66.31213694
97.66167109
101.8295477
119.0967163
130.6551794
117.7477312
115.8290031
132.2020447
155.1392073
170.3820556
179.969994
169.2485331
159.5567255
187.3296129
228.9162443
231.8878767
250.3779441
249.1736598
304.531123
272.3583287
331.1920149
383.6255439
415.7084151
463.4823113
509.4188068
553.2139544
643.7023939
649.9560058
558.5481874
454.2688566
343.478279
243.1777941
71.74665869
)


100
(
-903.2986825
-126.6236609
-77.83337324
9.763221746
107.1149245
214.177665
306.2402103
390.8525398
452.1179677
481.4672722
491.6436735
469.1692184
425.2281714
371.0954189
312.2309137
252.8258502
197.0915875
149.2367268
105.7647057
66.86535479
44.90622378
39.94380578
30.82022363
14.97549165
10.29238887
24.32236847
42.49279188
45.05378307
45.58189417
58.75255458
80.71551401
97.70237764
95.85394233
90.53542247
93.41243481
94.38626167
91.59123993
85.88822001
71.51640283
50.26002323
31.6089822
27.23415757
33.23275698
32.27252545
24.57368347
22.08880167
32.20564909
46.9746229
58.0065187
58.6304816
53.77149637
42.63547667
31.09209561
29.73501859
43.62664516
45.71429142
44.09912575
54.34522554
81.08019577
108.1084431
124.8573486
120.026914
98.98004915
75.58138067
80.17083687
104.4831775
104.8888304
118.463385
151.7944583
174.2065794
174.5923927
175.446516
173.2332302
178.2496469
200.1053512
227.2297947
217.1017155
192.6564095
226.7122975
288.6357505
329.9458118
319.4931457
300.9942902
345.6302196
419.9969109
407.2691373
405.6686891
482.6949809
515.9408115
562.6445742
627.2228255
720.4358801
822.504111
919.4447156
891.7672421
807.3006578
601.893258
476.5843539
339.507753
535.934223
)


100
(
-903.2970329
-87.89666366
-39.55685195
51.41382648
160.6347595
268.9285471
379.0918608
460.4986919
524.4298171
542.7687198
531.4692498
496.2252249
432.9371607
357.1613286
281.5068773
213.6533152
153.4704632
105.3175356
73.7168205
48.28747273
26.7106087
20.14075493
29.33686788
36.0290864
32.14673815
35.37464485
54.50728782
79.33075056
94.83205311
99.56154119
106.9608844
115.7411699
119.780952
118.0946867
106.8201786
89.19013059
65.90978545
48.67312105
45.23821526
43.37610473
32.1147334
20.97850283
25.78446376
44.02271515
63.13986432
68.47783002
69.42097786
69.33775966
65.74937503
60.27695751
62.29025055
59.65320562
48.12749461
39.10775736
56.43311441
93.02578216
131.0355508
142.1679947
150.9055965
144.2698582
124.0864672
117.2635409
118.3146039
103.1343237
103.0236424
145.8411882
192.4217031
213.1162508
208.3872256
196.6123292
187.1341869
198.5195467
235.0419362
273.2787421
291.7252658
294.3175188
321.8822405
332.2972074
357.1044084
411.9231126
391.3220166
392.7980304
493.9631376
560.3823276
519.7969884
500.4944495
637.1406606
681.7800208
705.5148709
779.3756156
875.7531486
788.0214562
1056.834433
1237.521786
1219.427185
1093.65721
836.2729276
651.3443672
470.2335573
-6.038154427
)


100
(
-903.3253545
-53.51989932
-7.484750527
89.81831181
205.3935735
322.8631984
444.923742
532.9556124
582.718535
595.1412502
561.622536
501.6761745
423.2043469
333.7287618
245.9007047
173.2101352
117.487498
72.15194617
42.34479065
32.48621915
27.70910415
21.67890447
27.30671354
48.01337856
71.90056004
79.62608035
88.66323329
106.0389464
126.7167773
141.9010996
141.9361103
133.0467913
116.3216294
97.94130972
85.9020082
77.47334083
58.76022729
33.84579779
19.1827781
27.98351801
48.56318633
59.09182493
60.20059748
69.41926872
84.65079644
98.0129731
104.2066636
98.91926631
82.12621653
59.15910225
47.98156974
68.01210538
105.1671997
119.7483616
131.3201221
159.2217327
187.9735853
200.2439795
192.4146108
162.3629004
119.6154934
97.8179602
134.1517986
188.4089393
209.5278262
237.0797443
251.9741531
236.5640687
220.3563738
239.0821812
284.5290695
331.1747666
353.8373535
355.9777046
354.1997249
359.2808332
411.8524505
476.5037827
500.4786846
496.5984003
567.1554615
611.109886
694.0294157
635.3748328
665.9815115
822.9395628
924.499148
987.6946144
1068.739474
1136.553473
1257.827088
-231.4098363
1470.625667
1713.115039
1584.721338
1440.489605
1147.620782
902.2235505
676.8838277
567.9869112
)


100
(
-903.2038739
-22.31731494
21.49448854
124.1061194
242.4340462
377.8750666
502.8807155
604.6799082
641.4055328
631.1975895
579.58542
496.1505195
399.0155663
300.6879595
209.1981151
133.586366
84.36028243
53.24527587
28.72254009
18.70597111
28.61375155
44.14364027
51.24290697
66.36054108
95.00759229
127.3406914
145.2332267
151.1350803
153.3999814
152.5075439
147.4077866
137.8375316
115.2413659
83.20042251
52.71691583
41.76865796
50.66525355
54.05510776
45.74584442
43.0889594
61.86019301
91.8377337
118.7200669
124.9021592
122.5501036
110.4758334
95.26999316
88.04332116
103.0838462
103.3607401
97.18099781
105.6171799
150.8576017
206.043977
242.876926
243.703995
223.1754848
180.5053133
147.4194019
159.1741659
172.9454722
171.9337631
206.4272742
272.0565263
316.7308496
324.9428326
321.8853991
315.6585721
314.7162187
338.6007385
392.0439326
435.8777919
418.1482007
392.8833743
448.3305359
546.7320629
627.0207653
641.7812428
637.515131
639.0470918
756.9686665
855.1538711
817.1402905
855.6680385
931.4954102
1076.888209
1145.581437
1242.758302
1383.186193
1555.332415
1842.412418
37.85050608
1841.275204
2318.984044
2201.59882
1884.793191
1520.859771
1232.758011
982.2068239
1095.028984
)


100
(
-903.072292
6.83382105
47.01583478
150.7225308
278.0425182
430.1109767
561.9481903
661.0747028
695.5039441
660.8059389
583.297735
479.6586533
366.7609819
261.7695882
173.7119757
101.8938132
53.09642752
34.67493087
30.65881037
25.83398017
33.22580963
59.65280663
95.10597394
113.1954155
133.1180897
158.5798825
182.7951105
195.781322
185.555322
163.0903089
131.6119808
104.2712986
91.28179339
79.05858565
55.22039938
32.00939605
33.86389223
62.5332434
98.78661186
113.6584542
121.0194783
132.8823929
144.4420157
149.6560879
151.0484925
139.9300685
114.9200918
91.24513558
99.27112455
145.7848896
201.4239606
224.2268328
247.3814869
270.4980999
275.3241105
258.3910297
238.7248943
196.7035746
153.8713359
168.6510003
245.4487626
321.1865211
351.6228577
379.0779193
376.4198149
349.6793274
344.0181916
382.9144878
447.7306698
501.2483225
529.0469526
549.046487
553.4984315
568.2187286
632.8192523
735.0849934
770.6985133
731.4777198
830.0197269
980.9864239
1038.005314
1042.952129
973.0025841
1161.963297
1330.277182
1389.175198
1501.382877
1655.734926
1796.148492
1983.093811
2276.22053
4307.003249
2653.279303
3061.691083
2950.277627
2442.627479
1990.092251
1628.299928
1338.588573
889.1496896
)


100
(
-903.0135752
32.548264
67.33569106
172.6164687
314.5739597
473.0359009
621.6653952
712.6948546
736.6303969
682.0631371
577.9135253
453.303502
330.4721831
220.8022074
137.8723005
80.42617521
37.86889781
18.54677792
28.24347053
49.69367627
62.10543785
84.08004864
121.9936454
165.0765786
190.312746
200.9407627
203.7207726
199.2632642
187.4821936
165.8309129
127.7996911
81.74965716
49.56930055
49.70995884
70.9113706
75.41686793
73.43666019
89.35752154
127.3663925
169.2460546
198.5113567
197.0756306
181.0326324
152.2404418
128.6114846
132.1884384
161.3254449
167.3374128
172.6242736
208.2910642
271.3409901
325.4773525
345.235675
324.3874899
275.388989
218.5069103
205.1672793
243.8621069
266.2691117
285.4843572
352.6318594
419.8248402
447.8111247
456.4132393
470.3857788
481.180178
500.1671969
541.428286
597.7196761
635.3121328
614.8804151
598.5173396
670.4296189
799.9601319
901.1310908
950.3604747
965.5824233
993.5972102
1130.039894
1274.356113
1205.784254
1264.202506
1416.035489
1619.236259
1771.531987
1894.501822
2061.327026
2266.473395
2401.41583
2595.245049
2901.09021
3519.439982
3403.365942
3793.212159
3635.566213
3110.332672
2570.608781
2116.24449
1761.041702
1566.304504
)


100
(
-903.01208
56.97065982
83.19872373
192.2569619
350.2355339
517.1958284
674.353409
761.5600698
763.8176649
689.6749038
563.7093826
423.3733706
292.5057234
184.1056825
103.1001633
57.9264633
36.85680594
23.3887708
30.35030487
62.46567475
107.5749558
134.4223361
164.3081403
198.9475026
229.5248801
243.3564464
228.729634
198.2287887
159.7169316
128.1661833
112.5195885
87.38173076
55.07087659
36.61107872
60.10497582
110.5460824
157.6534663
173.8509439
191.7296984
206.3983598
213.618902
210.6720245
208.9773215
183.3674059
149.8657069
131.8892148
170.6152834
244.9402164
314.5687115
342.8190425
368.4509856
369.2117408
340.6538762
311.6092138
286.2711715
244.7908132
224.6067106
290.9842907
399.3241603
481.9948049
513.4886565
522.7245513
506.1052122
490.913838
513.2838631
579.6104935
661.7007992
715.1837919
736.324948
769.9314045
804.1148679
840.6714955
920.1875511
1037.769611
1095.342362
1070.901027
1154.917949
1387.746089
1553.193669
1547.546478
1476.692915
1568.290196
1903.617668
2090.876676
2253.849259
2425.748467
2609.79326
2816.451214
2977.172196
3279.755004
3537.159052
3938.399005
4212.399751
4582.053793
4411.538218
3862.234527
3263.366322
2722.442602
2238.479098
1830.462796
)


100
(
-903.0410967
79.11311591
96.60134363
210.4257618
377.0060745
563.7768587
719.1850633
804.0511416
785.7004344
686.7861591
540.4942271
387.3396449
255.0957129
153.4196178
78.87307427
35.5668144
28.82545905
42.36127106
54.58467387
85.70258112
133.7410308
188.7629162
224.6427416
244.2936889
251.7586175
247.0777231
230.2456091
197.3352268
146.8231355
94.66078319
66.81555579
75.00201628
93.46102752
94.8496497
102.3993923
141.6117805
199.7847403
253.0502923
274.386011
265.6815119
232.4107815
190.4396701
167.024389
189.2079185
220.1915062
232.4747563
255.3982211
321.5693543
398.0017063
447.3981108
447.8778509
399.5768222
321.5812817
259.4596077
274.6983327
346.6186881
389.8564664
443.2258015
524.9657733
579.2232506
584.658413
582.5842078
609.8204098
660.9074911
712.5765536
768.719998
818.5120872
847.0691022
834.8471126
845.9069412
949.6397689
1101.873467
1213.365309
1263.55253
1328.029202
1384.551785
1507.855931
1743.202778
1795.451754
1746.920385
1946.095112
2137.990534
2426.90347
2636.140683
2876.876629
3037.279213
3244.324326
3471.853135
3672.155413
4063.125998
4335.805478
4779.2105
5276.215223
5498.70796
5333.608228
4681.966007
4034.494769
3432.173151
2824.74232
3518.19143
)


100
(
-902.8177708
99.33878719
108.5489197
225.7278089
401.506333
609.7390217
766.0272458
835.1619
798.9576249
678.0326847
514.116647
349.8966198
215.0265728
121.5532418
64.93414244
28.53911267
20.84853016
46.71478091
92.31941456
127.78463
168.9328764
218.9225033
266.2646132
290.7173654
279.8394536
246.1970495
202.1734012
163.503147
136.6319373
99.13953828
64.83700469
58.78095062
98.64596764
161.8667351
207.8868471
233.1324318
261.1317122
282.9140206
291.6639469
288.5946327
267.6019022
221.8396631
178.4790464
181.5012276
255.9675062
360.6233146
428.1522653
464.6599259
480.9628788
460.7650023
417.8600336
388.4773261
354.3858762
313.491445
324.6206313
432.3578212
561.6412168
641.9694435
673.1093405
678.228041
660.2136861
652.5486118
695.3478797
788.8516023
886.0306428
933.0968806
935.5245705
964.4414105
1046.794358
1127.777814
1227.389018
1342.329969
1417.74214
1411.031164
1508.910172
1752.012576
1967.749276
2057.791462
2064.265521
2116.677142
2465.456118
2751.688931
2970.292649
3219.825325
3476.098892
3671.91032
3943.369297
4246.478342
4538.523672
4991.638863
5323.891387
5850.869592
6386.404895
6527.481936
6480.153818
5623.703275
4880.182268
4226.438107
3498.154546
849.7673937
)


100
(
-902.6429065
117.662476
118.4948153
236.4976669
425.5623953
641.606084
811.4303803
865.4876414
803.7156507
661.3411637
485.9519461
316.3632339
180.7643113
89.24731874
44.04733895
32.65093785
31.30360141
54.3678523
106.8541177
174.6533984
224.214691
261.1467328
287.7363796
298.9475309
288.5042705
248.0728307
186.1842828
124.6836509
91.67833682
95.9474815
106.9143228
111.4218703
135.0883738
195.7713505
271.9674316
336.1429958
351.8547129
335.3629347
292.9266784
251.2070097
237.1296716
259.6130455
268.1704247
278.9632044
330.8173116
433.1815611
533.8778786
586.0517504
562.5585509
484.6157824
383.0460254
327.5620901
373.9592127
466.6895989
522.8163355
609.9599064
703.9634413
746.9197113
741.2669189
745.0485128
791.9106776
870.2992392
945.2280386
1016.510163
1068.707006
1093.350691
1072.989002
1089.608431
1221.848442
1400.524021
1517.783918
1544.688499
1627.771338
1734.95542
1891.194214
2117.141469
2265.022448
2218.604887
2373.310496
2763.185869
3095.819373
3364.347797
3638.311727
3896.327927
4121.213876
4396.15713
4741.928248
5082.15474
5477.664152
5990.99133
6431.36746
7063.057167
7559.006943
7619.916912
7799.99907
6721.752035
5854.841723
5127.358323
4404.474782
5263.970808
)


100
(
-902.6825156
134.9044524
126.8878864
245.9163895
449.7026986
671.1274492
847.038549
893.4693293
807.1676596
638.3254539
452.7949866
285.5326735
155.7762876
67.82758438
22.85129424
21.87102958
51.31180101
82.12241599
130.5491247
198.3451622
268.8118068
313.3666427
320.3448276
300.1560416
263.3055692
221.4291801
177.7451782
123.4351232
79.55978914
74.45784431
118.2621781
192.9626964
240.8910418
281.2592276
325.3845786
362.546988
378.1852368
371.206412
321.4230795
256.432826
208.9853274
230.2810256
318.1813713
427.3029631
489.9843961
544.9063229
575.2173994
567.9531783
536.3816233
500.7146446
437.4734578
386.6953116
430.8754798
585.658768
752.5534858
839.312495
882.1076014
881.3996988
851.1854838
844.7766624
910.3746589
1034.702666
1152.453918
1204.049904
1202.804729
1233.88628
1329.167442
1434.454036
1567.433732
1709.667367
1793.701663
1768.054936
1841.513155
2104.706807
2377.65523
2474.129127
2527.603289
2562.678776
2821.731918
3315.703138
3617.743288
3884.081905
4247.7422
4508.143051
4784.122422
5167.686528
5628.982814
6036.332595
6513.201027
7109.391826
7628.749703
8174.314439
8665.120898
8680.702833
9116.801162
7945.120177
6945.768169
6189.965749
5362.197595
5367.981505
)


100
(
-902.7365117
151.9921451
134.2508301
255.8038645
467.2867846
700.1150389
870.4309482
911.7918715
808.7272481
619.8219414
417.821517
251.0924242
131.5820139
57.94093538
17.13321732
12.88122604
49.55845312
113.02313
172.789614
232.495804
290.9811085
333.8104236
345.1462072
309.7700689
246.398058
178.5845866
133.9048959
123.9246248
118.9407122
115.0758783
136.5809218
217.8622916
318.2442107
397.8199029
415.73125
402.8759836
361.851889
319.3200707
298.3547778
290.6410172
271.6161354
274.0656068
348.6365664
481.5519772
610.7337456
669.5268719
632.6321103
537.8104418
446.373735
426.059605
494.1891415
573.8828831
635.6793583
759.5955105
892.3013928
962.1038177
975.8822008
992.5687058
1040.796646
1104.631199
1189.618647
1288.271918
1366.473139
1393.167464
1354.739985
1369.659924
1527.264484
1748.259316
1910.396257
1973.025833
2049.455337
2145.310457
2313.883217
2595.274017
2818.403266
2769.27058
2777.184932
3089.759501
3526.232033
3886.228958
4177.008839
4525.910286
4897.898063
5171.250186
5562.077629
6033.464822
6518.087161
7042.349188
7604.548215
8193.362167
8753.521237
9275.56699
9663.381394
9516.288985
10401.1577
9258.150732
8109.039483
7396.329657
6369.532109
4368.765783
)


100
(
-902.5837886
167.4395694
141.3840855
266.1162538
483.7870505
728.3808124