/*--------------------------------*- C++ -*----------------------------------*\
| =========                 |                                                 |
| \\      /  F ield         | OpenFOAM: The Open Source CFD Toolbox           |
|  \\    /   O peration     | Version:  2.3.1                                 |
|   \\  /    A nd           | Web:      www.OpenFOAM.org                      |
|    \\/     M anipulation  |                                                 |
\*---------------------------------------------------------------------------*/
FoamFile
{
    version     2.0;
    format      ascii;
    class       dictionary;
    location    "constant";
    object      la_r17;
}
// * * * * * * * * * * * * * * * * * * * * * * * * * * * * * * * * * * * * * //

la_r17_table
100
(

100
(
-143.5880816
-238.9642065
-304.1401692
-346.5476862
-373.5435366
-397.0810097
-408.0815571
-414.6482204
-415.2093182
-417.7934569
-410.4159339
-411.6440428
-403.6379207
-391.6291842
-384.9877578
-371.7036872
-354.3011403
-344.3794882
-330.162646
-312.6893505
-300.6190435
-288.5033538
-274.1558488
-260.0378704
-249.6102497
-237.4623121
-223.9171384
-212.0715324
-202.6624613
-192.0330929
-180.4722465
-170.8490492
-162.0010239
-152.4619682
-142.4010984
-133.2973345
-126.2910045
-118.6710232
-110.6190846
-103.129269
-97.02068587
-90.55601441
-83.83879278
-77.57759385
-72.28866703
-66.86850939
-61.40247563
-56.06470073
-52.09754909
-48.03658584
-43.96748009
-40.1292886
-37.03307971
-33.92835268
-30.84834115
-28.06832435
-25.64409543
-23.26806351
-20.97566308
-18.93731858
-17.19724666
-15.50643178
-13.88515901
-12.46655178
-11.22000893
-10.02545275
-8.896077506
-7.953420257
-7.081778341
-6.260992418
-5.530184856
-4.899640634
-4.31003718
-3.773492801
-3.322748076
-2.903774814
-2.525193235
-2.205149196
-1.908910079
-1.649695296
-1.422698606
-1.214158924
-1.040298008
-0.8788511687
-0.7421703886
-0.6169440104
-0.5112822684
-0.4159044683
-0.3349414873
-0.264677404
-0.2039991437
-0.1528232823
-0.1109729653
-0.07688803175
-0.05058250814
-0.0306146459
-0.01811188064
-0.009321474099
-0.002553850091
-5.244492828e-13
)


100
(
-136.9581043
-215.7334704
-267.3015762
-294.7369357
-315.8986749
-333.3436614
-329.1861977
-338.4562379
-330.6380746
-331.563333
-326.2014155
-317.1452155
-311.4219282
-298.9516638
-286.6317102
-277.1776625
-263.7693032
-247.8758739
-238.6833517
-226.9520474
-213.1917483
-203.0621839
-193.8240631
-183.0380085
-171.414593
-163.8871962
-155.0979124
-145.4286556
-135.5141578
-129.1863742
-121.9246628
-114.1399045
-106.523073
-100.8181141
-94.62973924
-88.2154404
-81.79946705
-76.5404861
-71.92556015
-66.95960146
-61.98486041
-57.57245368
-53.86235638
-49.99422089
-46.22266496
-42.78350005
-39.86378966
-36.93738023
-34.0840099
-31.45789908
-29.21065433
-27.13661389
-25.09302033
-23.20442047
-21.53291837
-20.04173848
-18.64730494
-17.34811767
-15.99302027
-14.29136527
-12.41864316
-11.60434285
-11.31270681
-10.31946176
-8.91313898
-8.353224615
-8.084227198
-7.134468
-6.314878589
-6.095838985
-5.745666167
-5.019228528
-4.760795817
-4.591038525
-3.634991757
-2.929082231
-3.505781077
-2.940075237
-2.394060425
-2.881220301
-2.261182378
-2.283592518
-2.306231219
-1.787930092
-2.086350071
-1.866844285
-1.574144639
-1.891219079
-1.529669964
-1.78194009
-1.69174265
-1.826906346
-1.747805187
-1.861199783
-1.891762825
-2.075174555
-2.171691369
-2.038327938
-0.9152355418
-0.3386998067
)


100
(
-130.1278879
-192.762989
-233.1802945
-251.2898249
-273.970015
-280.6649406
-282.1246397
-279.4609832
-276.9344296
-268.7547531
-266.31954
-256.368716
-249.119416
-240.7159839
-228.2107544
-218.246529
-209.1318828
-197.688459
-185.7140719
-178.1033361
-169.0844533
-159.3531723
-151.0790312
-144.108135
-136.3899897
-128.3969406
-121.8125776
-115.4667715
-108.8397302
-102.2354504
-96.57093505
-91.58903869
-86.39992493
-81.28698528
-76.60275891
-72.44924272
-68.2112483
-64.07591158
-60.13729508
-56.71115385
-53.49448613
-50.25943474
-47.15565816
-44.23617663
-41.72501857
-39.27423917
-36.9582995
-34.76347709
-32.76705266
-30.88552191
-29.04216651
-27.22692101
-25.41779294
-23.780808
-22.17572317
-20.68878427
-19.30434679
-18.12517353
-16.95752782
-15.70997056
-14.08003293
-12.32435306
-11.47623919
-11.25286958
-10.68178112
-9.775203161
-9.269196712
-8.955560024
-8.371840405
-7.967625367
-7.799497852
-7.61726186
-7.289715581
-7.192997743
-6.955141417
-5.839411117
-4.461550101
-4.640958795
-4.728732323
-4.783802107
-4.778852192
-3.796657831
-4.88835949
-3.496635287
-3.866338544
-4.645261658
-4.290332235
-4.879302442
-5.308539718
-5.213050009
-5.31144157
-5.698247713
-6.084698489
-5.395027704
-6.820053997
-7.654592888
-8.04114748
-6.233280606
-3.304187428
-1.645532318
)


100
(
-123.0024058
-172.8271577
-202.7867318
-223.8951021
-237.7360645
-238.1773913
-242.9665929
-235.4190728
-235.257432
-228.4301813
-223.0176405
-217.0768176
-206.954007
-201.0297742
-192.597848
-182.1696401
-174.2683008
-166.5681611
-157.8519769
-148.7397351
-142.8764419
-136.2188763
-129.2102617
-122.51783
-117.3975461
-111.8134859
-106.0501962
-100.5491539
-95.93852927
-91.18766162
-86.49603292
-81.8654699
-78.05721346
-74.2728851
-70.5098476
-66.81530382
-63.43495862
-60.3543827
-57.32677877
-54.3712332
-51.45760412
-48.74344119
-46.185528
-43.54822624
-41.00296649
-38.45365324
-36.32164858
-34.17827722
-32.20756205
-30.19213111
-28.50968984
-26.7470809
-25.1495928
-23.66990164
-22.38515562
-21.07709243
-19.90826785
-18.90098222
-18.00978937
-17.13689288
-16.35658797
-15.46671149
-14.38594792
-13.72433954
-13.4614417
-13.16918677
-12.80105382
-12.54787585
-12.23978821
-11.60642961
-10.78051948
-9.871116548
-8.755873033
-7.622903811
-8.237870251
-7.477116891
-3.988735326
-5.820773365
-7.845313909
-4.407618063
-5.205085724
-6.705064839
-5.957772671
-7.106084314
-8.262143428
-8.400966732
-8.222715661
-7.91052544
-8.524123213
-7.899543105
-7.690609684
-8.398379981
-7.954397068
-10.35222362
-10.8523622
-11.53352587
-13.06879839
-10.24873786
-6.714056521
-4.227072189
)


100
(
-114.9987673
-160.1373478
-183.766743
-198.694095
-206.5649696
-210.6917428
-210.8190566
-207.6854527
-202.7916906
-199.6095487
-191.784385
-188.0478584
-181.4591865
-173.2201977
-167.6465961
-160.4461174
-152.215772
-145.9738461
-139.9704721
-133.4698961
-126.6842443
-121.8604659
-116.9026538
-111.7208797
-106.36716
-102.2707282
-98.04501252
-93.6240832
-89.03871606
-85.09475067
-81.38332588
-77.68765913
-73.97126139
-70.24255305
-67.17786621
-63.95718136
-60.7695808
-57.29706605
-54.5493958
-51.70801694
-48.92881039
-46.28000263
-43.72198934
-41.54678391
-39.32180133
-37.22575042
-35.04497232
-33.40639982
-31.68963777
-30.14025464
-28.66263673
-27.3392339
-25.97687309
-24.8384079
-23.91372897
-22.9906155
-22.03797487
-21.2528612
-20.61395808
-20.0357956
-19.61121979
-19.25703703
-18.62769113
-17.50511386
-16.21034555
-14.91971157
-13.86306322
-13.35514298
-12.71595899
-12.00371739
-11.69672365
-11.74305326
-10.97044613
-7.328093627
-3.169829623
-5.50539501
-7.932216474
-5.732202444
-6.096988566
-7.84751412
-9.348461952
-10.10787159
-7.7457257
-6.072923923
-6.461288872
-6.928302792
-8.796843441
-8.206631884
-6.199762303
0.2506132591
-3.54464363
-6.185837601
-3.229801893
-5.11967981
-4.146052886
-3.014159329
-5.656315352
-9.510376937
-8.556340163
-7.486565971
)


100
(
-105.697102
-146.5335131
-165.5394862
-176.1345635
-181.0720218
-187.1925627
-184.6440633
-184.5267131
-179.098204
-176.701669
-172.1915484
-166.0296067
-162.0744601
-155.9901749
-149.5463798
-144.6852863
-138.8829701
-132.4499664
-127.4347383
-122.7907184
-117.7975055
-112.5025865
-108.2418133
-104.3440807
-100.2011223
-95.8070126
-91.84593634
-88.28274876
-84.50104151
-80.55133877
-76.53240395
-73.25232054
-69.88755847
-66.58172538
-62.83800475
-60.17298066
-57.31511198
-54.66488743
-51.24955533
-48.99679798
-46.51888265
-44.24771528
-41.93960262
-40.01586695
-38.27715564
-36.62895489
-35.01355718
-33.56661346
-32.37826927
-31.17139757
-30.18812075
-29.29693773
-28.30636532
-27.33784595
-26.61673072
-26.02361343
-25.37964294
-24.29926167
-22.61729578
-20.70099133
-19.06558316
-17.81832776
-16.63776247
-15.52948249
-14.95124392
-14.75023516
-14.30968103
-13.87160063
-14.13683121
-14.66902561
-14.69241843
-13.20014597
-11.05357259
-8.978735905
-7.627976412
-4.447462142
-6.443334207
-8.473402592
-9.381659747
-6.4831109
-2.725873614
-1.106502593
-2.747944548
-2.769985494
-1.534214556
1.885662235
1.679945098
2.886902266
13.14376073
12.36009625
10.5679746
17.26736314
17.42079237
20.9302557
24.33409631
28.47346751
20.06751238
2.655618701
-4.758876757
-11.17488522
)


100
(
-98.32047458
-133.3210911
-148.5726779
-156.0743777
-163.6492265
-166.8934805
-166.5047723
-165.0987655
-162.6273471
-158.1247689
-156.1168819
-151.3850367
-146.8517817
-143.0112987
-137.7423755
-132.6339026
-128.5816464
-123.8739252
-118.66091
-114.3086995
-110.5183066
-106.3532139
-101.8460192
-97.65266159
-94.26720985
-90.54023267
-86.44868078
-82.78069528
-79.49656425
-76.0652211
-72.37721861
-68.48968222
-65.62733325
-62.64116673
-59.56734161
-56.29983778
-54.11680015
-51.83471669
-49.43839669
-46.84461226
-45.07922562
-43.19927042
-41.44811256
-39.86618082
-38.49972592
-37.30851859
-36.10970121
-35.18613798
-34.13800695
-33.22966702
-32.34468477
-31.58358534
-30.44774004
-28.69665084
-26.63365736
-24.45403099
-22.47506417
-20.9165303
-19.56543988
-18.06587115
-16.64515733
-15.92514729
-15.82839281
-15.64204341
-15.25030133
-15.3431997
-15.25626724
-13.68662078
-11.28995213
-8.977915993
-6.821879961
-5.66087713
-5.75789868
-5.441195633
-5.548549376
-5.613874498
-2.120428798
1.594086123
5.981695283
7.911990012
7.10183684
7.60770181
11.67409121
17.24035471
19.7834222
20.96626115
24.69949761
29.69995213
39.41850032
42.41798865
38.46360528
39.24395535
40.81775207
42.91714143
45.67024637
47.15528293
43.19770037
26.61956218
11.03381959
-17.15483427
)


100
(
-93.13487495
-120.1846718
-132.7045069
-140.6952149
-147.7843272
-149.2169315
-151.2322008
-148.5051682
-148.2833366
-145.1916135
-142.4584557
-139.9840813
-135.5067368
-132.1454791
-128.65501
-124.1062607
-119.8083584
-116.3024678
-112.2401602
-107.6763977
-103.4732045
-100.0693024
-96.22715812
-92.07546112
-87.71497076
-84.68152619
-81.23963105
-77.41347949
-74.1529997
-71.17348054
-68.35191011
-64.59433955
-61.59894444
-59.22526065
-56.86250801
-54.03377397
-51.6105396
-49.94051798
-48.20295357
-46.28913163
-44.5473691
-43.25303284
-41.96480307
-40.7962359
-39.77071626
-38.72544776
-37.65794198
-36.52314437
-35.13114991
-33.13056444
-30.74504073
-28.37794823
-25.98170835
-23.78355506
-21.90041201
-20.2344579
-18.76691123
-17.42907111
-16.78093207
-16.64158413
-16.27243206
-15.68930976
-15.42093921
-14.59432228
-11.77799606
-8.271251072
-5.453316742
-2.626948502
-0.1940086069
0.5018298937
0.7570499427
1.538716485
2.014160036
5.160874589
10.47309779
14.80392759
19.39607876
21.14609342
21.14846974
21.95928003
27.14739132
32.51146213
35.57887155
36.55671357
37.95586433
39.88076923
41.80616342
41.30052893
43.7060563
40.74748127
35.2729344
34.34198381
32.6647146
30.43168841
29.00423443
24.57834272
33.02335353
35.9694728
30.43314461
-28.30408857
)


100
(
-87.77865243
-108.929532
-119.9363592
-127.8511281
-133.3017252
-135.8854584
-137.428575
-136.7341181
-135.4351018
-134.4354182
-131.1845423
-129.6772739
-127.0834287
-122.9224547
-120.2530015
-117.0170435
-112.8985418
-108.9675339
-105.6941756
-101.7818788
-97.49671287
-93.14304277
-90.01909688
-86.46298016
-82.69280563
-78.67872571
-75.71767034
-72.7235631
-69.3214055
-66.56609718
-64.14826226
-61.75825289
-58.53493343
-56.35042815
-54.57305203
-52.5888413
-50.53608488
-48.81756963
-47.72137345
-46.28601655
-45.09342409
-43.75278068
-42.67038873
-41.40485841
-40.17286734
-38.51223269
-36.13395755
-33.45061174
-30.52424575
-27.54509666
-24.84158149
-22.50788713
-20.57357438
-18.7801053
-17.27068938
-16.42259888
-16.05725785
-15.43556949
-14.70698853
-14.22391283
-13.12966832
-10.11080174
-6.069270025
-2.178009996
1.873995948
5.712493125
7.878708937
9.012503615
10.43089968
11.72410493
13.99232394
19.73141375
25.51206661
30.51082292
35.06936368
35.89080886
35.25620807
35.407711
38.53680178
41.4321011
42.36191282
40.48234071
37.5103378
37.2064172
36.36218325
35.55622665
29.9917985
29.77321929
23.23860202
16.90226746
12.29434123
9.127562772
4.610510456
0.3224683595
-5.240390058
-13.86095996
5.501639098
18.52953989
28.37894773
-45.3206568
)


100
(
-81.69840469
-100.2961132
-109.4356563
-115.881295
-120.0408169
-124.3040333
-124.7613125
-125.9423522
-124.3122296
-124.3529925
-122.907607
-119.9429132
-118.8308235
-116.1585594
-112.1640622
-109.7462779
-106.5508671
-102.598586
-98.40750556
-95.22848422
-91.57842687
-87.66875982
-83.30178234
-80.52019091
-77.37758237
-74.15217468
-70.8128153
-67.8923241
-65.44272706
-62.55715716
-60.38878848
-58.77122789
-56.55068995
-54.34325524
-52.81652935
-51.62957446
-50.02235511
-48.63839918
-47.33489212
-46.25694135
-44.79965956
-43.22435139
-40.96818532
-38.29032772
-35.48351915
-32.51529728
-29.54461789
-26.53718653
-23.59897851
-21.10784739
-18.6192357
-16.72180775
-15.59378157
-14.79937654
-13.78624468
-12.82944401
-11.83284661
-10.10725185
-6.517395026
-1.675980239
2.955548864
7.333767036
11.58478286
14.82171507
17.27658544
19.84639343
22.11313855
23.84469587
27.48583601
32.96486631
37.95527215
42.66973711
45.3745268
44.30737267
41.98664182
39.89324326
39.84973871
39.6184953
37.56963593
33.3980831
28.50103827
25.01858919
22.61574934
20.67252132
15.85660638
11.92737889
8.057071395
2.385433838
-3.22438226
-8.266640237
-12.52780581
-17.0398886
-22.83462161
-29.26746684
-37.79839822
-44.96549729
-24.75042473
-5.719608387
9.680842083
-67.8552406
)


100
(
-75.11846902
-91.62840819
-99.46250301
-104.6553217
-109.6760912
-113.4157966
-114.6540491
-115.7373755
-115.8087734
-114.7023383
-114.6977636
-112.9074257
-110.4816774
-109.0089855
-106.1728989
-102.036453
-99.53522857
-96.29288178
-92.4187839
-88.13194951
-85.22860316
-81.94853087
-78.51937843
-74.78631676
-72.04606052
-69.50320228
-66.91785741
-64.30046413
-61.62450441
-59.51210475
-57.31674536
-56.20950647
-54.70417854
-53.17239596
-51.57421851
-50.49007679
-49.23859792
-47.72926308
-45.92461392
-43.68581703
-41.03536882
-37.92330485
-34.49240455
-30.9720591
-27.12950329
-23.97129776
-21.09799208
-18.53375517
-16.40663925
-14.76227193
-13.03166468
-11.58289855
-10.13776762
-8.793398009
-6.935549814
-3.620631757
1.671666434
6.87094159
12.62084007
18.17948184
22.71237853
26.29423642
29.24066162
31.41851288
32.60815821
34.07661816
37.89656399
41.96011311
45.56767387
48.04575716
46.65086386
43.07083848
39.745885
34.9612862
32.00856027
29.25241295
25.10037534
20.01869711
14.73478324
10.26460524
7.230244291
4.453941012
0.178047336
-5.108481002
-8.812837899
-12.42424979
-15.10701334
-21.71730113
-27.71032842
-33.13864125
-38.12099146
-42.54085057
-48.78047865
-54.94117689
-63.87137149
-66.13095972
-46.35616104
-29.40571871
-9.016992815
-89.54266447
)


100
(
-69.57658883
-83.32779345
-89.98069486
-94.53303046
-100.2819624
-103.1831974
-105.8255414
-106.0438303
-107.4835242
-107.008755
-106.532117
-105.9344735
-103.74711
-101.4391371
-99.52829516
-96.43189547
-92.13794512
-89.58425867
-86.42948207
-82.87543504
-78.7025687
-76.18697923
-73.39666269
-70.56069775
-67.60441825
-65.01642727
-63.14768726
-61.22127657
-59.30783249
-57.3887005
-55.55272435
-53.69865522
-53.08807985
-51.79400018
-50.25595439
-48.25817081
-46.27188688
-43.71722867
-40.74259553
-37.2887524
-33.21810851
-29.30979708
-25.61309948
-21.92630521
-18.63430096
-15.68255324
-12.96268387
-10.80154656
-9.068796048
-7.454764162
-5.922231236
-3.783555736
-0.2174796223
4.587684118
10.17382426
16.2683083
22.09254403
27.77974538
32.67263023
36.2752822
38.9713093
40.03038279
40.24848233
41.00650772
42.71236652
44.33412331
45.40805933
43.99550416
40.54464426
37.48132557
31.232306
24.15687362
19.43300141
14.75193655
9.746120601
4.744960136
0.1516833231
-4.449116157
-8.12942899
-11.40458551
-15.13996185
-19.21100389
-23.44059023
-27.86242815
-31.28720944
-34.47200051
-36.58373993
-41.87839725
-47.19641557
-50.96216359
-54.44148238
-59.70749054
-65.48611101
-72.23825175
-81.31155473
-78.76630898
-61.01267112
-46.29983343
-26.75605236
-111.0497992
)


100
(
-65.54938708
-75.34820045
-81.13530845
-86.61454176
-91.45263544
-94.46808979
-97.3723477
-98.54169704
-99.36630859
-100.0818403
-99.03964717
-98.79853679
-97.57101197
-94.88135315
-92.46609364
-90.23918864
-87.06835096
-82.86374022
-80.31017751
-77.50080275
-74.39066735
-70.88408215
-68.47830931
-66.29428122
-64.08120821
-61.86287474
-59.59447092
-58.19080731
-56.7988211
-55.39615442
-53.92348601
-52.01495508
-50.34360976
-48.78544367
-46.40010838
-43.50575509
-40.04513157
-35.72505132
-32.10963753
-28.1685459
-24.24054904
-20.2160954
-16.15448174
-12.94070455
-10.07479161
-7.541450779
-5.304291772
-3.111670149
-0.2698131709
2.859262554
6.7522179
11.8161808
17.74597587
24.15696884
31.23494823
36.23246225
40.47244449
43.33234174
44.29014027
43.84094308
42.85278851
41.83847969
41.29747734
40.47385072
38.40273211
34.92363521
31.62818873
26.44927093
18.79389521
11.34206375
5.267858207
-0.04755640791
-4.443125408
-8.638898707
-13.27113087
-18.18797749
-22.56912353
-26.43657905
-29.73305785
-32.64633832
-35.51196666
-39.32976511
-43.23873718
-46.83201076
-49.5317355
-51.84809161
-53.39408172
-56.7389345
-59.74750573
-62.46136097
-65.65678047
-69.59124474
-74.51471351
-80.74572643
-89.83420101
-84.29849535
-71.36141323
-56.44526186
-40.64803752
-134.2808951
)


100
(
-61.32865412
-68.60586662
-74.12341797
-79.06317249
-83.1572281
-87.06179678
-89.26680993
-91.50981019
-91.87210502
-93.13676821
-93.0890623
-91.46634365
-91.06457182
-89.27338623
-86.23794082
-83.77901431
-81.46106373
-78.46570496
-74.62015659
-72.16600949
-69.84486991
-67.27148235
-64.47810823
-62.22174354
-60.64289396
-58.99535345
-57.32605495
-55.59618989
-53.99719203
-52.76657571
-51.21615243
-49.2465003
-46.64798138
-43.07162083
-39.80490278
-36.10272415
-31.97843427
-27.56528719
-22.51613039
-18.0336991
-14.42489301
-11.04919752
-7.702868229
-4.588887589
-1.344828621
1.370068696
4.243474798
7.672744814
12.07862743
17.65809417
24.69030389
30.89052609
36.45991615
41.26266528
44.98639207
46.77904286
46.90568426
45.40612255
42.63104477
39.0405542
35.7552072
32.41134912
28.90867552
25.53361321
20.97756365
13.93621443
6.169487689
-0.9212626943
-7.347329675
-13.15426935
-18.25621131
-22.95862103
-27.30799287
-31.34227225
-35.44250464
-39.77916363
-43.00577751
-45.56692512
-47.57544247
-49.48691496
-52.84596289
-55.97659304
-58.14905281
-59.92457178
-62.32598544
-63.9173876
-63.74729779
-64.94875037
-66.54618972
-68.37916541
-70.78540844
-73.04766919
-77.93330732
-83.62618799
-91.51928199
-85.53287325
-76.14850822
-62.85026186
-48.62905644
-157.4582331
)


100
(
-56.78883047
-62.86165439
-67.64603754
-71.97978735
-76.01025904
-79.94860483
-82.26120838
-84.60779977
-85.90450828
-86.09992135
-86.90969721
-86.08964836
-84.26489953
-83.30740357
-81.2182995
-78.04926674
-75.66447755
-73.50307409
-70.82520316
-67.57134924
-65.26015413
-63.47841737
-61.45190069
-59.32707791
-57.16995947
-56.03744076
-54.69013136
-53.22078378
-51.47084176
-49.14475044
-46.91743585
-44.29648167
-41.0049714
-36.96253281
-32.08104089
-26.77292162
-22.5007655
-18.11697343
-13.85530117
-9.329832334
-4.864418378
-1.302834679
1.54039957
4.683180332
7.938578043
11.77579611
16.80216979
22.34850833
28.0663374
34.02837376
39.50296029
44.40265515
47.72088588
48.4989744
47.77685537
44.81861726
39.84686614
34.16254764
28.86928337
24.22387408
19.81964213
14.91373197
8.531313069
1.785332258
-4.05286222
-11.13792847
-18.7040002
-25.45790289
-31.21591108
-36.08909807
-40.24179008
-43.84633142
-47.37175612
-51.32839708
-55.33918129
-58.94142628
-61.0749963
-61.7961621
-62.41917844
-64.03640563
-65.71737554
-67.59342076
-68.35406371
-70.00280167
-70.23488127
-68.89927016
-68.62591532
-68.80778743
-68.96492736
-69.89990933
-71.2928371
-69.92479924
-76.19988682
-81.10396153
-87.88003941
-83.54244954
-76.662236
-64.97999595
-52.65675759
-183.1642997
)


100
(
-52.19410117
-57.37239651
-61.57079009
-65.32199187
-69.79012448
-73.11615971
-76.13506742
-77.77247449
-79.83748515
-80.35665093
-80.45666741
-80.41890457
-79.01137089
-77.03035054
-75.76324427
-73.63466313
-70.60715769
-68.34963105
-66.51634489
-64.26391529
-61.66831638
-59.48297809
-58.21333934
-56.66598805
-54.97576029
-53.11605205
-51.5448305
-49.99776664
-47.94242716
-45.22098964
-41.69663341
-37.10019578
-33.17854041
-28.71454679
-23.94484812
-18.6631629
-12.79871317
-8.086669587
-4.159088479
-0.3581075896
3.632459551
7.587710434
11.93740775
15.71481559
20.00400135
24.80270229
30.17436895
35.79610291
42.15220983
45.71522366
48.00378095
48.44204113
46.65673991
42.48381158
36.71064999
30.39707778
23.50534191
16.62051027
10.06345158
3.444422144
-2.456846162
-7.996931814
-14.60533946
-22.0309658
-29.21590187
-36.13864406
-42.31118091
-47.58169007
-52.04550677
-55.69479062
-58.56421138
-61.34525424
-65.24520312
-69.271419
-71.94060809
-73.41817582
-74.11149027
-74.70767673
-75.30665081
-75.95728185
-75.55303934
-74.95305261
-75.25981242
-75.02392503
-74.28604889
-72.05397616
-70.93112462
-70.04438381
-69.1710714
-68.65014187
-69.02036247
-66.04873423
-70.28604746
-74.83134037
-81.41114875
-78.35993548
-74.26887647
-64.2527755
-53.20691633
-206.2700483
)


100
(
-48.62506962
-52.19350957
-55.85049696
-59.6648276
-63.84291427
-66.8665652
-70.11621491
-72.08381288
-73.68908252
-74.89095409
-74.59040013
-74.46574142
-73.80913973
-71.9898078
-70.01621329
-68.68222742
-66.72461996
-64.03225225
-61.9167995
-60.4953891
-58.71560637
-56.72505373
-54.58065723
-53.6202611
-52.2429524
-50.58668392
-48.47623777
-45.56727534
-42.95050138
-39.56555419
-35.46572395
-30.62735101
-24.63566539
-19.16624111
-14.46423355
-9.75831697
-4.665745785
0.6076859603
5.918448369
9.787720807
13.43203261
17.46682424
21.87560983
26.85594597
32.74271386
37.85378705
42.02149277
45.24888946
47.23331487
47.3725208
45.04962252
40.76376097
34.74773181
26.77541832
18.07508066
9.693893627
1.721425244
-5.353019946
-12.09718797
-18.97720952
-25.98425718
-32.56162493
-38.71315435
-45.25493644
-52.04732702
-58.28488472
-63.43633405
-67.1544642
-69.6219901
-71.53646627
-73.71512802
-76.65814353
-80.02886184
-82.85884843
-84.41019684
-84.61651682
-84.8837367
-85.70548539
-84.61416481
-82.39403977
-80.76658015
-80.26842789
-80.4127197
-77.61910291
-74.65769116
-72.5188685
-70.84300136
-69.03770767
-67.10164534
-65.65770908
-64.9089718
-68.42664207
-66.23020422
-70.05507724
-75.03858416
-72.439413
-69.01004265
-61.29254677
-51.21577657
-227.0623694
)


100
(
-45.63383842
-47.36490396
-50.69277063
-54.50823216
-58.18465211
-61.56572186
-64.21354108
-66.69323994
-67.81524471
-69.26500212
-69.59981719
-68.51594005
-68.31510209
-67.30765324
-65.31922694
-63.46728843
-62.25468661
-60.54466594
-58.34022546
-56.3369892
-55.34026698
-53.97413948
-52.34709176
-50.4281008
-48.84805753
-47.13166503
-44.7543025
-41.49304798
-37.2631318
-32.25334473
-27.68176292
-22.62221316
-17.21669039
-10.97773644
-4.348203792
0.2630143847
4.599393396
9.317064804
14.15788739
19.0196983
24.22520875
28.44062835
32.79097711
37.10255903
41.16985429
44.91135009
47.3011404
46.4355657
43.90530999
39.17426139
32.17851275
23.42515956
13.91363401
4.75768183
-4.255744301
-12.93546994
-21.26944997
-29.05040843
-35.76958261
-42.01794568
-48.41021966
-54.80411991
-61.09440998
-67.23118133
-72.52774898
-76.94191047
-80.35718088
-82.58798306
-83.91965054
-85.26870369
-87.62650349
-90.17988392
-91.52901992
-91.74524164
-91.71555135
-91.82834042
-92.32679728
-92.36078219
-90.51413121
-87.03990575
-84.9098636
-82.78791665
-80.5806031
-77.26805639
-74.22200452
-71.67939686
-68.94726535
-66.27293185
-63.66103845
-61.37530344
-59.53550276
-59.79942373
-59.92312651
-62.60583575
-67.56962606
-66.97615809
-63.57867402
-56.13731257
-47.20453193
-246.3523393
)


100
(
-42.48310788
-43.37235128
-46.29171885
-49.66181815
-52.92106363
-56.4294821
-58.87264706
-61.35214558
-62.92933202
-63.51238507
-64.41080329
-64.07881462
-62.62487056
-62.28840339
-61.18912396
-59.2660224
-57.54524855
-56.57040792
-55.17659502
-53.45907493
-51.49058189
-50.753538
-49.50763445
-47.86447534
-45.6218871
-42.57950863
-39.75597737
-36.04322776
-31.45263024
-26.0493859
-19.00600358
-13.66800923
-8.369501702
-3.058038861
3.049427626
9.183619139
14.90229071
18.78439322
23.27012676
27.77775331
32.4501699
36.96350844
41.84223918
44.17829599
45.39988609
44.90412145
42.73436006
37.95096816
30.82582308
22.55480479
12.66471692
1.881231959
-8.622194902
-18.79648762
-28.17532206
-36.51736785
-44.25414954
-51.43400925
-57.898497
-63.72623185
-69.53231684
-75.4315753
-81.42127559
-86.79680366
-90.79927439
-93.06305317
-93.99489739
-94.67771153
-95.71214774
-96.88570643
-98.06114223
-98.72605631
-98.41448355
-97.47373538
-97.44591756
-98.37701345
-97.70394923
-94.95682358
-91.61485178
-88.9734714
-86.94516988
-84.11589824
-79.7082545
-75.69712416
-72.66595341
-69.56768133
-66.33508308
-63.02905771
-59.64323397
-56.71940958
-54.02179593
-53.0884673
-53.07324818
-56.36709136
-61.79078107
-61.36444143
-58.23464973
-50.89747449
-42.74138557
-257.7560884
)


100
(
-39.23798875
-39.69140599
-42.17573927
-45.12830466
-48.4749271
-51.51385562
-54.20937274
-56.06180218
-58.01781892
-58.82657589
-59.06744396
-59.3284287
-58.60417607
-57.09860124
-56.64517504
-55.62308966
-53.90995933
-52.29165842
-51.60443138
-50.48754076
-49.04181962
-47.34413766
-46.08057427
-44.52528453
-42.21381589
-38.88299108
-34.44332237
-29.41842522
-24.56233554
-19.09886391
-12.99630689
-5.773734417
1.020356274
6.111654011
11.18931611
16.82337316
22.361856
27.77704596
32.3185726
36.2228516
39.58475088
42.28006099
43.90767907
44.5511663
42.41337229
37.98870893
31.67439749
23.18156953
12.83090136
1.285615658
-10.41814898
-21.35345567
-31.76274441
-41.55658912
-50.80530171
-58.87766415
-65.90072212
-72.0818676
-77.71848874
-83.30121262
-89.07925233
-94.49835222
-98.77835153
-101.8050924
-103.8752725
-104.6927782
-105.0230794
-105.5135745
-106.7896829
-107.6299775
-106.7619878
-104.536282
-102.276088
-100.8989694
-100.5640696
-100.8215831
-99.8505496
-96.50208006
-93.41237958
-90.50227645
-86.06146616
-82.0033967
-77.49853195
-73.71515016
-69.84574876
-66.09146744
-62.69651491
-59.3046653
-55.56179922
-51.87380208
-48.95414586
-47.42399725
-47.71990721
-51.02990237
-55.14130555
-55.18145311
-52.70904713
-45.86783633
-38.68281579
-257.6395243
)


100
(
-36.1155275
-36.25646049
-38.35182676
-41.01410147
-44.24586102
-46.85234583
-49.68519493
-51.57157144
-53.10512008
-54.29426438
-54.41974839
-54.43802207
-54.31729537
-53.36824718
-51.94776025
-51.51764618
-50.61582561
-49.22234367
-47.62374835
-47.08907133
-46.13745164
-44.78796472
-42.8552816
-40.36939587
-37.85288267
-34.36026644
-29.79265558
-24.08879103
-16.91156641
-11.45577864
-5.6519031
0.5419632692
7.553784777
14.56502188
20.19729084
24.76513898
29.61983366
34.15437413
38.22306888
41.75544086
43.85748304
43.80807679
41.98815403
38.33474608
32.62917818
24.58119251
15.06900865
4.364435356
-7.700278708
-20.16377505
-32.35734478
-44.10143169
-54.3280296
-63.42551417
-71.62743517
-78.50891792
-84.41508319
-90.00096089
-95.57088216
-100.9987861
-106.408412
-111.053836
-114.0251528
-115.0146143
-114.6689439
-114.4145226
-114.6062533
-114.8993504
-114.3467032
-113.4844354
-111.4608225
-108.6533718
-106.3557779
-105.2352002
-103.8426747
-101.4552494
-98.71348722
-95.54673024
-93.12731151
-90.48326641
-85.34065689
-80.09944975
-75.50911689
-71.54165723
-67.68133887
-63.61255244
-59.59989692
-55.06888226
-50.85287249
-46.83243302
-43.94178573
-41.74670972
-41.91412733
-44.98915618
-49.37800728
-49.31790225
-47.04606392
-41.42884954
-34.66558567
-248.4564339
)


100
(
-34.02030907
-33.07021404
-34.82316901
-37.4273633
-40.2769616
-42.93020347
-45.3115434
-47.37878071
-48.54499709
-49.75263277
-50.30487856
-49.90531896
-49.87192249
-49.57908248
-48.58525872
-47.24373058
-46.91746083
-46.18533668
-45.05328359
-43.62835211
-42.79342756
-41.66474715
-39.85341048
-37.07834081
-33.1555075
-28.94928398
-24.31939484
-18.85626222
-12.3609725
-4.597719476
2.216109615
7.910763475
13.88719442
20.3483336
26.52252335
32.27334276
36.2412422
39.44004906
41.58481254
42.62369549
42.32624584
40.08960952
34.93741037
27.92808156
19.00459268
8.434428961
-3.552675803
-16.47028282
-29.07612744
-41.48954321
-53.57786543
-64.69415342
-74.50818129
-82.57438065
-89.71897188
-95.45981559
-100.7210681
-106.2275894
-111.8952766
-116.8641254
-120.4551815
-122.6029678
-123.8297161
-123.7327224
-123.3119702
-123.0313782
-123.6152819
-123.5432745
-121.6231112
-118.2450398
-114.6911956
-111.7690936
-108.7760122
-106.7000506
-104.3420813
-101.2374995
-98.36340326
-95.93034163
-91.8203422
-86.75867241
-82.03644163
-77.22473142
-72.82670571
-68.31832804
-63.51864188
-59.51990594
-55.61768122
-51.47879467
-46.83026801
-42.71103659
-39.4256206
-37.67338649
-37.6149013
-41.40806926
-44.38183419
-44.09650453
-41.74322109
-37.14313661
-28.8944349
-234.3345337
)


100
(
-31.75815085
-30.28003346
-31.79329991
-34.07990493
-36.55886605
-39.18279108
-41.26107186
-43.30414905
-44.66213526
-45.2383699
-46.12456625
-46.25122321
-45.57606335
-45.52608053
-45.2019395
-44.27621694
-43.01542386
-42.75482377
-42.13655764
-41.12598322
-39.66674364
-38.01105875
-36.2193852
-33.45622391
-29.58256121
-24.41404706
-18.21053374
-12.87846814
-6.942821799
-0.1726643593
7.520133013
15.28627054
20.90178327
26.18372724
31.43025926
36.06860096
39.69791415
42.40686047
42.33536205
40.58768826
36.86120904
31.42562987
23.78996952
13.95967659
3.087245966
-9.134669808
-22.47466292
-35.87680672
-49.01539671
-61.81687393
-73.2122124
-83.40855061
-92.12259971
-98.79155845
-104.0542029
-109.5826702
-114.7185543
-120.2329684
-125.7636492
-130.2434787
-132.7114358
-133.0500898
-132.083711
-131.2484761
-130.7177865
-130.3048328
-129.0339113
-127.4918136
-124.6407468
-121.0480496
-117.7144133
-115.2377327
-112.5002291
-108.2075339
-103.5514448