/*--------------------------------*- C++ -*----------------------------------*\
| =========                 |                                                 |
| \\      /  F ield         | OpenFOAM: The Open Source CFD Toolbox           |
|  \\    /   O peration     | Version:  2.3.1                                 |
|   \\  /    A nd           | Web:      www.OpenFOAM.org                      |
|    \\/     M anipulation  |                                                 |
\*---------------------------------------------------------------------------*/
FoamFile
{
    version     2.0;
    format      ascii;
    class       dictionary;
    location    "constant";
    object      la_r19;
}
// * * * * * * * * * * * * * * * * * * * * * * * * * * * * * * * * * * * * * //

la_r19_table
100
(

100
(
73.02803777
115.7995185
130.55727
136.037799
130.1148426
133.9895651
127.9537363
124.5195507
116.8924141
114.3018642
104.4694146
104.5350231
99.85312386
93.43651027
91.5206753
87.15677082
81.20985397
78.88887257
75.29090851
70.57122607
67.59165795
64.8002983
61.41540041
58.10583876
56.04705834
53.69058254
51.0655846
48.6150765
46.55337378
44.36537804
42.07691421
40.17730698
38.52790047
36.86410669
35.19450564
33.54182326
31.93364442
30.35946369
28.82415093
27.33192402
25.89122587
24.51297927
23.19852553
21.94256892
20.74169849
19.61760135
18.57236212
17.59604163
16.47361297
15.4367949
14.48153949
13.57792815
12.63013732
11.76322152
10.97611619
10.21776467
9.471322965
8.799297942
8.19118337
7.586294778
6.956159084
6.381392755
5.866913827
5.3608541
4.85372246
4.400467823
4.003435916
3.576873827
3.181372548
2.833698223
2.518113948
2.219621694
1.961810986
1.733188639
1.496321647
1.29030626
1.107691504
0.943085361
0.7958329941
0.6673707108
0.5529961892
0.449818
0.3658450339
0.2878392916
0.2259814946
0.1697117475
0.126018214
0.0884724101
0.06038438197
0.04054478356
0.02687301921
0.01710740882
0.009843377572
0.005171708067
0.002229209812
0.0005922713483
-0.0004989117568
-0.000368682171
-1.436322599e-05
-1.958612839e-16
)


100
(
75.6085376
107.9585299
110.9848529
107.9663065
103.9325781
105.6782545
94.84204495
97.81864194
89.07748598
89.41796412
84.19605526
80.08103591
78.97339652
73.86368094
70.46805822
68.88293844
64.91979142
60.18119706
59.35859192
56.07440158
52.03666689
49.93992741
47.77033214
44.82029388
41.41857785
40.04968568
37.62319006
35.13459022
32.23566574
30.95599966
28.83514081
26.68885004
24.50419177
23.18188857
21.47019604
19.80870102
18.05364742
16.69322146
15.52418178
14.14563832
12.7888953
11.58406585
10.67220493
9.612983997
8.634502846
7.724132903
7.049645287
6.323901207
5.647928038
5.028235018
4.538911137
4.080871984
3.592090773
3.170581152
2.816422548
2.539052195
2.285034288
2.104540615
1.908914542
1.281370959
0.0257138801
0.1527566399
0.9549713891
0.5819861774
-0.3832303967
-0.2174198452
0.3821526995
-0.1855654208
-0.6074878269
-0.2529098634
-0.06005533582
-0.5117698902
-0.4463541171
-0.02400775252
-0.6586701095
-1.013665209
-0.158921126
-0.5457217969
-0.8502248402
-0.1130536931
-0.6070426838
-0.3917363895
-0.2036279457
-0.635729725
-0.0975313168
-0.3143741292
-0.3859701276
-0.07904160316
-0.3678938328
-0.07682978333
-0.1773250787
-0.04908114262
-0.175206649
-0.09005686914
-0.1910029968
-0.05310335609
-0.04641104454
-0.05164061106
-0.04001390795
-0.01373697634
)


100
(
75.53691734
97.19429302
92.67374371
84.69886004
87.76150401
84.9564969
81.98174249
79.42167417
77.56493209
73.64138257
73.37390855
69.76802504
68.62050814
66.65118735
63.34721456
61.6447796
59.88827082
57.14809993
54.30334224
52.88693446
50.38390675
47.74095449
45.50745546
43.55333819
41.18354426
38.7838702
36.76408022
34.76407729
32.66476353
30.59917124
28.74568358
27.03152006
25.24100162
23.54264477
21.9905831
20.599291
19.20959043
17.91157247
16.69056714
15.60200202
14.53503972
13.4505604
12.46555107
11.50978038
10.75662765
9.987000642
9.2930171
8.635583746
8.108029112
7.629648668
7.113633074
6.587173086
5.850553054
5.310772669
4.634490891
4.146546425
3.561112557
3.310253982
2.906775614
2.624084705
1.67165808
0.3874811776
0.2069514163
0.7722438141
0.8969719363
0.3105424423
0.2876689735
0.4950025637
0.4102155509
0.3359517579
0.559383475
0.7843382162
0.7831752081
0.9792517044
1.166361702
0.5224726487
-0.6074996009
-0.122158659
0.4042705542
0.2433549809
0.4435133664
-0.02328279497
0.7480526636
-0.22786109
0.1165240003
0.6208796793
0.2863495249
0.6766689368
0.9422038517
0.8776432983
0.9285673781
1.1144262
1.233824587
0.8806325849
1.437526221
1.680044555
1.810402138
0.7870044437
0.04784987588
0.9246004099
)


100
(
72.7180759
86.87665463
75.99194054
74.58620584
73.86277566
70.11044899
71.76536033
68.55379682
70.16841735
68.36247427
67.97836112
66.9042516
64.66102114
64.15939135
62.51016462
60.40454147
59.04443986
57.4098625
55.44397911
53.1725998
51.63925533
49.62845905
47.55766853
45.47627051
43.75687684
41.80591691
39.80021544
37.799048
36.04478976
34.28411557
32.62530458
30.89194304
29.38819137
27.81473397
26.2695758
24.77563302
23.48780628
22.418891
21.31466541
20.26894535
19.20963149
18.13236218
17.00247875
15.5655865
14.39612761
13.03769633
12.25105777
11.04409449
10.33810411
9.264903677
8.824977406
7.807775886
7.243098583
6.555376227
6.23221695
5.595618732
5.315593392
4.896056356
4.751141553
4.532633268
4.46776642
4.192447998
3.573045801
3.417066101
3.723519651
3.966421453
3.925524145
4.036210616
4.263510406
4.118405573
3.855615268
3.493944856
3.134494454
2.867419927
3.382635946
3.134523035
1.554637452
2.784173963
3.998841963
2.02680192
2.663117394
3.637575513
2.988557653
3.800934834
4.535061182
4.781000001
4.903856484
5.068956864
5.750831594
5.972460849
6.266117935
6.76151591
7.076529528
8.288649554
8.977329213
10.02745734
10.74568472
4.818918278
1.558677544
7.602587885
)


100
(
66.99222523
83.71042752
69.89172622
64.58406724
63.57452855
64.02927886
64.7442829
65.11872749
65.44171202
66.33978998
65.33068574
65.81756347
64.96299184
63.58712347
62.98254533
61.75332305
60.14412254
58.99190074
57.6852989
56.17456351
54.31279283
52.98278534
51.44653291
49.88395112
48.08277436
46.71854949
45.1487476
43.42468134
41.37862291
39.70101292
38.20580056
36.70634293
35.15576304
33.25336152
31.8925741
29.89079299
28.227038
26.06031624
24.97486295
23.17914974
21.52466277
20.30256805
18.9873274
18.06552118
16.72362159
16.13666074
14.83940674
14.60593508
13.56760044
13.19264267
12.55297665
12.26708306
11.52992056
11.23248481
11.04101412
10.79829383
10.57680339
10.45005363
10.63704266
10.6513316
10.82615299
11.06377914
11.1211397
10.70718292
10.13729631
9.493081606
9.119366797
9.028727797
8.868906109
8.539914693
8.679957392
9.296734105
9.489383741
8.127657162
6.494256754
8.208715823
9.901319467
8.912880708
9.343700265
10.59738754
11.78352654
12.65205826
12.2890828
12.27588103
13.09263275
14.04102538
15.72984658
16.52467431
17.19763089
16.40363162
18.62041618
20.31914843
20.76406245
22.9208478
24.93396135
27.99463573
25.78389137
13.28430622
6.209409797
31.94352653
)


100
(
58.44756423
77.26320727
62.96093991
56.68755789
55.71358814
58.88225488
59.6956989
62.38366073
63.08344728
65.0876531
65.65527626
65.34613055
65.7318074
65.11416275
64.20322224
63.78565016
62.98566369
61.81193215
61.0196046
60.16472439
59.08224537
57.5500624
56.38353496
55.3201373
54.02023792
52.22977463
50.54632662
48.96167987
46.88709812
44.65605561
42.12187914
40.48120606
38.28218964
36.69587438
34.005504
33.06622746
30.8722297
30.15076209
27.60914631
27.402974
25.50474429
24.50010427
23.50215587
22.90976033
22.03525858
21.51968284
21.35464996
20.910878
21.01957742
20.4736074
20.5672091
20.6835863
20.69023693
20.47665675
20.66164443
20.88671767
21.26055922
21.03288493
20.54083073
19.81292336
19.2648386
18.9350732
18.59725088
18.1669117
18.26701131
18.56554062
18.64263328
18.67569848
19.18184084
20.09277009
20.64022238
20.57235376
20.14389274
20.04326144
20.22592767
19.48521018
21.37607648
23.42995555
24.97564601
24.93551921
24.48946242
25.13919776
27.25121539
29.15105298
30.48322029
30.93868437
33.25015239
35.50586014
33.50207787
36.60007265
39.15396471
38.24975722
41.59945776
43.98378535
48.26114581
53.80044907
45.31201322
25.90829821
14.49487056
94.51026857
)


100
(
55.25212788
70.07778148
56.37071391
50.0876769
52.03745015
54.77218805
57.3990438
60.27459293
62.57106091
63.92366308
66.01321733
66.46502461
66.8001045
67.25618958
66.89528614
66.43799329
66.4473495
66.07649497
65.18700031
64.51899705
64.01959871
63.00750569
61.39646729
59.78096539
59.01453351
57.35911795
54.59086389
52.02777345
49.82072992
47.65694951
45.77488313
43.19185675
42.01501268
40.01409559
38.75344683
36.58881845
36.12363123
34.81111289
34.39271199
33.05191577
33.18058944
32.01365799
31.60800113
31.54111724
31.25889858
31.43675768
31.19302875
32.41290699
32.33254471
33.28838469
33.24365709
34.16871377
34.47961956
34.11527125
33.49611045
32.61223808
32.04246691
31.81973314
31.70964731
31.37932849
31.01079944
31.32951565
32.38626051
33.01866531
33.79316817
34.57881311
35.4818726
35.94028926
35.65658211
35.56466403
35.37243032
35.99935737
37.34260634
38.57386189
40.06003345
41.60947249
42.06084196
42.24129881
42.21127187
43.57519819
46.71162148
49.6260238
50.76528638
51.20038234
53.39059434
56.42691325
58.04096988
60.20424102
59.67345322
60.88091084
66.87286956
72.30134959
77.16148133
84.14013521
92.68698949
102.6146424
74.10405225
42.38822277
26.26401378
229.877248
)


100
(
55.27968154
61.78707989
49.68328569
45.84129307
48.32186747
51.18534852
55.48773298
58.18726096
61.97597016
64.12548332
66.30236614
68.18163215
68.64857301
69.61432145
70.27451228
70.10703253
69.90853386
70.19684654
69.84117117
68.67597918
67.49875116
67.10781934
65.6049329
63.65312553
61.15717645
61.02750711
59.32282415
55.93138938
53.09933429
50.64243385
49.97845054
47.88554608
47.00425253
46.09075532
45.3479354
44.27999896
43.40984669
43.40543356
43.13257885
43.29521673
43.33923208
43.90045141
43.83008442
44.30208713
45.20788199
45.96161456
46.72038801
47.49476346
48.5697468
48.71059123
48.49627369
48.19195257
47.53186374
47.26397777
47.47319847
47.47224921
47.86847056
47.80759623
48.61202362
50.17454572
51.14915269
52.33189557
53.45990683
54.6849224
54.95699852
54.99191165
55.47643445
55.82780479
56.50617713
58.33120298
60.54014132
62.63551974
64.59968813
65.3491887
65.12375928
65.55302906
66.40106392
68.98248863
72.88788919
76.6899741
78.10951092
79.57313526
82.68859932
87.24991665
91.54522069
95.21929651
98.99836017
104.8814309
109.5997431
116.9156702
125.4456945
133.0417302
145.0126697
159.9897696
176.1412893
190.019656
131.9106339
76.06600887
44.95102135
480.6321498
)


100
(
53.26592516
54.97255586
44.81024153
42.45642943
45.08596075
48.95541184
53.60209597
57.46601881
61.1729453
64.72937493
66.75439196
69.72798165
71.55033451
71.88346839
73.31897874
73.93884829
73.51359121
73.29426055
73.48521484
72.29829602
70.60119196
68.51360813
68.555522
66.96559634
65.26068612
63.25304979
63.53682718
62.69033043
59.25224707
56.50686104
54.89348233
55.50859742
54.3412449
54.72779597
54.76266343
54.65173248
54.98967586
54.92366747
56.38345378
56.4589748
58.49695037
59.24351976
61.04264246
61.68962503
63.19809155
64.30920701
64.56784359
64.72350198
64.36162091
63.93199772
64.11949034
64.75043592
65.63980272
66.19972528
66.98452619
68.44491657
70.8545474
72.46585899
74.33041236
76.18189621
77.84516051
78.72527187
79.14721426
79.83568546
80.31031746
80.97294043
83.25767093
86.44545255
89.44741761
92.57416173
94.62324202
95.25660746
95.83066817
97.19139416
98.9429495
103.1872163
108.7420409
113.9763063
116.9109925
120.0505493
124.9694739
132.417445
141.3862086
147.6353907
155.2781663
162.7619173
173.6120905
178.2986334
195.346999
211.9124827
225.3541751
242.0712466
259.9200877
285.0836995
321.5531718
321.7555583
223.230491
140.2231501
83.38742836
884.7008523
)


100
(
49.22215095
50.92013768
41.21126277
39.04479273
41.8659038
46.99004214
51.46628763
56.64655708
60.40548893
65.11258519
68.46186687
70.38481778
73.73644649
75.30873479
74.95706676
76.48596902
76.60391916
75.754696
74.04259533
74.24115881
72.96832503
71.67086314
69.34626859
70.35422806
69.39752138
68.60015067
68.15510556
68.52544217
68.88502675
65.65116682
63.18114923
63.89731153
64.85598627
65.97563661
67.22950776
68.8215357
69.50507996
71.57209834
72.94737669
75.28194992
76.59654338
79.12679978
80.19850385
81.10791398
81.6637021
81.7209123
82.10647799
82.94312058
83.72480068
85.12391128
85.62836728
87.17880769
89.87794985
93.08204241
95.44602884
98.48434756
101.0837219
103.7239513
105.242159
106.1961767
107.4728634
108.8013768
110.2581315
113.1017025
116.9280405
120.3980155
124.0302005
127.7188854
130.4608239
132.1976725
134.6620245
137.5404927
141.7439662
149.0597021
157.2446535
165.3212156
171.0704025
177.072793
185.4185638
196.4847868
209.0297125
219.8465966
231.0881896
242.4875462
256.995429
269.7910799
283.1824113
303.2317861
323.894598
343.5620288
366.454105
388.7692213
424.8371798
464.658363
521.0285344
489.1417124
348.3863024
233.0349548
147.2597868
1456.880266
)


100
(
43.28231379
45.94663501
37.39615962
35.80985927
39.61751705
44.9158876
50.00033171
55.66834315
60.64175391
64.79308734
69.58623615
72.4232406
74.1874181
77.09927589
77.99979558
76.28926908
77.62985397
77.16808687
75.90205631
73.8626825
74.93553309
74.28871685
73.98287437
73.16434009
74.36603731
74.84804973
75.20488556
76.40289443
76.97044565
77.40240639
76.61292132
77.5375286
77.39856811
80.69627165
83.13770802
86.34676802
88.67141973
91.14235194
93.7469077
95.64521969
97.32489183
98.24924719
98.76996227
99.96383535
100.6616422
102.6183569
103.964864
105.7190797
108.3616426
112.4652041
115.5182446
119.2610297
122.395297
126.4782761
130.3953665
133.9931478
135.7766828
138.5955425
139.8377001
141.9387826
145.7672749
150.3870748
155.1072116
160.3442667
165.8914496
170.8873132
174.0561441
177.274796
181.227849
186.340043
195.646488
206.529921
218.1264701
229.238235
239.096283
248.9453175
262.6068473
278.2496628
294.9860407
310.5430089
324.5126931
339.6506068
359.19212
382.7435493
397.5578014
420.9565478
441.0505242
471.2321282
499.4171697
533.539707
566.821549
606.8607534
649.904023
707.0123508
777.5583205
693.9446504
501.0014438
356.0804526
235.0672067
2180.421538
)


100
(
39.69327307
40.85214535
33.53529005
32.64183322
37.36451984
42.66729972
48.77331428
54.12299446
60.48011825
65.10566591
69.629753
73.62127369
75.20265384
76.42971818
78.53582804
78.53952871
75.74760226
77.33932735
77.09968089
76.89179428
75.21716038
77.51955411
78.02573457
79.08866476
80.32793996
81.7447295
84.09622838
85.85817091
88.43864252
91.05511862
93.02579069
90.92603928
94.40283079
99.07106622
103.0809753
106.2448801
109.9784051
112.2471891
114.1998811
115.818343
116.9216723
118.8276115
120.6410006
121.9139739
124.5676094
128.538009
132.4749875
136.6491291
141.2251542
145.9854624
151.9025649
157.4284009
161.5008954
165.3851509
168.4251265
170.7687433
174.9556349
180.2010771
185.8178977
192.274449
198.4522005
206.2707284
214.2158865
220.5710611
225.9440037
231.1023527
237.0037309
247.5364777
259.4317581
274.0217397
289.2040915
306.3302424
319.5817314
335.1050104
353.6642602
373.2433096
392.97966
414.2451818
433.2734368
453.838169
479.4313446
507.6259244
532.4941849
560.0723529
586.119275
620.3499771
641.1785402
682.7075935
727.8210448
770.0468882
822.9594584
874.0558983
935.8974958
1026.218865
1084.731262
932.8943977
684.3211503
509.7363416
358.2985516
3088.777823
)


100
(
39.39705827
35.6759321
29.68152108
30.43984099
35.03221849
40.62583521
47.33353932
53.38823487
59.6278049
65.44787965
68.87212168
73.39766048
75.97667535
75.79416377
76.54497259
78.10580196
78.03768307
75.46704649
77.71715235
78.86987206
80.06542266
80.16158954
82.85256261
85.18249213
87.7010461
90.93332772
93.10207027
97.08978231
100.5584259
104.650719
109.256504
111.7398021
114.8697815
119.0459436
122.3330493
126.1047862
129.5523226
131.0763545
134.6721929
136.4927569
139.0100162
142.5096822
146.2059552
151.0989023
155.4380489
160.7452662
167.3558747
174.8164852
180.9225265
187.5679943
193.1414317
197.8484068
201.826966
207.5658661
211.9924475
219.7230234
226.3509136
235.0211029
245.8009944
257.4932509
266.7878453
276.6289115
283.4807087
291.4289112
302.6599631
314.7998298
330.9669065
347.8511518
369.3387518
390.9815457
411.3946049
432.4349638
453.2566474
475.3209561
500.8663119
530.2095285
554.9510073
578.6068557
610.6865792
647.0312961
683.0374591
713.8946489
745.8656443
786.7669076
829.5208105
860.4197453
897.177106
953.999665
1004.223742
1060.588636
1127.709298
1199.477762
1300.34781
1416.686573
1450.382838
1220.582262
901.0190511
705.9730829
526.0537273
4157.651628
)


100
(
37.76445065
31.77039728
27.02949094
27.97671415
32.62460515
38.8955441
45.42510855
52.49419022
58.15318378
64.85462041
69.22477775
70.70573536
74.84746293
76.0139885
74.78393929
75.85348216
77.75515216
78.66240187
77.4271262
80.4841093
83.42610743
86.10669338
88.32032596
91.45553468
95.99179982
100.1523819
104.918653
109.3975643
113.7571225
119.560622
124.8016417
129.8191567
134.1182368
136.5484058
141.5611664
145.2719081
148.4202006
152.2690756
155.5748969
160.1979451
165.4921401
170.8236984
177.0810315
185.2104487
192.5091353
200.9340422
208.9310821
217.0876749
224.3839781
231.5565314
236.7236543
243.9963009
250.5806843
258.4008034
268.1736554
281.5243487
293.1252966
308.736062
321.0918843
333.3695287
345.2966169
356.1940219
369.5782153
385.8999385
404.1017298
427.5804387
452.9621536
478.5385327
502.5153796
526.9431931
552.4855867
580.9454565
613.6417455
647.7525479
682.7025727
717.1388356
754.5123615
790.8964323
829.7375767
877.272527
917.2927081
959.8676311
1013.062509
1063.894887
1102.389635
1149.41506
1216.902647
1274.635031
1330.825575
1412.326667
1500.36979
1540.094328
1700.224196
1857.620444
1883.37917
1554.210841
1181.580868
944.7282171
735.8079576
5527.115365
)


100
(
34.89338864
28.79445536
24.41061849
25.62868868
30.40767257
36.96707142
43.63330974
51.18885376
57.59076719
62.49617292
68.21242568
70.61823694
70.97187443
74.28208123
75.20116101
74.07415957
76.17211602
79.26219082
81.54326697
82.3692411
86.07170854
91.03413164
95.28524511
99.85069472
103.5209425
110.3850944
116.2047484
122.6403141
129.0568078
133.95363
140.3631616
146.2129981
151.2123248
155.5090924
159.5109013
163.4212345
169.9033234
174.7012696
181.0324344
188.3334669
195.9819973
204.5190655
214.1895918
223.5202387
234.329461
244.8504412
253.6756647
262.7578819
271.2985383
278.4423879
287.6223677
298.8820979
310.2234863
325.2338437
340.1042277
356.5854263
375.4773111
392.7770901
406.3924674
423.0494163
436.1547085
455.1808704
479.0743201
504.429418
536.1095517
565.1345204
596.8781607
624.5322188
652.4434405
686.7345578
724.6737558
763.892093
804.3587837
846.3197341
889.8351796
937.3487701
989.347388
1040.126651
1088.592629
1135.541801
1194.811628
1253.664968
1319.29101
1366.194178
1422.862453
1498.842762
1577.975633
1658.625781
1747.490455
1823.10117
1937.479502
1712.266379
2175.673832
2366.712242
2345.195067
1939.329656
1524.519752
1245.84386
966.9340192
7063.198849
)


100
(
30.81543411
25.71774967
21.88552645
23.26140458
28.44563674
34.84181178
42.0936659
48.95321592
56.33424655
61.09058068
65.13647135
68.94086156
69.87312572
70.09511529
73.52649246
75.28496691
75.33146152
78.58609938
83.35070229
87.18061251
90.38456907
94.60689833
101.8840987
108.0409537
114.5338415
120.5098351
127.8122455
135.833994
143.2010473
149.8222632
155.8795214
160.0880073
167.5607506
172.8619097
178.6535354
185.545096
192.0499692
201.1046367
210.3824468
220.294966
231.2737501
243.8358571
254.7191737
267.6785771
279.0362598
290.2615856
300.3003478
312.4316085
321.4670777
336.4240374
349.2781446
365.4399805
384.1007938
405.6570958
425.5351572
447.3979337
465.8417907
483.5411642
504.7500964
524.3855069
550.5998985
579.8674468
611.7128583
649.6442314
686.4883992
721.4628041
757.5187743
793.7291212
831.1791564
872.3255947
921.0774827
974.4469585
1021.096438
1070.070631
1129.899628
1195.150969
1259.115593
1319.539266
1376.988645
1441.744158
1515.565601
1585.786
1640.430397
1712.614977
1797.098711
1896.404938
1983.502312
2070.440471
2164.523333
2293.404541
2438.839316
2386.403782
2721.525869
2995.260884
2885.607881
2370.39366
1923.557256
1605.650899
1238.460761
8676.560011
)


100
(
28.83107088
22.68223142
19.44887621
21.25338202
26.40373534
32.61553297
40.30735122
47.25223601
54.02567093
59.59981326
61.99224775
65.5190961
68.13878484
68.54706145
69.75919444
74.1159836
77.35931117
79.19651909
83.42342151
90.13685675
95.74628467
101.5315157
106.3401508
115.9392852
123.9446443
132.3626572
140.5997694
147.073755
156.299551
163.7603512
170.5536709
177.4164447
182.7993818
190.7462799
199.8125867
208.8025733
218.8566284
231.0140261
242.5435759
256.8470378
270.9931651
285.4015278
299.7915538
313.5358748
325.3309496
338.8323074
352.4685325
366.4885525
383.4861527
403.4116253
423.0392592
447.9862263
471.2556341
496.7963435
520.4248495
545.0638562
565.1303433
591.483238
616.6060341
648.3380198
686.9115511
724.6682402
770.3228843
810.8378391
853.9992077
894.0075306
935.3128627
983.2791376
1034.066208
1086.585005
1141.937772
1198.670092
1263.152068
1329.360873
1403.232861
1486.894753
1561.824864
1625.962949
1702.919583
1784.198201
1863.187058
1938.922918
2015.867468
2113.621084
2217.86039
2308.277737
2417.161216
2539.600864
2652.971142
2779.743456
2943.630365
3478.176611
3324.817573
3581.073916
3475.272142
2857.629316
2353.307464
2009.109245
1547.014183
10226.17534
)


100
(
28.19866942
19.82188123
17.2284667
19.32938813
24.37711934
30.78313167
38.04064115
45.4968907
50.97854332
57.02305714
60.3512059
60.54943951
64.79438387
67.39356933
68.3529512
71.0526603
76.86300992
81.69959085
85.83223188
90.79136809
99.80975188
107.589004
115.5389013
122.8802109
132.570063
142.8592112
152.3835674
160.720146
168.2831396
175.3082802
184.9050152
192.817052
201.8211757
211.5913315
220.8934281
234.9823606
248.4959373
262.9104797
279.3971335
296.7803239
311.9419119
329.6791639
345.5367268
360.4170378
375.8483312
392.9024872
408.4003581
432.3517618
454.8902529
480.6993303
510.0021308
539.999375
566.7698698
595.7921959
621.6217435
648.779744
680.6029025
711.9335124
751.9665651
794.9927989
840.6338684
891.0864283
936.93373
985.4832716
1034.725102
1086.263263
1138.4571
1193.858478
1257.831336
1323.086921
1384.514938
1450.579883
1527.467832
1613.292762
1703.767722
1788.427381
1876.320694
1967.345931
2071.178718
2167.944238
2236.486637
2319.374865
2425.053061
2555.522068
2671.908228
2795.364719
2924.95579
3059.261368
3200.494726
3338.764282
3535.713581
3857.339255
3971.353548
4305.407403
4033.205463
3375.718674
2841.141749
2442.190695
1875.39216
11631.56207
)


100
(
26.81672702
17.82868449
15.43357244
17.45791452
22.26998644
28.84439911
35.72226342
43.33099894
49.0916791
52.68687414
57.44632201
59.40153162
59.16273077
64.43248983
68.04788919
70.31356786
74.40315779
82.05017196
88.70124015
95.41511402
100.8826629
112.3884698
122.184139
132.2978247
142.0112436
150.4193726
161.9402841
171.5828246
180.3815535
190.08669
196.4067481
209.260495
220.5804766
233.8133645
247.6179899
263.425608
278.8893264
299.3027347
317.2945953
337.2544021
355.884496
375.162409
389.5348253
411.1051816
429.3694119
452.326696
476.7395532
505.9128244
534.6013116
571.5543496
604.0182146
636.5716719
669.6335989
698.3767195
729.2074826
767.2334579
808.826779
853.2362551
905.2564024
955.787112
1012.531243
1064.572391
1118.923131
1174.095865
1232.349515
1295.965976
1361.270039
1428.396814
1495.099269
1565.82669
1643.363015
1723.726591
1813.147576
1918.134014
2023.05113
2121.790839
2222.385646
2336.250882
2444.327113
2541.143206
2638.129201
2754.291816
2889.382912
3011.231137
3149.316003
3293.605086
3439.629906
3586.763556
3726.082774
3926.304174
4119.365281
4389.885113
4704.691474
4930.265959
4630.628486
3911.244085
3362.135795
2923.974725
2265.719414
12427.15341
)


100
(
24.71682877
16.01302998
13.70613295
15.69723635
20.49193483
26.8369845
33.78162968
40.23821613
46.63813664
50.14408514
52.72726188
56.4956929
58.43297411
59.21569411
65.53963278
70.64144949
74.62032149
79.8901993
89.91543985
98.22433081
106.4579833
115.2354849
127.1631991
139.3573699
150.8266442
160.9999999
170.054751
179.641054
191.4378411
202.3428726
214.5128552
225.9983444
239.4741102
257.0696694
274.8032673
293.6232403
314.6329632
334.758006
356.4099496
378.0274583
399.1095757
418.9106672
441.9546712
462.5725807
488.6387622
519.1001691
551.74434
586.4123065
626.1602642
664.1195109
699.6421681
738.889228
771.9711817
811.4287176
852.1041945
894.6238413
952.564406
1009.690304
1069.500328
1130.117024
1186.120617
1245.690781
1309.410403
1374.734726
1444.589228
1514.298913
1594.14868
1671.840564
1752.156494
1835.556289
1925.680462
2021.122749
2120.805843
2221.148323
2331.108788
2453.580628
2586.419753
2729.616212
2847.781882
2942.068333
3052.057111
3187.636706
3341.346671
3489.549259
3631.310767
3776.91581
3943.720466
4142.61362
4319.344939
4519.982253
4723.734574
5025.651636
5299.584496
5653.417952
5201.63709
4438.925019
3893.281787
3441.224301
2713.14372
12302.25329
)


100
(
21.84944596
14.25776226
12.11922803
14.03522909
18.69331616
24.61442858
31.75242988
37.78454557
43.18458019
47.44366617
49.17186163
52.05327328
55.94502361
58.51710257
60.81317556
68.50552772
75.08287605
81.2135121
87.33903649
98.99308669
109.9165333
121.1481864
132.1224444
143.1190916
156.6434559
168.5119346
179.4110441
190.4116757
198.5357129
214.5002048
228.9523256
245.4346917
262.5493836
280.663183
301.8457541
325.746658
348.7130754
372.5025603
395.8281556
417.9701113
440.6848877
466.6305996
492.1265179
522.1691945
555.0889769
590.0777037
631.7586879
675.2812391
716.8919988
758.3807252
802.5845491
836.1076615
882.4215467
930.6166848
984.7204877
1042.399446
1105.482541
1169.84869
1238.051417
1304.152698
1371.281433
1440.486641
1514.46459
1593.928201
1673.245773
1754.23946
1831.030739
1917.646598
2006.792584
2106.532851
2209.017925
2321.700963
2436.811104
2551.199631
2674.024846
2807.786278
2949.085769
3075.660561
3211.151979
3361.221422
3513.863944
3656.714296
3803.797266
3967.101428
4153.50565
4317.613762
4499.013106
4665.508554
4873.28913
5098.714317
5390.581984
5676.830298
6086.38446
6230.760828
5762.275358
4965.849066
4426.455731
3968.390528
3171.09657
10610.14147
)


100
(
21.41277135
12.60772891
10.66076992
12.58500879
16.98347484
22.74200827
29.40410456
35.51165121
39.55383668
43.94715627
46.7545073
47.71957678
51.9922431
56.71462853
60.37935418
64.01705953
73.33157789
81.69655657
90.00934397
98.34744039
111.1156184
124.320502
137.2276486
149.2650884
159.8541235
172.659842
186.0781402
199.2744725
213.0403484
225.3343738
242.3898592
263.2424677
284.6175748
306.945484
331.505377
354.8967957
382.1600842
408.117944
433.6727016
459.1044171
486.5567055
511.0124445
547.2025266
583.5139681
623.8710423
667.6738889
715.0809424
759.0664185
807.1983909
853.2672098
897.8855449
949.5838028
998.1684205
1053.160888
1126.964396
1193.19626
1266.422555
1338.841813
1406.683796
1479.192406
1556.17355
1634.196711
1719.998367
1804.853325
1899.787004
1990.742494
2086.80584
2185.895873
2292.995776
2401.814861
2509.706036
2618.128864
2720.390126
2851.474935
2998.077852
3158.698705
3321.732437
3463.538349
3583.999911
3725.096444
3904.784672
4067.932223
4237.674138
4403.646743
4557.225575
4750.473787
4980.778004
5214.814941
5413.736994
5682.367036
5923.554781
6233.244742
6562.141608
6850.772351
6294.353274
5496.405915
4949.519651
4499.504859
3541.955071
8872.371356
)


100
(
20.59189954
11.30276676
9.484155389
11.20412095
15.26189112
20.82843702
26.89224996
33.02965896
37.12002409
39.28978594
43.40152513
45.96028214
47.27800687
53.0477513
58.9643113
64.00529583
68.95148349
79.86325147
90.19725651
100.8655765
111.8035746
124.4540169
139.3927403
152.9316728
165.6769566
177.5484072
188.7015459
205.9834387
222.7139836
240.6453177
259.1119563
278.3524904
304.8738766
331.8118336
359.1208906
386.7692396
414.8120808
438.0969554
469.1256305
497.711577
530.2710499
564.4602809
602.5599514
642.2196165
694.7127965
743.7500702
794.595584
844.7242494
897.9456649
938.0862086
999.0377189
1057.041983
1121.623603
1191.635889
1262.073586
1344.882904
1422.278165
1503.331267
1583.352851
1664.221791
1752.196028
1845.961699
1938.503935
2032.033697
2120.235352
2218.126741
2318.301603
2434.873519
2553.288606
2681.038858
2809.793311
2930.92138
3060.708903
3188.378861
3326.298805
3468.689231
3606.631348
3775.61511
3964.562564
4140.414854
4282.579238
4444.547361
4632.104353
4830.513235
5027.806602
5227.877931
5410.09724
5641.671824
5875.424868
6136.887239
6434.65949
6831.150228
7206.780661
7229.057529
6771.769897
6022.395144
5472.743607
5035.010797
3809.463142
3792.723744
)


100
(
19.37010702
10.27823845
8.419187897
9.961740593
13.7454309
18.96617968
24.72852122
29.91256957
34.44271341
36.88107939
38.78304859
42.89046207
46.01690042
48.30404808
55.32646452
62.61773809
69.2901281
76.34846878
88.12403774
100.806057
113.5753687
126.3505991
137.8920085
153.349242
167.7867166
182.209439
196.8544426
209.5320743
230.0956005
251.9546327
274.4566405
298.9284949
325.0683671
351.5327888
384.454911
413.7735783
444.4154174
474.9010982
502.8050343
532.6267913
572.3345783
614.1031045
657.9025477
707.7318544
759.9093064
812.9246889
870.3721057
923.6096584
979.255562
1039.144078
1093.688379
1163.525195
1246.61084
1323.849542
1408.005663
1489.895899
1570.844239
1657.172363
1743.907377
1838.214179
1934.300103
2034.749806
2143.918948
2248.391604
2354.111181
2464.576098
2583.342246
2703.263188
2822.530918
2943.409012
3050.442135
3191.108068
3340.500506
3504.335547
3661.881613
3810.935618
3945.89156
4073.695375
4223.207631
4405.196151
4575.303299
4753.327502
4935.922676
5104.276615
5334.422557
5587.864408
5856.169328
6060.711272
6349.084866
6590.154932
6900.895943
7126.810812
7402.099042
7655.506608
7127.08703
6449.290455
5944.911806
5531.01174
4177.354656
-3629.052493
)


100
(
17.70485511
9.314185958
7.481119511
8.818033829
12.31926584
17.04647761
22.57762276
27.2193287
31.06726271
34.13787209
35.97525067
38.59370683
43.28219165
47.19035959
50.78599113
58.78998556
67.58592936
76.28050694
85.6985438
97.9837352
112.8182471