/*--------------------------------*- C++ -*----------------------------------*\
| =========                 |                                                 |
| \\      /  F ield         | OpenFOAM: The Open Source CFD Toolbox           |
|  \\    /   O peration     | Version:  2.3.1                                 |
|   \\  /    A nd           | Web:      www.OpenFOAM.org                      |
|    \\/     M anipulation  |                                                 |
\*---------------------------------------------------------------------------*/
FoamFile
{
    version     2.0;
    format      ascii;
    class       dictionary;
    location    "constant";
    object      la_r3;
}
// * * * * * * * * * * * * * * * * * * * * * * * * * * * * * * * * * * * * * //

la_r3_table
100
(

100
(
-1620.992675
-1950.252191
-2208.563273
-1977.975178
-1778.656055
-1602.691224
-1470.128678
-1318.340473
-1215.798652
-1092.275438
-1029.025497
-935.0958779
-870.164426
-823.4117031
-746.2643801
-689.132889
-654.6948086
-592.5902525
-544.154103
-515.1224084
-475.157347
-437.3840472
-408.5249034
-385.2180997
-357.0493037
-332.6749984
-314.2019878
-294.0385763
-270.7530251
-251.0869226
-236.4006077
-221.8045038
-207.4219137
-194.5132568
-183.6203584
-171.9005647
-157.4509778
-145.394781
-135.2243133
-126.1252912
-116.0617003
-107.2624311
-99.48222608
-92.66679464
-85.76463226
-79.47852828
-73.7176009
-68.44693018
-62.04832141
-56.3784217
-51.39939087
-46.97666852
-42.73242715
-38.80202297
-35.27281856
-32.16940051
-29.40899046
-26.8163853
-24.47585847
-22.24464864
-19.97669198
-17.9384602
-16.15410018
-14.48264941
-12.86381991
-11.36788616
-10.0844702
-8.861223252
-7.729340784
-6.718616302
-5.832226412
-4.989272439
-4.245024102
-3.622977408
-3.036902963
-2.539419333
-2.096257488
-1.685379162
-1.372988064
-1.076955604
-0.8386255892
-0.6651677536
-0.4857426772
-0.3857372271
-0.2767677084
-0.2220434835
-0.1625166894
-0.1386956303
-0.1117922341
-0.09189420287
-0.07930380971
-0.07137584162
-0.07000164004
-0.065998026
-0.06591246875
-0.06190075046
-0.05968415328
-0.0426345903
-0.01553215699
-2.082244015e-10
)


100
(
-1670.406009
-1889.285854
-2131.261736
-1877.345398
-1676.624555
-1514.228219
-1353.954656
-1232.511848
-1115.637606
-1015.09813
-944.5840413
-854.9324022
-798.44497
-743.5636701
-675.5638915
-628.4543794
-588.5590667
-530.7774196
-494.0570144
-463.2317612
-424.1075238
-392.4828821
-368.0691508
-343.8128167
-316.4821758
-297.2581167
-280.2914877
-260.7490819
-238.9760124
-223.1668038
-209.4112817
-194.3885219
-180.5915481
-169.9411405
-160.2880309
-149.4994265
-136.9130046
-126.5564786
-117.8740223
-109.0095807
-99.67840444
-92.01252765
-85.51671714
-79.129541
-72.63458719
-67.29345819
-62.75824211
-58.41993837
-53.24433841
-48.90204464
-45.25836878
-41.76055453
-38.13538882
-35.03624516
-32.46721733
-29.97363007
-27.74177741
-26.09686602
-25.19488891
-24.66572932
-24.00430089
-22.57372556
-20.83027253
-19.42377157
-18.54462393
-17.49523428
-16.27393883
-15.33031973
-14.76868514
-13.8584122
-12.88712243
-12.39128301
-12.06924523
-11.62298795
-11.85391612
-12.1014066
-11.1225971
-10.74897947
-10.61415176
-9.554948806
-9.66369822
-9.2804031
-8.893953945
-9.467266259
-8.551237361
-8.942690977
-9.115131674
-8.813372081
-9.630562355
-9.342146624
-10.33204743
-11.1563846
-13.11322524
-14.80419985
-17.51585892
-19.80830389
-22.57005995
-17.85859146
-7.062980777
-2.818732069
)


100
(
-1762.827346
-1946.966818
-2059.305674
-1790.140543
-1621.075804
-1453.252199
-1295.717289
-1176.266812
-1060.123097
-958.1957607
-885.5916763
-803.9819678
-746.6469417
-692.6531175
-633.2211464
-586.2367596
-546.4115323
-501.4096687
-460.5146478
-431.4468575
-399.2588307
-368.9971583
-343.5792538
-322.3427232
-299.6386976
-279.3375562
-262.5026415
-247.0433369
-230.0874687
-214.0992312
-199.8626722
-187.4186842
-175.0030713
-164.1593037
-154.8406515
-146.5330343
-137.7193186
-128.8734958
-120.7280006
-113.2098201
-105.9925506
-99.1502694
-93.13371152
-87.88701493
-82.67437409
-77.75694735
-73.34174286
-69.75379429
-66.07783851
-62.51458781
-59.15531088
-56.47843702
-54.00558197
-51.34039078
-48.85556519
-46.86434103
-45.26589044
-43.29832217
-41.84324002
-41.40072709
-42.06388614
-42.32222359
-41.67305161
-39.97290244
-38.158922
-37.25459764
-36.48277487
-35.23523799
-33.77002119
-33.12773053
-32.41191779
-31.58612987
-30.90058808
-30.50383459
-30.65032722
-32.54765787
-34.81311612
-34.14897966
-33.74347672
-34.90165301
-34.49489309
-35.90877111
-37.01792631
-39.07971346
-40.1668057
-41.45333593
-44.62888686
-46.89433913
-50.79442335
-57.86046652
-63.25460137
-71.02723475
-81.63941689
-93.10554255
-102.7067231
-117.9345966
-114.2374069
-76.01352489
-48.96481856
-25.87568932
)


100
(
-1924.536005
-1953.164673
-1972.764946
-1742.458591
-1570.360819
-1382.13503
-1256.579362
-1114.754346
-1020.94508
-914.6323068
-843.3249267
-770.1617232
-703.7722268
-657.7244177
-606.1961789
-557.2510135
-520.0474138
-483.6493131
-446.4047136
-413.8422471
-388.5794795
-361.7927921
-337.0740036
-315.5300454
-297.6471732
-279.1069948
-262.6439001
-248.1744269
-235.3665594
-221.9668955
-209.0486662
-197.1779735
-186.4171528
-176.5986318
-167.582188
-160.2371874
-153.2751993
-146.8062083
-140.1398379
-134.2028922
-128.5593862
-122.9876935
-117.8825446
-113.3745757
-109.4516619
-105.660445
-101.8397312
-98.32809286
-95.7662072
-93.85613796
-91.01484868
-88.49878744
-86.42222883
-84.66381201
-81.75571367
-79.19377543
-77.23409034
-76.10674856
-73.39296604
-70.79455816
-69.64557384
-69.63701461
-68.98925128
-68.14381724
-66.79432916
-65.42536844
-64.51033963
-64.04036415
-63.79616228
-64.62023663
-65.92660898
-67.68211064
-69.86304488
-73.08024397
-75.47555772
-76.51577916
-78.44214735
-80.97013833
-84.04596531
-87.69752525
-89.21433489
-92.25338208
-98.84121049
-99.8649315
-105.6551798
-114.7440051
-121.949044
-132.0106174
-143.6485936
-157.6310338
-171.8828593
-187.8899897
-206.3969974
-227.7327983
-255.146846
-278.1182015
-249.0863695
-159.8828129
-105.0542215
-69.7709024
)


100
(
-2096.852785
-1991.027323
-1924.111374
-1705.490154
-1509.216219
-1340.120451
-1213.973336
-1081.710521
-983.9105908
-891.6760057
-807.4142562
-747.8814306
-683.5341448
-631.6270708
-590.7676345
-546.7761912
-507.1566265
-475.894672
-445.7482236
-415.3339949
-388.9102483
-367.1811981
-345.7815627
-325.2709404
-307.6772859
-292.9291971
-278.9308541
-265.7810673
-254.2323362
-243.4278124
-233.3340784
-222.976307
-213.6349047
-204.7492248
-197.0369533
-189.7815067
-184.2190873
-179.0880794
-174.4807809
-169.6382884
-166.0767606
-161.9487699
-157.8358251
-153.1843446
-149.8777762
-146.6602418
-144.2102395
-139.5740423
-135.9762044
-134.1066035
-132.9488223
-129.4884077
-126.5948282
-124.9094024
-123.2597852
-120.1288418
-117.6076232
-117.4092811
-116.9417407
-115.0096535
-112.8081344
-111.8337383
-111.6995628
-111.9133882
-112.1699548
-112.8259832
-114.21112
-116.6427041
-118.7991555
-120.8482369
-123.1081849
-126.1647603
-130.4043618
-135.7384829
-142.1745591
-146.0776679
-149.1296453
-155.3863848
-160.1681207
-163.4101332
-172.3435129
-181.7508099
-188.2475494
-199.4265503
-212.6880573
-225.3018602
-240.6500067
-258.9044081
-278.5787516
-295.2024023
-316.4890315
-348.8358372
-375.3576952
-414.8360762
-453.9047288
-472.3042114
-359.6223843
-206.521825
-131.7743905
-115.8343428
)


100
(
-2085.021849
-2041.242118
-1895.914925
-1652.742069
-1448.902627
-1311.557115
-1168.190718
-1061.711116
-952.4399493
-876.3921934
-794.0593888
-729.6956579
-676.7134901
-623.1982997
-581.572942
-546.8077254
-510.51378
-478.4273126
-452.6502871
-428.3338972
-403.4922365
-382.1056595
-363.9002892
-347.2549334
-330.5190853
-317.1507352
-306.4078585
-296.7682705
-287.2234566
-278.145879
-269.6544742
-262.0113591
-254.3096605
-246.6776783
-240.160801
-233.3215271
-227.5637249
-222.4794282
-219.7954258
-215.0497808
-210.3699237
-207.5418096
-204.988032
-201.0590072
-196.5846299
-193.6947782
-192.6476016
-190.4465217
-185.0809515
-181.315072
-180.7218735
-179.5925785
-176.4384067
-174.2852133
-173.4208376
-172.8314481
-171.9548528
-173.0863577
-175.3633292
-177.4731627
-179.581632
-180.9743696
-180.9966265
-181.5629858
-182.8782236
-185.0309491
-186.8262881
-188.5522876
-191.4650379
-194.9843646
-199.5036671
-203.7078306
-208.3579942
-213.8171049
-221.8087625
-231.6723643
-240.7710174
-248.9114633
-259.9054218
-271.2378224
-282.7754818
-296.2100483
-311.6814984
-326.9504313
-345.1469555
-364.9842583
-388.225487
-407.9048912
-432.8194876
-464.4136157
-495.6918724
-531.9070686
-571.9202126
-619.0731167
-662.9351015
-613.5247489
-325.2542988
-83.67207051
-45.05975286
-107.2672482
)


100
(
-2011.088391
-2061.430386
-1857.659428
-1598.105907
-1416.510967
-1279.543898
-1140.861539
-1041.930478
-941.4474826
-859.9490089
-793.4282834
-724.595898
-674.3709934
-628.0700399
-584.3873908
-551.0150692
-522.5571544
-493.1846062
-467.9098595
-446.854163
-427.6494562
-407.7437499
-390.9105958
-376.5142648
-364.0849533
-351.252932
-341.7596541
-335.2804741
-329.163365
-323.0823901
-315.2233664
-309.3711295
-302.1104642
-295.9880432
-289.3968354
-284.6689208
-277.8972244
-273.2618682
-269.4969579
-267.9873307
-262.2215652
-257.4262179
-255.0512701
-253.1195873
-249.224041
-245.069107
-244.9742245
-244.9316226
-244.0514535
-239.826744
-239.3261327
-240.337673
-241.5110382
-241.4999694
-241.2660549
-242.3082666
-244.0643471
-247.1796616
-250.7505032
-253.7969823
-257.647783
-261.4282909
-264.9542443
-268.2468782
-270.2164929
-273.4687797
-277.6634163
-282.4553742
-288.423442
-293.0186034
-297.5671034
-303.3139867
-310.734768
-318.3312108
-326.952973
-337.2041772
-348.9734553
-362.1321138
-374.8414766
-390.2136895
-406.361081
-423.2580123
-443.6119699
-463.70041
-486.4892947
-508.6647326
-531.8159768
-554.7979994
-584.1920798
-618.4085196
-645.6821358
-680.7073433
-717.401374
-761.80172
-801.592053
-621.6923291
-178.8870077
210.2534005
249.689688
147.4941231
)


100
(
-2059.543125
-2060.27506
-1814.009313
-1560.295371
-1395.275632
-1242.128801
-1127.349562
-1017.551227
-937.9102505
-853.7710586
-793.7211713
-733.1449616
-677.6403022
-638.099186
-598.6209987
-563.5943064
-537.0573075
-515.1366507
-492.7855386
-472.9405034
-456.5572615
-442.2760883
-427.224955
-414.564995
-404.3102704
-394.5615804
-384.3943921
-377.3844468
-373.7797405
-370.9263635
-367.0796377
-361.5662966
-356.300664
-348.7050242
-342.6702939
-338.0646944
-333.6097542
-327.4900727
-322.9500089
-321.9946149
-320.1615095
-314.6741819
-309.7908799
-308.8468977
-307.4841822
-305.8127049
-305.2691472
-308.9250166
-311.9158174
-314.8000579
-315.7156886
-317.7098681
-320.6030986
-323.471473
-326.544938
-329.2472546
-329.1057297
-330.3890416
-333.2911022
-337.7387341
-343.7509052
-349.3505382
-356.8479613
-364.0947607
-370.4444343
-376.8130595
-382.6856374
-387.7616151
-394.209381
-402.1047775
-410.2506913
-417.5500243
-427.1471205
-436.6759457
-446.9263236
-456.2710783
-465.4865585
-478.5920377
-494.6564964
-512.2196565
-528.9481445
-546.155299
-565.3041501
-586.5715919
-610.2329777
-636.5491805
-666.0118083
-697.8962815
-731.4310984
-768.1631734
-816.7372017
-872.4110937
-933.2494793
-999.079784
-1053.162854
-707.6324667
-79.27950907
375.4624131
508.1470937
998.8817925
)


100
(
-2174.032665
-2040.93357
-1778.657937
-1537.870287
-1366.067813
-1217.965868
-1113.378852
-1007.117048
-932.0354915
-859.3957165
-792.911997
-746.0173555
-693.3684093
-649.557265
-618.5381058
-586.0902962
-558.8897608
-539.0168245
-523.4823032
-506.9447188
-492.8110988
-481.2247969
-471.4673335
-460.6426041
-451.0102402
-443.7751819
-435.3605884
-426.4562486
-420.053872
-418.246541
-418.4865678
-415.5608044
-413.0072068
-406.8840571
-399.6317275
-393.9711035
-390.7823947
-386.5124511
-380.9780732
-379.4500642
-379.9749869
-379.3940959
-375.7498892
-374.3592262
-375.3417817
-377.989068
-381.3057413
-385.355083
-391.4869356
-396.7850061
-401.5194496
-405.8944224
-408.7768346
-411.441713
-415.9052144
-420.5744362
-425.4856464
-429.2447384
-431.3402735
-434.9240577
-440.1823348
-447.1487998
-455.7861677
-464.4279857
-471.9087464
-479.8976303
-488.2904913
-496.7804967
-504.9724403
-514.887066
-526.364528
-536.9403129
-547.4923817
-554.5653417
-562.9659251
-572.665208
-584.5198485
-600.008069
-618.610737
-637.8926924
-657.2063139
-679.0476514
-707.9932897
-745.9042746
-786.4122369
-831.3012109
-878.8870073
-935.974462
-987.7257667
-1052.003303
-1128.132927
-1209.357626
-1306.493258
-1404.696684
-1455.963448
-845.1314737
40.32486164
514.1902471
467.7213894
2960.310148
)


100
(
-2261.182687
-2038.032587
-1758.250209
-1513.009266
-1330.39479
-1205.597855
-1093.061557
-1005.33039
-922.4022643
-865.6648497
-803.270298
-753.3212486
-714.792778
-671.5359673
-638.0195422
-614.6429438
-589.9437643
-569.9526752
-556.2375588
-546.5672208
-535.6382814
-525.7562776
-518.4679142
-511.2576041
-504.0201317
-496.7155462
-491.1045749
-484.1101908
-475.2949003
-468.2678382
-468.1263611
-469.9641607
-469.385699
-467.4708187
-461.5190867
-453.8613789
-451.3073396
-448.8297906
-447.372697
-445.03369
-448.7146286
-452.1538234
-455.9729889
-456.2837271
-457.8714119
-460.6833403
-465.2010151
-471.5462629
-478.6990473
-483.5922091
-489.6470233
-495.14245
-500.8332176
-506.0136332
-511.454863
-516.2041551
-524.1410044
-531.0669088
-537.7732201
-542.9633394
-546.4943234
-550.2914417
-556.4288838
-564.7000229
-574.2909977
-584.0076393
-594.1545709
-606.6713947
-618.6705577
-630.8530401
-641.3728006
-652.6201783
-664.9183012
-677.0541033
-690.3937704
-709.4497715
-734.5486052
-761.1729117
-788.1332878
-818.0848573
-855.3359063
-902.2764761
-953.3908876
-1006.343841
-1063.00764
-1126.165363
-1201.133468
-1278.00524
-1361.980372
-1452.126639
-1551.608092
-1675.546174
-1797.738334
-1944.080464
-1945.844413
-906.0002062
245.3859082
751.9903186
577.5562935
5838.516224
)


100
(
-2253.562047
-2033.257997
-1735.515325
-1481.179954
-1307.793512
-1191.187099
-1078.192039
-1001.445742
-923.6673771
-865.5988887
-817.952281
-767.3653254
-731.681865
-700.2019059
-666.3329701
-642.2400673
-626.3671514
-608.4017035
-595.0845874
-586.9037268
-581.9820776
-575.4159491
-568.3771595
-564.04667
-558.8739828
-554.5966189
-549.2771753
-544.5874455
-539.5488423
-529.5496842
-523.9773202
-524.9581681
-526.6025312
-529.3355503
-526.8475609
-522.7175988
-518.5158147
-519.4863897
-521.0155479
-524.2496026
-528.4918606
-535.4817306
-541.7655501
-547.2429556
-551.6758196
-553.5177182
-556.4844801
-561.2778781
-567.5746168
-575.6820293
-582.6205698
-587.6661746
-594.4506338
-601.3268952
-608.3620445
-616.7080443
-624.1029636
-630.7489396
-638.2392693
-644.856049
-651.2414223
-656.992617
-662.3359519
-670.2426648
-682.0770352
-696.1606092
-711.6157484
-726.3512597
-742.0299304
-758.5111086
-777.4106595
-798.2801053
-821.8922162
-851.9667339
-885.6059904
-920.5896784
-956.0156999
-995.0560123
-1041.275041
-1096.030784
-1156.348022
-1219.416388
-1281.17254
-1347.925057
-1434.336595
-1521.457703
-1624.039661
-1725.890817
-1838.804311
-1959.057665
-2098.102259
-2257.610726
-2432.113879
-2618.276555
-2416.563127
-840.2790455
555.4136154
1050.68294
716.5744748
9099.908
)


100
(
-2162.739816
-2014.767452
-1705.108379
-1446.463824
-1293.494721
-1169.92721
-1073.123977
-989.8517192
-929.0947594
-868.2101739
-828.3417166
-788.1152427
-750.172069
-725.3995722
-702.0801254
-677.3495449
-661.50178
-651.8117461
-640.4765151
-631.202019
-627.4173377
-625.2643208
-622.3554162
-618.0328985
-615.3050436
-612.4715483
-610.490513
-607.3318926
-603.7641147
-600.610973
-592.2623097
-587.4937786
-586.6252278
-591.8441473
-596.2449866
-599.1854689
-598.3328084
-600.720309
-603.4923015
-608.5557796
-615.2779985
-622.0701932
-629.4166798
-637.0331109
-643.2561484
-648.8177089
-652.6665745
-654.9850382
-659.144052
-666.134307
-674.1790957
-682.7572092
-690.4434313
-696.3642611
-704.0270635
-711.5595977
-719.6184646
-729.2523633
-737.7206546
-745.5134571
-756.9002354
-769.1966615
-784.3712058
-801.3371042
-819.0923586
-839.2845333
-860.5978083
-884.0377743
-907.0945488
-930.3321526
-965.0264121
-1008.295606
-1056.118736
-1103.112203
-1150.181417
-1199.738106
-1253.62531
-1315.013005
-1385.238317
-1456.934751
-1528.179742
-1607.872387
-1699.726827
-1798.133381
-1906.587093
-2021.052907
-2151.241908
-2283.145996
-2429.17281
-2598.630717
-2782.514889
-2997.906765
-3227.673805
-3432.756793
-2835.701251
-566.7225557
983.3295185
1281.031392
914.8719877
13514.8402
)


100
(
-2157.920336
-1985.725789
-1667.762803
-1428.243311
-1275.658825
-1150.483999
-1067.202824
-984.8458352
-930.5184191
-878.3376739
-834.2730264
-807.2656468
-775.4967041
-749.5369305
-734.2760634
-718.6977153
-701.3264879
-691.9933947
-687.3254997
-681.2794203
-674.4908899
-673.7367499
-673.6935953
-673.9943818
-672.1788385
-670.6893669
-670.9124501
-669.8964441
-669.7762023
-668.2880766
-665.8031976
-662.1962279
-660.5742498
-663.623515
-671.9960599
-679.1170605
-684.9681346
-688.623229
-691.715644
-696.205375
-701.2102661
-708.1687663
-716.2112361
-721.8143837
-728.8195217
-735.4200541
-740.9669005
-746.1307478
-751.9005047
-756.2714608
-764.4182078
-773.3580105
-782.5503794
-792.0111706
-801.3896779
-807.9532246
-819.4334371
-830.6922985
-847.8702619
-870.1385403
-892.9734027
-917.4288586
-945.2351413
-973.5272077
-1004.014298
-1032.172552
-1054.85928
-1085.958574
-1121.208399
-1164.391106
-1216.174492
-1275.3677
-1335.758095
-1398.980065
-1464.542091
-1534.167622
-1616.777078
-1706.312744
-1792.569121
-1880.76919
-1980.473214
-2096.495439
-2214.940785
-2340.803955
-2478.188914
-2636.410614
-2790.659562
-2956.931722
-3158.474936
-3391.230484
-3645.878999
-3910.196438
-4200.730617
-4408.045072
-3106.520655
-81.15576217
1365.59222
1460.892026
1192.564139
17725.05871
)


100
(
-2223.661661
-1957.197914
-1644.957875
-1413.030659
-1251.425911
-1140.601861
-1054.853521
-986.6113372
-926.0004202
-888.3007145
-847.1579227
-818.2503936
-800.9708723
-778.8084303
-762.5647522
-755.0888783
-746.2091693
-734.6029849
-730.2483703
-729.1971967
-727.1196428
-722.8706944
-723.713655
-725.8574756
-729.3846309
-730.006785
-730.1145419
-732.6676772
-734.5083549
-737.2124822
-739.2812014
-740.0504499
-741.292888
-747.4164915
-752.8599794
-761.9226595
-769.3360142
-774.6710053
-780.3186098
-783.2184184
-786.5697461
-790.7592791
-794.8491759
-801.4085425
-807.3355798
-812.9565675
-820.8200049
-828.625134
-835.927184
-844.9741817
-853.6174519
-863.0583688
-875.7014776
-889.3925154
-903.270787
-923.0734193
-943.9534256
-966.21659
-998.8775371
-1035.502084
-1074.791856
-1114.514142
-1148.73043
-1180.637131
-1212.318803
-1250.656852
-1293.080448
-1338.527407
-1394.375973
-1454.341959
-1518.797528
-1585.473343
-1656.551374
-1734.491696
-1822.796572
-1923.526486
-2031.555939
-2145.610774
-2263.154173
-2383.441673
-2522.195528
-2664.268155
-2808.354158
-2978.459019
-3165.129406
-3347.995812
-3530.26815
-3759.470835
-4042.146568
-4324.889378
-4647.318298
-4992.967075
-5346.47778
-5473.037681
-3149.438057
282.8084817
1713.678675
1698.460789
1561.022206
26882.93549
)


100
(
-2265.731134
-1939.921364
-1625.516716
-1390.344936
-1230.683615
-1131.053632
-1041.974373
-985.3866396
-928.7580871
-890.2131615
-862.2646476
-833.0548829
-817.9760845
-808.284891
-794.2893908
-785.8545705
-784.3499611
-781.2099434
-774.1360276
-773.3067194
-774.9032034
-776.5240596
-774.6887779
-776.7062533
-782.0465642
-786.8170865
-791.3951565
-794.7763602
-799.0264237
-805.5744417
-810.3418297
-817.0718439
-821.6752828
-827.0420776
-835.5181495
-843.2277529
-850.6089045
-856.8175617
-860.4635666
-863.6702064
-866.4659104
-867.5718621
-870.7455821
-874.3490796
-879.3901805
-886.9553804
-895.7439121
-904.8951166
-918.3803341
-932.0274007
-946.2325802
-964.4205196
-985.1477404
-1004.828627
-1031.53083
-1065.669004
-1103.725869
-1149.092513
-1193.098771
-1236.871276
-1282.571038
-1323.199194
-1368.286513
-1409.569632
-1449.399895
-1504.340939
-1568.094699
-1640.515621
-1714.97165
-1787.075923
-1861.598238
-1945.178313
-2038.011177
-2141.533947
-2253.622697
-2372.948193
-2502.961323
-2645.274341
-2797.449061
-2962.616061
-3133.412336
-3312.696766
-3504.799282
-3719.63227
-3928.031967
-4141.511652
-4395.241215
-4683.952361
-4997.834626
-5347.258465
-5737.380143
-6083.187899
-6563.21066
-6560.342073
-3193.320016
597.2884062
2011.91655
1939.844081
1934.315469
32120.55354
)


100
(
-2241.842099
-1920.144872
-1600.742889
-1363.220458
-1217.760004
-1115.743564
-1036.239028
-975.736424
-933.4036684
-892.5169373
-870.8548096
-851.6003479
-834.1282467
-828.9099689
-826.1910549
-818.8313109
-816.3873295
-819.3994821
-821.1482792
-818.020825
-819.6297143
-823.8170616
-829.3385908
-830.4223815
-833.2995711
-841.3849947
-848.5632768
-858.0154018
-865.3163136
-872.175895
-881.0474435
-889.2141316
-897.1021334
-904.8211661
-911.934612
-918.4041603
-926.0074982
-929.4761778
-934.0962903
-935.8307868
-936.358678
-938.1130614
-941.4700266
-945.0728437
-952.6482361
-962.1045066
-973.561852
-990.5571134
-1012.731032
-1033.174945
-1059.529509
-1085.872179
-1117.736106
-1157.02723
-1201.551208
-1243.917885
-1298.867379
-1350.734069
-1402.493028
-1457.687145
-1499.173275
-1545.700957
-1596.022373
-1655.697215
-1724.756689
-1800.80196
-1886.861324
-1974.827106
-2064.45553
-2156.274483
-2251.098729
-2356.472887
-2480.8292
-2612.288147
-2741.130694
-2880.410036
-3044.254002
-3221.921277
-3412.781849
-3610.500863
-3824.297323
-4043.911256
-4288.857294
-4529.060724
-4776.022499
-5056.026971
-5367.991548
-5708.277375
-6082.851613
-6457.863184
-6923.04487
-7261.544059
-7841.840974
-7709.02563
-3453.705138
846.2295952
2292.305599
2182.602873
2402.391188
42898.88176
)


100
(
-2176.988512
-1893.097653
-1571.513432
-1342.890832
-1204.227482
-1096.869863
-1029.675135
-968.0850549
-931.9098711
-899.1263914
-873.923342
-864.9618865
-853.4438021
-845.643179
-848.3898012
-851.7015976
-849.8009973
-852.0852625
-858.5361124
-864.867488
-865.3111912
-868.8401401
-876.6255918
-883.7266317
-889.9085858
-895.5896986
-905.2586606
-917.5566141
-928.0292649
-940.0345945
-949.8265701
-958.146197
-967.6966949
-974.012622
-982.2476238
-987.6108379
-990.9387266
-994.8536031
-996.5344916
-997.2406221
-1001.129709
-1004.577202
-1009.415364
-1019.648389
-1032.34191
-1048.680973
-1071.909845
-1096.485079
-1124.787212
-1164.770774
-1206.42439
-1243.271859
-1290.029228
-1340.532907
-1393.528318
-1450.006792
-1509.309228
-1565.39979
-1620.35806
-1671.993606
-1730.691228
-1791.79167
-1853.895629
-1935.726726
-2027.070732
-2129.534951
-2233.00295
-2336.077649
-2441.632921
-2554.820715
-2681.405455
-2825.119555
-2973.248262
-3124.260744
-3280.46709
-3455.254604
-3657.500637
-3876.646464
-4093.060012
-4328.362838
-4584.596618
-4853.721363
-5134.042959
-5412.857681
-5714.764853
-6090.281499
-6467.210269
-6838.317979
-7264.671887
-7707.839789
-8209.011067
-8909.545585
-9308.826676
-8662.386211
-2915.1071
1092.978632
2665.178847
2504.562839
3033.653769
58888.93128
)


100
(
-2176.08953
-1859.143868
-1542.783378
-1326.49051
-1185.491927
-1085.416495
-1016.98154
-964.5850172
-923.1610927
-902.4874901
-880.8684671
-868.2676818
-869.0506636
-864.8819743
-864.7762404
-873.5935666
-882.4392779
-885.309007
-891.1899888
-900.8597748
-911.4444781
-916.2216197
-921.1422844
-932.3678905
-941.9995369
-954.1542611
-964.0157737
-974.0457586
-988.2406844
-1000.412914
-1014.926751
-1024.626479
-1031.458813
-1036.951147
-1041.235802
-1044.152323
-1049.189823
-1049.940103
-1050.972321
-1054.795434
-1061.062963
-1068.636859
-1084.788159
-1102.513796
-1127.148849
-1159.473846
-1200.79014
-1234.937643
-1278.039252
-1322.824442
-1375.223537
-1436.631002
-1492.764827
-1548.721077
-1607.475048
-1666.071455
-1725.059606
-1793.154363
-1847.869763
-1909.927342
-1982.026093
-2058.506783
-2151.040432
-2249.726317
-2362.798536
-2476.200535
-2596.004794
-2720.87425
-2848.603101
-2991.25302
-3155.376605
-3329.893514
-3504.288349
-3680.416784
-3873.052522
-4100.065821
-4339.672363
-4579.271825
-4833.126474
-5113.335907
-5414.56804
-5734.911645
-6040.942413
-6360.906765
-6748.50274
-7184.228028
-7615.375931
-8058.509394
-8540.04463
-9063.491551
-9637.297305
-10367.75383
-10853.30429
-9521.028991
-2834.486949
1721.442889
3064.146389
2848.221542
3625.405418
74415.18989
)


100
(
-2202.636631
-1833.645149
-1521.859758
-1307.117506
-1163.222772
-1074.74711
-1001.415418
-958.1369194
-918.7965182
-896.3149819
-886.2628446
-874.2333319
-872.8219769
-880.6653384
-883.0355625
-889.0314275
-902.5484577
-916.5084871
-924.3033267
-931.5861188
-944.2053132
-958.5160768
-969.3007921
-978.2064782
-991.2798546
-1005.775817
-1019.422367
-1033.337784
-1045.249727
-1057.081069
-1069.236247
-1079.179315
-1088.457484
-1091.856703
-1090.86585
-1092.364715
-1092.438166
-1096.022643
-1102.085204
-1111.332881
-1122.871851
-1144.359513
-1173.538632
-1206.493432
-1247.958115
-1292.84267
-1343.657823
-1405.271895
-1460.886128
-1510.842325
-1576.541578
-1639.586683
-1703.675223
-1771.501209
-1836.637188
-1897.77212
-1955.171082
-2021.266278
-2098.770768
-2182.795278
-2267.321475
-2368.934061
-2478.691972
-2599.927931
-2723.489404
-2853.463286
-2988.908998
-3133.779999
-3297.426557
-3479.465025
-3669.151906
-3866.457277
-4070.076472
-4282.077349
-4523.667359
-4791.83014
-5065.520088
-5338.945906
-5647.391166
-5971.575866
-6306.912969
-6665.503843
-7013.488606
-7414.077626
-7873.991946
-8349.630321
-8848.868748
-9388.004924
-9984.291611
-10528.70531
-11183.07107
-11852.68158
-12363.28241
-10322.27412
-1612.101873
2323.049949
3469.746407
3264.961003
4413.989393
97401.75038
)


100
(
-2215.016001
-1812.365069
-1499.978749
-1283.918541
-1148.016863
-1060.015941
-991.4782261
-944.3452689
-914.8667574
-890.3680688
-882.9067507
-880.4476244
-876.9261751
-884.4245512
-898.0276549
-905.8024786
-916.7603036
-933.7741721
-952.2194691
-962.5085516
-973.9645288
-991.7808439
-1007.874616
-1025.001192
-1039.057531
-1052.09684
-1068.690565
-1082.991751
-1099.606805
-1110.103603
-1116.375244
-1124.086761
-1128.174632
-1132.887409
-1134.388755
-1132.403941
-1131.943103
-1139.537508
-1150.81586
-1170.591993
-1198.550553
-1235.035597
-1276.642009
-1336.341109
-1393.622751
-1451.866796
-1511.067533
-1577.313286
-1643.851974
-1718.172695
-1783.121202
-1853.576363
-1925.226145
-1992.271484
-2066.305349
-2142.377338
-2207.100775
-2285.735339
-2377.771576
-2478.080458
-2593.334632
-2715.232118
-2845.153054
-2981.09627
-3122.827838
-3273.725092
-3427.804262
-3602.387672
-3799.42495
-4005.53975
-4219.956468
-4444.379252
-4680.757054
-4949.329007
-5239.357624
-5533.613971
-5832.603989
-6163.222409
-6516.819673
-6881.25748
-7266.143796
-7671.937046
-8088.553449
-8565.628681
-9082.443305
-9631.370616
-10226.73206
-10824.69437
-11497.80299
-12120.38459
-12880.07297
-13540.70492
-14083.10108
-10221.83252
-685.4469698
2964.214112
3917.837363
3771.955611
5185.361092
128325.4764
)


100
(
-2151.236163
-1785.615823
-1474.988109
-1261.51059
-1134.034332
-1039.839852
-981.1706085
-931.8770476
-905.4027603
-886.5633141
-874.8127584
-878.1627129
-882.3249268
-886.1825125
-900.0814464
-919.1207881
-931.4814858
-946.1067449
-965.7959066
-988.4495646
-1006.507981
-1020.670578
-1039.877752
-1059.778528
-1080.223868
-1097.726406
-1112.623547
-1126.678866
-1138.944843
-1150.866785
-1159.58877
-1160.906916
-1160.088329
-1160.914176
-1161.533811
-1166.635115
-1173.157502
-1185.319523
-1208.279617
-1244.141476
-1291.03561
-1347.690706
-1408.936779
-1472.697933
-1546.065145
-1620.885646
-1685.914442
-1757.351836
-1834.742225
-1909.686557
-1986.11107
-2071.585322
-2145.082364
-2224.246888
-2294.265096
-2379.017135
-2478.562972
-2579.462881
-2688.950332
-2813.017642
-2946.861649
-3090.369484
-3236.318141
-3389.430017
-3552.093856
-3721.537922
-3915.354121
-4128.337159
-4352.656922
-4580.986122
-4826.76621
-5079.259849
-5364.752135
-5671.968959
-5986.622859
-6314.815798
-6671.267171
-7065.873581
-7453.597237
-7840.86412
-8268.366018
-8727.515105
-9239.240834
-9794.890686
-10357.06874
-10982.0164
-11644.98778
-12347.59346
-13047.44638
-13758.29039
-14516.28383
-15189.53959
-15582.55032
-10605.38225
662.886472
3569.10312
4387.360594
4381.23066
6318.593416
173077.7971
)


100
(
-2094.956291
-1754.540717
-1447.818231
-1244.585101
-1116.40312
-1025.693933
-966.6758555
-922.5524251
-890.8012911
-879.197911
-869.3983416
-867.7274071
-879.5090451
-889.3505006
-899.3917573
-918.2824575
-941.9638557
-959.3011234
-976.6157624
-1001.374113
-1025.03085
-1048.102303
-1067.538867
-1087.633122
-1109.481983
-1130.26329
-1150.830091
-1164.204038
-1171.388401
-1179.419001
-1183.105441
-1188.88501
-1187.282914
-1184.069375
-1186.505056
-1196.470731
-1212.722134
-1242.682116
-1280.171267
-1331.851041
-1398.094423
-1481.995725
-1552.901926
-1630.166512
-1701.214459
-1775.708314
-1857.175548
-1940.397049
-2014.74335
-2106.821357
-2190.564344
-2268.422974
-2363.121398
-2448.128099
-2533.597535
-2634.485127
-2750.103497
-2876.088796
-3018.03591
-3165.141545
-3318.433876
-3477.766889
-3643.587597
-3822.332546
-4005.425173
-4211.005273
-4440.21287
-4677.700781
-4923.763965
-5187.130265
-5462.312965
-5771.253323
-6107.064609
-6439.729698
-6786.38848
-7161.181939
-7572.554105
-8001.549257
-8423.433991
-8853.062539
-9313.600824
-9870.555486
-10471.32724
-11087.83682
-11732.87194
-12445.744
-13148.18212
-13892.93869
-14672.83528
-15408.9618
-16239.60222
-16954.41555
-17034.98044
-9797.766315
1680.192275
4178.826538
4935.433743
4930.459001
6970.799691
207348.0352
)


100
(
-2098.661648
-1722.936103
-1426.59805
-1227.133122
-1095.858328
-1012.896342
-948.8972222
-910.6856467
-879.978184
-863.2363722
-861.4873615
-859.8381553
-866.6841589
-884.8369847
-899.8995969
-914.833433
-937.9003511
-964.6273124
-987.1508552
-1008.230901
-1034.595213
-1061.018726
-1089.45363
-1111.925636
-1132.464865
-1153.187804
-1170.510505
-1188.759482
-1199.099902
-1200.287068
-1199.892848
-1199.004313
-1200.127665
-1206.428048
-1213.08289
-1229.842256
-1262.094353
-1311.523218
-1369.556858
-1443.12112
-1520.652016
-1603.032759
-1697.887369
-1782.256496
-1853.086542
-1936.316092
-2019.960527
-2103.101322
-2196.962619
-2297.346956