/*--------------------------------*- C++ -*----------------------------------*\
| =========                 |                                                 |
| \\      /  F ield         | OpenFOAM: The Open Source CFD Toolbox           |
|  \\    /   O peration     | Version:  2.3.1                                 |
|   \\  /    A nd           | Web:      www.OpenFOAM.org                      |
|    \\/     M anipulation  |                                                 |
\*---------------------------------------------------------------------------*/
FoamFile
{
    version     2.0;
    format      ascii;
    class       dictionary;
    location    "constant";
    object      la_r9;
}
// * * * * * * * * * * * * * * * * * * * * * * * * * * * * * * * * * * * * * //

la_r9_table
100
(

100
(
710.3798463
1172.045126
1470.633995
1628.571696
1730.310513
1765.070861
1780.921703
1764.925752
1741.067647
1698.066668
1658.485729
1604.386624
1551.553453
1498.01234
1437.506043
1377.298436
1317.893709
1256.368268
1195.251816
1135.564983
1077.749353
1020.918636
965.2721393
912.0583146
862.4333018
813.6593538
766.0523453
720.7083466
677.4736142
635.0639685
593.7343237
556.3835043
521.5050316
487.4719785
454.4358726
423.0684016
393.5861366
364.8325572
336.9493791
310.7377566
286.6782966
263.3564925
240.8568115
220.1283761
201.7873585
184.1681966
167.3318411
151.3902976
136.843623
122.9264692
109.6993515
97.41681495
86.58772836
76.3317476
66.67226531
58.17567681
50.93164602
44.18425703
37.92774059
32.3013878
27.35217471
22.78654326
18.59084271
14.92538575
11.75086275
8.865006032
6.258437705
4.13747827
2.304468426
0.6598550647
-0.6994487931
-1.705382923
-2.596088605
-3.336545517
-3.730324261
-4.074826549
-4.341419134
-4.312694362
-4.334028218
-4.217023172
-3.989970148
-3.862136132
-3.481396898
-3.266616964
-2.890956097
-2.653657121
-2.297937848
-2.053811019
-1.73929365
-1.412941967
-1.096343625
-0.8066552181
-0.5740985768
-0.3437160747
-0.1917666872
-0.07523657867
-0.09031361157
-0.05855649092
-0.005559101731
-4.346410085e-11
)


100
(
642.5501158
1051.940638
1329.06994
1436.77075
1509.677985
1527.054639
1483.226145
1466.688722
1408.727304
1359.353594
1310.652377
1233.776815
1172.203084
1105.905038
1032.302251
970.9523797
910.6348142
839.9431199
788.36965
736.7250594
679.8706165
633.3712136
590.2413019
544.8230227
498.8891426
466.2050808
430.5348569
393.2552117
357.420198
332.9981293
304.8995085
275.8130554
249.8182165
230.7444009
210.2164466
189.8253056
169.9234269
154.4235283
140.3973954
124.9348093
109.9560561
97.9191166
88.16566647
77.66110329
67.8341035
59.92810332
53.75871738
47.54156152
41.30669409
35.9574748
31.76466472
27.73857424
23.51194989
19.94026813
17.18754541
14.90530809
12.80940516
10.72809626
7.5783991
2.464321691
-2.689366359
-3.428625754
-1.537871936
-2.615140064
-6.262437483
-6.310161816
-4.880878168
-6.953928883
-9.047487308
-7.428689139
-6.674377883
-8.882521592
-8.167372665
-6.728166342
-11.53234422
-13.90708816
-8.218928856
-10.72003067
-12.83744031
-6.768630775
-10.87802649
-8.452172703
-6.833730938
-11.84336008
-4.373933217
-7.54833436
-7.810521216
-3.582358248
-7.968841813
-2.799101146
-4.635409393
-2.228339692
-5.09630908
-2.869082352
-5.610867845
-1.639350334
-1.348862614
-1.468190023
-2.399667181
-1.930451805
)


100
(
578.5637874
937.1200247
1191.624202
1278.14224
1342.841999
1327.914131
1293.491472
1240.496783
1191.73353
1122.747914
1071.303291
1001.012355
935.0215916
874.3700399
807.1982491
747.1738013
695.1229102
641.2195325
590.0653117
550.2199583
509.3306489
469.6149555
435.2272444
403.3020698
371.1468317
341.2325752
315.8032539
290.7395914
266.4682924
244.5968508
225.9217568
207.7402283
189.8444151
173.8406863
160.0986433
147.4829
135.2369298
124.2146442
114.779561
106.2126068
97.47468488
89.08833527
81.74499948
75.3598357
69.29999207
63.83878074
59.33468359
55.54171761
52.04302347
48.75664351
45.66156941
42.57088259
39.28873377
35.5359365
31.84755305
28.62791734
26.12989663
23.51619486
20.7435458
16.67788616
10.61217819
4.050547124
2.071090691
3.683087267
3.591541651
1.84659275
1.92045358
3.017971091
2.213497248
2.627806825
4.650165947
6.501754425
7.08094601
8.907194571
9.21633402
4.322798219
-1.532600939
0.9739763543
4.668641596
4.649148258
5.853035897
4.836416182
8.495583727
3.635989507
6.138378934
10.18762768
8.754267592
12.49635392
15.51994118
16.54663723
18.6931326
22.10346305
25.31238994
27.02148659
33.56984301
39.2742767
45.00594462
24.35935025
3.51954812
-1.015467978
)


100
(
516.257714
839.1351146
1071.444437
1163.388958
1202.022566
1173.816293
1146.140242
1083.955075
1038.867444
979.320696
920.9754251
865.0394572
801.855935
748.7218758
695.3499749
642.8751227
598.1124084
557.014975
517.9967161
482.9001362
452.9581022
423.296946
395.5935462
370.4234618
346.7756081
323.6962887
302.4318134
283.1210086
264.8851476
247.7111049
232.2980352
218.3713677
204.8147632
191.6666284
179.6964763
168.8878641
158.9377848
149.7118909
141.4218255
134.0287292
127.4103362
120.6407084
113.4189102
106.2445364
99.70197215
93.89537423
87.74423247
81.86412446
76.84857369
73.14509248
68.58344662
63.86956018
59.81887514
57.21975485
53.85760565
49.96393409
47.02093042
46.31000666
44.73279818
42.49092731
40.96489062
39.13027993
35.88107436
34.53085166
35.45059749
36.21823492
36.57936236
37.55089571
38.51850362
38.87158226
38.0853061
37.21018507
36.37881645
37.07763851
38.70476134
37.92417289
35.56787995
39.24997469
43.14224559
40.21485524
42.34852206
46.74617377
47.64206621
51.1294965
56.05475608
59.86523906
63.5358284
68.31123332
75.14579095
81.87305781
88.78975107
96.41157547
105.5334062
116.279432
129.7048677
147.0443736
162.3613673
91.7754234
38.92904445
32.64244426
)


100
(
455.9166276
760.0422914
976.5671889
1063.46056
1081.991989
1070.464763
1034.454971
989.6206761
938.9187524
892.6047152
839.272315
792.0091163
743.0977486
694.2912906
651.241139
610.3145357
572.753031
539.8066156
509.6625372
482.3431953
457.4244495
434.3312352
412.2235982
391.6668217
372.0696694
352.5878581
333.7989087
316.6367809
300.7479447
285.5299204
271.1439443
257.9024466
245.6948411
233.9850248
222.0847279
210.5715483
200.0278837
190.5855844
180.9729465
171.563535
162.9103333
155.9021489
149.6939263
142.3599115
135.1049651
129.7784465
126.5939392
121.0079431
115.3060115
111.6901984
110.2364648
106.3805064
101.9210983
99.51189995
98.84057749
96.38284946
93.12220545
92.73897713
93.30129142
93.04867105
92.33119512
92.45738093
92.14052223
90.72348132
88.37836235
86.27053535
84.86876684
84.97778448
84.48020475
84.2872471
85.50375018
88.23369549
90.14710792
88.93559402
88.65589823
93.25435459
98.89870261
100.8665877
102.5607056
107.6313634
114.0717086
119.4051638
121.4705279
125.6692087
132.410908
137.7052299
144.6676391
150.9755767
159.0310106
163.1895042
169.1810048
175.1926566
180.5582038
188.5457803
202.1970306
224.4088349
233.2241969
163.5545153
99.11855965
131.0897653
)


100
(
402.8766033
690.2348388
891.8921452
970.6488415
991.0512925
989.9692207
957.7625584
925.2018247
883.9287259
844.7508153
805.4658828
763.7213639
724.9803837
686.844627
650.3705051
617.5314099
587.7766176
560.8737322
536.3941225
513.920053
493.4336485
474.1013203
455.3823716
437.3847266
419.9296796
401.9196165
383.266568
364.9219493
348.1886651
333.3242343
319.4217431
305.4484946
291.9628153
279.8501934
269.0803343
257.5052878
245.9459528
236.069421
229.1997558
220.4351252
210.8764285
202.7544393
198.2842047
193.7302631
186.9377288
180.9621842
180.019896
180.3553996
175.6076851
171.5909984
171.1546316
171.5723705
169.0281386
166.3835544
165.5631036
165.4731378
164.3365389
163.1924482
161.0862983
158.8894306
157.8299114
157.1317961
155.1600214
153.4788846
153.5478967
154.9223563
155.1292819
154.7778628
156.1461459
158.4895733
160.9143006
161.9012336
162.5282048
163.5372002
167.4025822
169.8349335
173.3181701
179.7834209
185.1621355
185.681541
184.4797138
185.8592395
191.2261953
193.3232627
192.3730441
187.5065124
186.8573219
185.1661935
174.270832
168.1744668
156.7623758
140.6798189
130.5932083
120.117109
117.7102126
132.4484686
144.3170885
149.4135356
132.6109317
303.0179899
)


100
(
344.7243929
622.5500316
811.8123691
890.9836465
925.7392068
926.6989729
910.8315872
884.6709835
857.7809256
826.4354338
796.7595848
765.9127436
734.2287143
704.3780541
675.7407401
648.5862183
623.9605197
601.8430125
581.4393604
562.0316212
543.7952688
526.6658683
510.1062629
493.8988996
477.6879445
460.7530767
441.4625217
420.4032723
400.0928599
383.2129217
369.9299534
358.0230212
344.8388599
331.7456548
321.3239648
312.9143551
302.5023797
292.3180972
286.1085295
282.975557
276.1071107
268.2212181
263.4769841
262.3284222
259.5402364
253.9615577
252.8097439
254.3147116
255.8929998
252.7493283
252.0940303
252.1291421
251.9295261
250.1255869
246.6269579
243.1236835
240.358445
239.3233805
238.5670613
236.3336696
234.1948119
234.2392636
236.4091942
239.0782985
239.3555696
240.5774065
242.1411742
242.0826911
242.3348963
241.2469931
239.3568092
239.5330179
242.4749495
243.514461
244.1814142
244.9255523
239.7079108
234.7598754
226.6634696
220.6774299
216.9039905
210.3611937
196.1112765
178.1054586
163.0744697
147.82321
127.6190323
112.7762037
94.27782383
72.47560114
60.69854948
54.55932356
48.10288593
49.86998238
57.85089136
78.46778535
32.13198015
24.48110055
65.31536405
540.5130629
)


100
(
282.8329528
560.6812019
740.4798207
827.5558372
870.7545278
880.5698255
878.4702433
864.280424
847.7377104
828.3358578
805.8451376
783.9586305
760.81207
737.0377456
714.4447684
692.6225096
671.7273325
652.3353952
634.7627556
617.513452
600.877349
584.8410674
569.3220424
554.3278244
539.8703676
524.4227001
506.7371352
485.31344
461.6328385
440.1291067
424.7919567
415.6858368
406.8547076
395.4045456
384.5341149
378.6652186
373.5912821
364.8780766
357.4727183
356.2824145
356.7995386
352.1599688
347.1246786
346.3463139
347.2500954
345.8158682
343.8789643
343.8271554
343.9307278
343.432731
341.5193415
338.2446553
334.5662068
331.334495
330.5845674
330.8862059
328.1659095
325.5721112
325.476993
327.2197624
328.725379
328.1392496
328.3700468
328.1170028
324.7143073
321.3674155
319.3722546
315.1877483
310.5530099
309.1995496
307.1161443
302.4728796
296.7773723
285.3457742
269.8840096
255.8351025
241.2662896
227.3875949
212.3105946
196.8674819
176.1306415
155.4601758
138.3746821
124.0861359
110.2067616
98.61621914
91.68483316
90.07136894
89.66414546
97.91573801
109.4125238
116.9549416
131.098712
149.322039
167.6430762
200.3612496
93.94792602
-14.68418842
-40.36677694
821.4718961
)


100
(
223.3831265
505.197856
680.1230249
773.8285586
823.0963573
848.3851529
856.4019206
857.1253195
849.8486154
840.464089
827.2565042
811.6934716
796.074915
778.5349916
760.2630186
742.4729319
724.6916248
708.1835153
692.599297
676.2314271
660.7064001
645.7411337
631.1032896
616.645182
602.8435814
590.2675178
576.5530027
558.9869323
536.6819853
512.0063585
491.8413453
480.6864068
477.1737896
472.0842854
463.4131089
457.4033793
456.1191911
453.9362094
447.3195148
445.4574351
447.1843254
448.9972144
446.24777
444.7671531
444.4645153
444.2975365
442.8592156
439.4871527
435.151419
430.534532
427.3270946
427.0593811
426.4722638
423.4920705
420.6427938
420.5688171
421.8738382
422.5396057
421.0345266
419.6120134
417.3966105
411.4450419
404.4091832
397.2395014
387.6902576
377.2082068
369.5977092
362.5765798
353.2048422
342.0597472
325.6678486
302.7673155
279.0683634
259.5876713
241.2848332
224.1482467
208.1368033
194.2312963
177.9941009
164.4073921
157.1499447
156.9215944
160.9357248
161.1207995
165.9461317
169.9161648
180.2122024
175.6091344
202.6058443
224.8180237
233.6480926
238.0867368
240.1896747
242.678123
273.7116385
275.4314905
185.1628863
78.01418396
-8.03261914
1120.028689
)


100
(
167.2711145
452.8193478
627.0814883
725.078435
785.0528917
823.1279363
844.0172364
856.0884219
861.0775335
859.5609497
854.9476816
845.8541564
835.0197693
823.4590134
809.3857967
794.5701949
779.8586023
765.7408012
750.7335651
736.0769133
721.3264141
707.5406122
694.780501
682.0592771
669.1865503
657.5915066
647.9425682
637.2929137
620.946103
599.3357552
575.8488215
560.5826707
556.394885
558.5394141
556.4149779
551.0204947
550.710265
552.7120731
552.3499123
549.5148326
549.3601763
549.9360932
549.8181086
547.0270643
542.7477624
538.1890946
534.006433
531.9009098
530.4871054
526.5212949
521.4072936
518.2194835
518.0367398
519.1726589
518.3365367
515.4013984
511.849174
506.1874661
495.7390086
483.3414538
471.3714326
458.6209223
444.6947472
431.6224994
417.7204163
401.4294911
384.251258
364.7052621
341.351157
314.9150473
290.8284633
270.7288976
253.8334032
243.2465765
237.0099008
233.3579114
227.8820954
225.0812567
228.9421426
238.8364709
250.1950703
256.6853798
263.2009858
268.0517954
274.0022535
274.4780165
271.094387
286.4419104
297.3444514
298.9310074
292.7797417
271.4625514
264.6058158
238.7966166
269.0400136
232.8626658
202.8790985
137.1283087
76.22339295
1418.043095
)


100
(
118.1764855
404.8815544
578.4705743
681.4746046
753.9568136
802.7985115
837.9290817
860.3471001
876.35774
883.6157385
885.320721
882.7606211
875.6913381
867.7664893
858.6445454
846.4159227
833.7980248
821.2624647
808.8370097
796.0780054
783.4479077
770.7181745
759.4257935
750.0268626
740.954188
731.2128114
722.8879139
716.8111304
709.5480328
693.8234461
675.3446132
661.4814701
650.1827041
653.316219
658.0998623
658.2412598
657.6330082
658.7063541
659.9087311
658.9334413
655.5977115
650.3095099
644.0555555
638.9165371
635.9703993
632.4510333
627.1116248
622.2907156
620.152843
620.0806863
618.2951003
613.7674924
608.0144876
602.612832
595.4015367
584.6859846
568.479626
551.9206647
530.8667931
509.3384382
489.3485289
469.8850538
451.2522823
432.7187778
411.1450596
387.1573247
361.0898011
337.2391248
318.9764496
304.692315
298.0241866
297.7658486
300.9987783
304.6800782
306.7056492
309.3064326
318.4751487
330.9130798
341.9008207
346.8529115
345.4109981
342.8545287
347.2057081
356.863613
336.5438302
338.4863232
316.8500424
325.7332797
317.6991274
304.4187464
277.6494797
234.782057
171.5276109
108.1980509
105.5907466
79.62405312
134.6601286
124.1048658
102.3067265
1668.414395
)


100
(
69.41053042
358.1927963
532.9963945
644.8855926
726.699437
788.021
834.4981793
869.0614867
893.1862619
909.3905049
916.9197061
919.3502086
916.6881925
910.6157543
904.343156
896.7474344
885.8577937
875.3794525
865.0913835
855.8222474
846.4028653
836.9062563
827.2477447
819.9005012
815.2375066
810.9875157
805.4414643
801.1895239
798.9995273
796.0556601
788.3349978
770.1155838
755.647747
761.3678304
763.8637598
767.4259815
767.6812093
765.803427
761.9553837
757.2179068
752.6646952
747.1773668
739.5250466
730.7917822
724.0638563
720.8680058
718.542739
713.9477743
708.0796446
702.505237
696.2859349
686.7777206
672.1995533
653.7467524
632.0449998
607.4231047
583.6598526
558.7747631
533.8135891
512.450237
489.2146774
466.4919378
444.1017095
421.1476136
399.7080008
381.5429606
367.9865667
364.4231126
368.697556
377.1070648
385.7604801
393.9603288
395.0971026
398.4579656
406.6038794
413.8009316
415.3860031
413.5063145
406.5282313
399.8909846
399.5392484
396.2734139
378.6685704
367.1634195
339.8210353
322.828009
263.5262347
258.611041
230.2897784
172.8850866
114.3098986
27.4273951
-91.54601303
-188.3063634
-261.3162333
-188.8023497
-32.02822315
30.5769557
75.1807819
1858.499895
)


100
(
17.63090827
314.8621859
493.030749
611.2459762
702.3202787
776.4656426
833.070479
878.4558914
910.8906311
934.3554586
947.8750681
954.2778496
955.7994877
952.168138
946.8198676
941.8526934
935.9800909
927.4661511
920.2174853
913.8264184
908.9252348
904.1266953
899.1530121
893.997406
891.1432268
891.1414876
891.6223485
890.1711492
889.0616052
889.794952
890.2612207
886.5040172
879.1065819
871.636951
869.3218507
867.4167245
864.860856
860.808603
855.1947307
847.6134991
840.2086036
834.632323
829.729929
823.3705989
814.6235109
806.4842325
799.3469676
791.4898036
779.1595558
764.4701036
745.7976227
721.8587797
694.1506167
665.8909645
633.2382055
609.2794186
584.0789269
560.1813833
537.9493459
517.2378791
495.5673642
478.1770119
459.4378988
444.7480306
437.7464595
438.0665432
444.8044899
454.238498
468.6772875
481.2342832
487.1145355
489.6690718
488.1284918
485.0574375
484.0625757
482.1511495
464.8961757
439.076835
429.0317688
427.2967173
411.6572664
373.613704
333.3956109
307.3255193
270.8397659
198.2760462
136.3960325
101.3407758
3.815008197
-108.8575605
-226.6601315
-360.0384118
-526.8668475
-674.959007
-797.9143977
-561.958861
-336.1262084
-150.8116026
-18.96992133
2080.957818
)


100
(
-31.64330487
272.5639606
454.5346687
580.2088948
681.582672
765.2406093
833.3931711
887.1018282
928.0096576
956.954997
976.7379814
986.2101815
990.9885642
991.2924718
987.5049299
983.6901084
980.9844129
978.2669789
974.0354986
971.4632391
970.0205286
970.2439726
971.0989432
971.3510392
971.1035837
972.3949111
975.4484003
978.9021629
980.7875791
981.4189736
982.1862289
981.5376726
978.6166513
972.8878312
966.3338525
958.9368424
951.0613949
943.9329335
937.6153191
931.6055752
924.2612408
916.4228721
909.5760474
903.4875537
893.7766313
882.0482586
866.622477
847.4799519
823.0914129
794.258652
759.4679372
729.3648399
699.5816112
670.8650933
643.0591156
620.2626347
597.9283837
584.7475775
567.2770442
550.6138839
535.2056876
522.4609901
516.4681218
516.0938264
520.3822342
531.8568969
544.4277702
552.1925974
553.6767491
552.6154532
549.4674526
546.3432963
543.7525364
537.3971491
524.2357398
503.1690928
480.60719
447.0855553
412.8129171
384.3209897
331.9020943
272.6732189
233.7046178
172.2452564
71.65422978
-17.84716181
-65.74359013
-173.0949044
-347.2427027
-507.762141
-698.0715636
-972.2219347
-1196.720384
-1373.603592
-1475.062311
-1079.545961
-759.0734799
-475.3716343
-220.5840715
2081.839208
)


100
(
-78.68514828
230.5375008
418.5643164
550.9054088
662.2299171
754.4843905
833.2124443
894.910133
943.0346866
976.7713373
1000.999814
1015.966728
1022.002127
1025.670464
1026.345813
1024.231151
1023.635494
1024.834709
1026.819562
1028.429187
1031.265878
1035.236627
1040.608522
1046.977953
1052.133595
1055.821734
1059.3423
1063.848157
1067.85349
1069.567349
1069.236047
1067.235675
1063.000535
1056.405482
1048.969911
1040.834781
1032.76776
1022.589665
1013.847499
1006.618065
999.1939794
990.4426278
980.7024884
967.9106025
952.760191
932.3773852
904.6867826
873.8978248
840.6881317
803.9205809
769.7098578
737.4786884
709.1470462
693.0386934
676.8002735
661.2288667
648.7480435
636.5633138
621.7261803
611.3395642
599.8753292
595.3942246
599.7715173
608.8855929
619.3293199
625.1322825
626.2160125
617.1029309
604.6280534
597.9711588
594.3016453
584.6841743
565.0887807
537.7138001
508.0374667
476.9565502
445.0219818
400.0564786
337.183958
261.6922128
198.1578008
119.409788
35.55926484
-89.66936087
-207.2240375
-289.097195
-395.0633751
-556.8313689
-762.0163753
-1006.562736
-1266.746268
-1823.068
-1975.997869
-2192.672817
-2288.102065
-1767.857276
-1335.734172
-938.901671
-581.4243536
2134.823513
)


100
(
-119.5685011
190.6877801
383.610569
524.5965023
642.5609868
744.8112399
831.2241541
901.4056857
955.1339279
994.2682049
1021.098541
1040.296944
1051.211836
1055.800045
1060.307942
1063.640811
1065.598514
1069.839323
1076.300808
1083.850008
1091.879906
1100.053958
1109.125744
1118.899758
1128.689111
1136.76178
1142.543007
1146.693489
1149.499979
1149.863045
1148.143707
1143.058683
1137.971485
1129.852513
1120.973229
1112.864192
1104.04007
1095.832706
1086.010453
1075.612912
1064.229913
1051.599721
1032.258703
1012.52573
986.7150563
956.0371425
920.4047067
885.1102646
842.349101
815.2355058
788.3658449
767.8180654
752.207558
743.4650437
734.3529638
726.5993265
713.2942075
698.2341633
687.7750404
679.8602458
681.11091
685.4740258
691.9854075
700.5641029
703.2901532
694.7515466
681.2986694
663.8324366
642.9245997
622.7415674
605.5708926
583.6034042
539.2190181
489.1635788
451.9885551
417.1833848
362.8533263
283.1892683
189.738235
90.72459665
-2.556191123
-115.2900884
-278.5620147
-414.6159249
-547.5014823
-684.9404969
-870.0835626
-1095.375885
-1376.54136
-1640.850632
-1987.38641
-2478.357754
-2864.886563
-3103.830183
-3167.327789
-2603.225863
-2068.097485
-1554.199771
-1089.105463
2097.037269
)


100
(
-159.5716332
152.1123678
350.5354368
498.1102839
623.3713289
735.0766587
828.095196
905.2754821
964.4222607
1008.681116
1038.49151
1059.973805
1075.5475
1084.591886
1090.560406
1098.313752
1106.478899
1114.476813
1124.393409
1136.536532
1149.63845
1163.613971
1176.083368
1188.660832
1200.191563
1211.113006
1219.649047
1223.463557
1225.051666
1222.654653
1217.669016
1211.256168
1202.480845
1194.676842
1186.554645
1177.212955
1167.700378
1158.623574
1145.331795
1132.595043
1116.178539
1094.89843
1068.387914
1036.184597
996.095909
959.698641
925.0977539
892.5754873
865.247357
844.0519341
828.1849067
823.3437448
816.5445501
810.8336897
802.6170992
792.9610356
777.6344079
766.6639244
756.3775367
754.7884842
763.1765442
770.9384873
777.7279987
773.8602331
760.2460697
735.6100953
707.1127022
682.0603305
656.0922085
622.5765686
579.3740137
525.5761809
471.8535204
414.3220722
358.7573857
299.7485686
210.8861913
90.67586866
-16.37709847
-135.0956813
-289.1589559
-462.8067086
-652.6412586
-794.9950611
-965.7572947
-1223.69267
-1483.60038
-1750.74901
-2114.261776
-2477.257849
-2918.267268
-3320.68204
-3985.971358
-4256.059688
-4184.978853
-3542.243377
-2939.543197
-2320.756774
-1737.349278
1827.331215
)


100
(
-200.2214783
116.1996504
319.0841794
471.8625283
605.3996417
723.2628405
824.1118698
906.7304098
970.6414341
1018.872655
1053.821349
1075.811703
1094.674391
1109.38792
1119.84557
1129.862228
1142.937358
1157.245438
1172.165486
1187.314207
1204.66074
1222.562864
1239.918787
1254.763589
1267.812293
1278.87373
1287.254025
1291.190302
1290.487354
1285.529634
1279.790877
1270.491446
1261.083514
1251.830301
1240.588725
1233.376757
1223.001843
1209.909352
1194.219161
1173.827433
1143.767239
1115.988198
1081.70429
1043.588455
1005.163614
967.2925036
930.646461
915.28659
902.2459488
894.7031168
892.3367485
890.6949432
883.5264297
874.2148542
859.8751848
845.9579982
835.9786528
828.4144093
829.3939866
832.5645557
835.5845695
837.5719558
828.2636802
809.8305047
784.6556078
754.095654
716.0818224
673.9288343
631.2148145
578.5294767
505.2996073
426.9068522
357.7939713
291.1840775
208.9973725
97.15592188
-24.54459974
-152.6450066
-283.094285
-448.3187506
-680.8531083
-901.639472
-1081.750866
-1258.764106
-1517.616323
-1842.358112
-2177.836893
-2544.700284
-2998.808568
-3455.295065
-4006.570302
-4543.319481
-5251.345713
-5526.914559
-5381.922001
-4595.741351
-3901.125294
-3207.139281
-2525.904343
1384.310541
)


100
(
-239.7628546
78.76854068
286.5901367
446.0899773
588.028531
710.7812301
818.2366526
905.7272826
974.4933508
1024.686351
1063.545999
1091.510043
1109.466044
1128.58639
1145.652551
1160.536232
1176.280825
1195.907342
1216.544598
1237.962201
1256.070974
1277.593587
1297.190047
1315.245956
1329.735931
1338.537209
1345.479302
1347.258167
1345.202934
1341.204875
1329.816701
1322.801948
1312.029133
1302.300585
1290.922889
1279.034288
1262.174655
1249.242272
1225.921483
1197.865886
1162.554786
1124.179548
1075.73607
1044.699251
1012.429328
988.536753
968.9117647
960.0385911
955.6362889
959.745873
957.0061529
950.3947336
939.4823197
921.8260543
903.7398673
892.980013
887.9841589
887.5852507
893.3944635
892.9948247
888.5234281
871.4468276
845.5889506
811.3312587
773.0833033
733.3604782
686.1201991
626.9637126
552.3044617
468.698402
383.8648577
292.6847512
199.0254671
102.165096
-20.59245796
-174.9974354
-326.2475512
-468.2934921
-652.9171603
-889.6648961
-1152.268653
-1393.855091
-1593.053958
-1869.765373
-2213.402485
-2613.338822
-3056.015849
-3544.191244
-4133.914595
-4615.337331
-5338.486177
-5985.153372
-6609.589195
-7000.666467
-6705.52306
-5772.990921
-4968.405919
-4183.792279
-3404.5908
774.8892601
)


100
(
-277.5441747
42.87057161
255.2055745
421.4321069
568.1413405
698.0981671
810.096398
901.9750458
974.530606
1028.755339
1068.306683
1100.623358
1125.472022
1143.625852
1165.5676
1187.33292
1208.407335
1230.27746
1257.023946
1281.276664
1303.578464
1326.907013
1348.800053
1367.715842
1382.623674
1391.721632
1394.434537
1392.903039
1390.359311
1384.513012
1377.572846
1366.161006
1353.461896
1344.085553
1331.924608
1315.700742
1296.904042
1269.78351
1239.631923
1205.714985
1166.471453
1124.767813
1089.36427
1052.285904
1032.144396
1024.787704
1021.53863
1020.164239
1022.114488
1019.210708
1008.415027
996.0242826
977.5468666
961.9025416
946.7908607
936.0685733
938.3936889
939.2482635
936.9024283
926.2954859
900.7703071
867.8370642
830.6355718
786.429217
735.2043332
672.8980767
605.8366674
521.7014449
422.6062707
317.4833902
214.111094
105.0506957
-22.16328301
-178.9503427
-346.971968
-519.3311295
-695.9259939
-881.6765474
-1125.403917
-1419.6888
-1693.283553
-1963.942773
-2248.706746
-2624.733789
-3062.139065
-3586.35806
-4139.644819
-4703.837964
-5362.597937
-5957.330381
-6816.143777
-7496.42885
-8209.608666
-8478.57555
-8097.013527
-7082.103749
-6187.057354
-5277.152352
-4381.69062
271.0820022
)


100
(
-307.5185868
8.54783903
224.5866277
397.0370001
547.8708738
684.7313188
800.2382091
895.7434561
970.8638188
1029.111985
1071.303459
1104.818262
1134.676682
1159.880392
1181.341634
1208.063984
1235.373683
1262.823861
1288.914604
1317.538456
1345.716393
1372.055903
1394.518284
1411.393814
1425.630867
1433.287952
1435.508849
1433.686369
1423.065726
1419.375089
1411.638078
1403.753041
1391.868193
1375.192498
1358.517593
1341.770044
1315.613217
1284.254035
1247.376706
1204.233846
1162.972378
1130.397856
1101.565235
1083.518194
1074.411258
1073.940243
1080.844392
1084.562184
1078.912635
1065.793674
1050.564663
1023.511851
1008.100644
997.2863653
990.7556741
986.2117893
982.8992273
972.6701105
955.3587053
927.2616762
889.0458199
842.0515314
790.7464136
735.6218686
668.2567502
584.4779363
476.8295812
363.1524194
245.3203335
124.5748075
-8.602964123
-154.0243021
-322.5827387
-520.9185648
-722.4545218
-926.6646636
-1157.601754
-1432.535001
-1713.950498
-2001.395333
-2286.02329
-2625.350351
-3036.524422
-3511.705659
-4030.466646
-4670.413124
-5303.324018
-5999.71643
-6699.935778
-7403.149127
-8275.740702
-9051.749956
-9711.633119
-10032.95867
-9564.139687
-8515.775133
-7549.391605
-6531.032146
-5444.538518
-154.5777852
)


100
(
-338.7558679
-24.00366262
195.6340058
370.878336
527.6690707
668.2044581
788.7041862
887.3774307
964.3287383
1025.11437
1072.203525
1106.683108
1138.866448
1169.773596
1198.153709
1224.305216
1256.610628
1289.357797
1321.780448
1351.096253
1381.398197
1408.995282
1432.561615
1449.983835
1458.979238
1464.304362
1465.834605
1463.481153
1458.158987
1445.537605
1435.716758
1428.943405
1418.35315
1401.616473
1380.29173
1348.330728
1319.627412
1284.167704
1245.621462
1207.439983
1172.743145
1137.994825
1128.361254
1123.690589
1125.383434
1130.73283
1136.643712
1131.315062
1119.998689
1099.625642
1074.513809
1055.738595
1037.107345
1029.127397
1035.289278
1030.078093
1018.134828
992.5112612
951.4745318
904.960429
855.0064508
796.2427837
730.347156
649.8447231
561.426213
449.6703053
322.7990381
187.7908497
52.69447897
-93.17353104
-267.1356001
-475.0050359
-705.1824115
-926.8292506
-1158.244859
-1413.349326
-1703.623475
-2033.692861
-2353.475436
-2659.41563
-2993.807131
-3438.152366
-3947.773495
-4516.791238
-5187.078159
-5905.446219
-6587.747596
-7328.80702
-8115.44274
-8892.045173
-9869.625221
-10727.78416
-11355.45871
-11517.41244
-11097.36754
-9995.533918
-9018.187108
-7917.732291
-6760.473432
-1650.08834
)


100
(
-372.0423993
-55.9133602
165.3264308
345.0111427
507.6718721
650.61067
774.9995837
876.4395777
956.4882092
1016.959017
1067.63705
1108.432218
1140.177945
1174.094574
1208.323548
1241.371781
1272.381542
1309.438127
1345.790568
1380.664
1411.390026
1437.991686
1461.605351
1478.095904
1487.547456
1490.017925
1484.631102
1483.860531
1479.033601
1471.716925
1458.915261
1440.478871
1429.970824
1413.479545
1388.073391
1355.671523
1318.557728
1268.633168
1236.707452
1204.653092
1182.753494
1168.461609
1164.91774
1167.080089
1180.260902
1183.02689
1177.919935
1164.568595
1147.863317
1112.775521
1095.029893
1078.231408
1068.923679
1067.029938
1063.692985
1057.2277
1032.703438
994.0865938
940.8586946
877.6466058
812.4312453
743.1692887
658.7918138
553.3466908
419.4888009
277.8015501
130.880079
-16.45209302
-179.3773619
-360.7572886
-572.9455686
-823.3501044
-1078.086885
-1337.139579
-1627.742227
-1974.158317
-2347.989428
-2696.487602
-3021.552095
-3356.731512
-3795.624334
-4349.241686
-4938.000859
-5598.75338
-6359.878433
-7118.682264
-7917.44584
-8728.223491
-9529.46015
-10425.06596
-11368.68862
-12237.72404
-12848.67056
-12979.26212
-12630.63223
-11501.56871
-10500.6628
-9364.770035
-8122.096253
-389.1997554
)


100
(
-403.7583017
-87.90394432
135.82114
319.7817904
485.3276212
632.3806978
759.0319084
862.7298269
945.3576328
1009.009736
1058.62154
1103.673653
1142.705385
1175.364811
1212.533383
1250.945899
1288.620351
1324.360769
1363.399592
1400.994125
1434.786332
1462.662686
1480.825594
1496.38308
1504.505506
1507.34285
1505.568148
1493.919693
1490.723914
1484.215803
1472.230348
1457.104843
1435.399081
1404.599843
1381.514345
1345.602856
1308.284285
1271.766278
1232.001676
1201.695155
1194.6622
1196.377837
1204.266415
1219.319794
1231.11948
1229.784176
1215.95421
1187.80574
1158.257335
1132.802181
1106.482821
1096.354037
1098.714707
1092.197524
1082.599236
1058.692161
1016.834461
965.2432588
902.0297903
832.3741596
751.2159131
658.5022962
555.3316464
423.6645862
269.4245937
108.7654024
-51.74804001
-224.0415041
-428.7633713
-669.7464366
-951.2808246
-1219.224828
-1491.667634
-1784.373827
-2129.023281
-2540.49291
-2962.963034
-3359.155113
-3741.719889
-4158.871429
-4697.230938
-5326.435793
-5994.260121
-6789.539183
-7603.57999
-8393.839654
-9206.95677
-10116.66989
-10902.07829
-11923.02361
-12837.10582
-13896.40003
-14347.17744
-14279.75639
-14251.00736
-13090.20032
-12014.96849
-10816.33632
-9456.500063
1694.510835
)


100
(
-428.8727031
-117.9030972