/*--------------------------------*- C++ -*----------------------------------*\
| =========                 |                                                 |
| \\      /  F ield         | OpenFOAM: The Open Source CFD Toolbox           |
|  \\    /   O peration     | Version:  2.3.1                                 |
|   \\  /    A nd           | Web:      www.OpenFOAM.org                      |
|    \\/     M anipulation  |                                                 |
\*---------------------------------------------------------------------------*/
FoamFile
{
    version     2.0;
    format      ascii;
    class       dictionary;
    location    "constant";
    object      la_r13;
}
// * * * * * * * * * * * * * * * * * * * * * * * * * * * * * * * * * * * * * //

la_r13_table
100
(

100
(
-903.4735448
-734.9264096
-440.0467779
-488.6372767
-485.3353694
-490.2569077
-471.6489801
-452.3182269
-431.6232403
-411.2793781
-383.9588246
-376.5641951
-354.9892731
-337.4231643
-319.9406588
-297.0166974
-281.2249521
-263.8790431
-241.2153242
-226.8105819
-213.0727391
-196.8799808
-182.2081323
-171.8344471
-162.8462
-150.0895125
-140.8314753
-130.7031733
-119.8701347
-107.9612815
-100.4049363
-94.29063453
-89.38283917
-82.56881405
-77.3360824
-70.65190589
-60.68920651
-53.16858119
-47.40948885
-42.93135387
-36.90967574
-32.5144074
-28.73020369
-25.98698261
-22.56466739
-20.16315723
-17.76930811
-16.12053367
-11.36214959
-8.142850317
-6.021206312
-4.501619403
-2.413183208
-1.002506647
-0.2312698792
0.4067522492
0.9972756478
1.315964621
1.463548538
1.893627361
2.686388651
3.067384987
3.375313778
3.692626361
3.975052717
4.161385794
4.191476192
4.303205422
4.257719875
4.220673629
4.098277975
3.94181062
3.755526797
3.530020295
3.21757609
2.916848911
2.747284097
2.422827478
2.142662168
1.928634173
1.623425275
1.448103116
1.20419521
1.043116674
0.8660987942
0.7620011571
0.6355073644
0.5753350841
0.5015136073
0.4329903879
0.374493855
0.3295801398
0.289955596
0.2424930053
0.1956410854
0.148990999
0.1114168637
0.07658980493
0.0479214881
4.718503039e-10
)


100
(
-847.0619381
-776.5945722
-446.5023115
-478.3350516
-474.4130615
-471.4276328
-446.4959863
-431.0656559
-405.53475
-389.2146317
-364.4521885
-350.1745511
-333.6116386
-313.7310325
-295.8834159
-279.2894528
-262.0160529
-240.9808462
-227.6649214
-212.7569022
-195.6082522
-182.5840414
-171.8843145
-160.0767292
-147.9578876
-139.8564956
-131.8240617
-121.3279299
-109.4157368
-101.2931486
-94.46369979
-86.72696184
-80.24863567
-75.55739983
-71.35252768
-65.09624159
-56.68394821
-50.09197469
-45.28440784
-40.27062863
-34.56375796
-30.37564332
-27.18791794
-24.36464588
-20.96569783
-18.55706377
-16.70169738
-15.11627019
-11.9221797
-9.366100739
-7.408926041
-5.670076811
-3.864582582
-2.44132206
-1.566296963
-0.6773547854
-0.05445924819
0.5535377847
0.8098015673
1.35910426
2.059948589
2.714171312
2.975697729
3.631201001
4.340023382
4.792473107
5.202152763
5.925043649
6.518873458
6.831029513
7.370859778
8.075512177
8.6639147
9.264730967
10.54978973
11.30854989
10.84439353
11.64404881
12.64359986
12.22256808
13.40933846
13.64349885
14.039827
15.77665701
15.3040448
16.70400385
18.45911333
18.27551716
21.39328076
21.45431105
22.90633216
23.20001337
24.99462744
23.42825324
23.85517082
19.19036921
18.09653112
36.2923955
16.78104915
5.341238318
)


100
(
-713.2531675
-698.9098881
-425.326074
-454.3340047
-450.5764277
-440.4093324
-421.9948646
-404.5612777
-382.2969513
-364.1844854
-344.1678567
-325.482799
-313.6568202
-294.9158597
-275.8650776
-263.0970339
-247.5964351
-227.9634164
-213.6550764
-203.2495011
-186.9127852
-173.2765053
-163.0311493
-153.9508677
-141.5643209
-132.8744213
-125.9099486
-118.8159544
-108.4526438
-100.2887349
-92.86346503
-86.60106468
-79.25726896
-74.11588458
-70.07842695
-66.46279012
-61.33448863
-55.56985759
-50.44282015
-45.62249615
-41.07357013
-36.71843166
-33.08750998
-30.05956155
-27.02033481
-24.49813529
-22.0368886
-20.33580936
-18.37414994
-16.75444051
-14.38467405
-12.46624435
-10.33622425
-8.719664622
-7.040470931
-5.663363215
-4.091487546
-2.809140469
-1.518656438
-0.5770503694
0.2950851604
1.227424477
2.162881437
3.006305609
4.280415787
5.052432089
6.006703081
7.614692138
9.015027445
9.679035478
10.6643263
12.01485655
12.71263815
13.7795746
16.43120842
18.50532389
19.85253955
22.70608974
24.94500491
24.50197743
27.46966257
29.77192383
29.58497908
34.79299907
36.48235571
37.99541098
38.89006589
39.869986
39.47176947
34.18237951
34.8314762
26.06090773
14.58482114
5.816983507
-6.74847636
-28.54962061
50.73951192
85.0680791
48.6673981
25.11835498
)


100
(
-516.6748937
-641.9900072
-411.8059458
-432.9358387
-424.9377218
-414.2639919
-399.1510705
-379.3243241
-362.7911914
-342.4965255
-327.2718642
-308.48769
-293.0867206
-281.6756157
-263.2181724
-247.6354652
-237.3658524
-222.6113826
-205.5136923
-194.3420323
-185.2439234
-171.6017749
-159.6575771
-151.1914062
-143.7867513
-133.568443
-125.7417155
-119.8959124
-114.3187561
-106.4840349
-98.87702979
-92.73615411
-86.99284652
-81.71257836
-76.23914139
-72.92111749
-69.80304593
-67.11402408
-62.21540313
-57.85278409
-53.8576402
-50.15314285
-47.05847581
-43.37523239
-40.45637772
-37.48017117
-35.56507207
-32.31461249
-30.22180557
-28.6887276
-27.34414401
-24.93762139
-22.429401
-20.20944152
-17.88962111
-15.85834
-13.32287679
-11.2618532
-8.232604451
-5.745032019
-3.454719948
-2.143749385
-0.3839444327
0.8290396406
1.850842721
2.829984395
3.44752444
4.160456319
5.905285863
7.587590265
8.408978224
9.438946586
10.78766806
11.21566284
12.06675892
17.31045096
23.62133028
24.1469104
23.78389596
28.4856823
32.04517023
33.48336635
32.43149993
39.56785797
35.79787962
29.35759887
31.10818677
26.89750119
17.46366017
3.552119658
-5.150303006
-17.92172787
-41.97846413
-72.96509462
-104.8656663
-106.5318173
128.3274493
147.9453281
99.87501403
57.23254354
)


100
(
-362.7907938
-585.6653855
-400.6197158
-406.57195
-401.2552956
-393.3380287
-376.9237302
-360.3967065
-344.1976507
-327.4439425
-310.323142
-296.7670319
-279.2798718
-267.7850573
-256.4894646
-240.0533599
-227.843334
-219.2171027
-206.7800065
-192.2021992
-183.2868975
-175.5309451
-165.0885147
-154.3144635
-147.5390087
-141.6813799
-134.5368638
-127.195772
-122.5036603
-118.106958
-113.2600319
-106.0683876
-100.6257119
-96.01580275
-92.92704778
-87.68145339
-84.10683376
-81.67861999
-81.46220652
-77.29684686
-73.56664145
-69.50285323
-67.45511717
-64.60624441
-61.34310411
-56.70301014
-54.7329801
-51.89947582
-47.61891254
-44.10647123
-43.01222388
-40.61812067
-37.47176429
-34.00932009
-31.47665124
-28.76628008
-26.24964339
-24.13226494
-21.92948018
-18.9771252
-16.23001252
-14.05646139
-12.26457991
-10.04296012
-8.289969314
-6.970574754
-6.119442474
-5.520510727
-5.243678158
-3.968865627
-2.728278159
-1.31234666
0.4410610868
2.079627688
-0.3470987418
0.638493635
7.614168446
8.418711637
7.85393224
14.74591805
12.33315268
9.358213375
11.95535735
4.792639323
-3.084423284
-12.02839437
-25.51038789
-35.49881434
-51.96491827
-66.05113712
-99.33503468
-138.8943665
-177.9308809
-250.8810446
-289.2062649
-173.5687848
290.1839539
254.6126481
170.1489406
93.26458711
)


100
(
-353.0992159
-516.3471596
-371.1272788
-385.526891
-382.4869194
-371.6985497
-358.073709
-344.2220141
-328.3701134
-315.2119147
-298.877012
-285.9885357
-272.6904806
-258.216913
-249.3198996
-239.1839918
-225.3589007
-215.8345183
-209.1300178
-199.5183217
-187.4408974
-179.9709357
-173.9367234
-166.7553073
-157.317638
-152.0191721
-148.4043839
-143.5717485
-137.3220651
-133.1199827
-130.790822
-128.4438247
-122.4175392
-116.1815672
-113.9341124
-112.2989327
-107.6311539
-102.0018175
-101.7658261
-101.9020774
-97.42386344
-92.95597789
-89.00761867
-87.70434264
-85.22013818
-80.91766463
-76.75262044
-74.58941021
-71.15524493
-65.3216033
-62.26431035
-60.49179176
-57.93547092
-55.04223596
-51.98119508
-50.20483528
-48.875279
-48.4199305
-48.88573911
-47.74147591
-45.89090604
-43.29857035
-39.99321794
-37.17182948
-33.58426607
-30.31651171
-27.34203709
-24.72408284
-24.87203583
-24.37479791
-23.58253811
-22.30703646
-21.49178039
-20.01019665
-17.32329512
-20.90722147
-26.9704152
-26.80905175
-28.72924684
-31.61507298
-39.54295691
-52.9717365
-58.72895587
-65.22516316
-82.8126083
-107.2292833
-136.4023899
-146.4570243
-169.5026915
-232.038152
-298.7000214
-349.9468267
-441.9100724
-520.0358979
-537.7741661
-41.6834211
589.1369111
490.2321095
302.4640105
161.8621883
)


100
(
-396.5816317
-454.0130849
-345.0535048
-364.9764696
-365.422615
-351.565223
-343.3117615
-329.4023686
-316.7541582
-304.0710186
-292.0738592
-278.1935353
-268.0070543
-255.8724545
-244.4876712
-237.7642856
-229.6407559
-218.4105718
-211.2990866
-206.6431252
-200.1824991
-190.5524318
-184.3175919
-180.4384872
-176.5737916
-169.248844
-164.9148955
-163.5710739
-160.1799452
-155.3586228
-150.2535905
-151.6349432
-149.5777202
-143.8203228
-136.2851493
-136.8836248
-135.6190017
-131.0145456
-123.8056006
-125.7828034
-124.9591539
-119.9580771
-113.8642325
-111.0710882
-110.2392632
-107.7141205
-104.249351
-100.495626
-99.50417878
-96.04517593
-93.13138658
-91.24928258
-90.4981287
-88.43852529
-86.3950343
-85.38502266
-84.18911036
-83.86692447
-84.71173651
-84.97943233
-85.09363975
-82.79074024
-80.10031424
-76.22298709
-72.56722769
-70.77473751
-70.111125
-68.80469099
-66.95042968
-65.71129658
-65.16316887
-65.21534401
-64.63610754
-63.89511144
-65.47724329
-68.84650729
-75.12496889
-81.71059785
-92.36731335
-114.684748
-128.0906429
-135.5141101
-152.6370465
-177.9078096
-211.6053379
-243.917135
-270.0929038
-287.4803741
-325.1282665
-415.5989477
-473.3057082
-521.1315134
-575.179828
-608.9651299
-549.5550631
383.8551577
927.1883511
805.6093031
560.3599159
377.0678832
)


100
(
-313.9927858
-396.9140358
-319.3535907
-346.7608732
-343.0181876
-335.5565815
-327.7299772
-316.9828178
-306.6075651
-295.5708559
-286.073139
-274.8438354
-264.0415825
-256.3730959
-245.9489259
-237.3648504
-232.9052513
-227.7582813
-219.4750802
-214.0581961
-211.8624212
-208.874383
-201.6320883
-196.0705352
-194.295261
-192.4469861
-187.2842643
-184.3236589
-184.3916412
-181.9000789
-176.7036749
-172.5965478
-176.3446275
-173.6050679
-165.9661125
-159.6705802
-161.7614967
-161.3024005
-154.2015367
-149.9073866
-151.2831869
-150.766637
-144.3078046
-139.7818321
-137.5658348
-139.0854687
-138.1062699
-138.6402725
-136.6384704
-137.9222901
-135.8484266
-136.5806232
-136.5924954
-135.0507101
-132.8740334
-130.8073453
-127.20638
-124.3125677
-121.8588547
-121.8783424
-123.6203311
-125.4017473
-128.9529682
-130.1956072
-130.2030428
-129.3085357
-128.4962226
-128.4979663
-129.0001368
-129.9628818
-128.0021534
-125.9959084
-130.2174646
-134.1298913
-141.1686073
-144.0602714
-154.1737038
-176.6610407
-193.9254496
-204.3916188
-216.517166
-236.1911031
-258.6531416
-287.1125972
-322.0819193
-348.4549043
-374.0044204
-414.0666224
-470.3410055
-524.7527945
-591.9899227
-651.6622615
-713.6795302
-736.761961
-553.0689512
793.3479952
1187.992979
938.7828043
748.7662289
1023.269057
)


100
(
-208.0514413
-361.0436829
-298.7262608
-323.7650503
-323.4834099
-322.2019426
-312.2170351
-306.8818173
-297.2188141
-288.8080784
-280.1721682
-273.1491633
-263.3998645
-256.0034934
-250.996805
-242.7267345
-236.8512485
-235.3124108
-233.3274502
-227.5501075
-223.8213293
-224.0556754
-224.1845651
-218.9283295
-213.1454882
-212.4375554
-211.4878643
-208.5946675
-206.7905791
-207.7840206
-205.8420528
-198.0763885
-198.625341
-202.5151447
-199.410811
-189.4281301
-186.1604392
-189.1791082
-188.4319698
-182.4745947
-179.901882
-181.7248665
-181.9853578
-178.3393603
-175.287189
-175.9578736
-178.9286777
-182.4247801
-186.6326179
-186.3958658
-185.3243771
-184.5625218
-184.3329537
-184.6778079
-184.4433591
-180.9893375
-180.8978296
-178.4959701
-175.1765852
-174.2854128
-174.7642547
-178.0177062
-181.9358857
-186.6150387
-190.3917985
-193.3962199
-196.1241451
-199.0708504
-199.2753799
-203.0366871
-207.9129424
-213.9873298
-220.3135369
-219.3555956
-233.9685654
-252.9450842
-260.2146995
-264.8827667
-278.5615829
-297.3564992
-314.4287841
-336.3803593
-371.5682743
-412.4613484
-449.5900565
-497.6761359
-556.2015181
-637.9214627
-713.9171339
-790.0491533
-875.2412344
-974.9677288
-1063.012015
-1036.85184
-650.7770456
1213.3583
1559.51795
1091.254832
721.7308267
2332.146954
)


100
(
-172.7104893
-326.6102068
-272.8531768
-300.6346975
-308.2528751
-305.3966911
-299.6301781
-295.012495
-289.3503238
-282.6722302
-275.8914079
-270.3544388
-265.2687466
-257.8061739
-254.1077069
-252.0951974
-246.4990432
-242.9244358
-244.2337231
-245.5633474
-241.8365291
-238.4709184
-240.7909645
-242.8004972
-240.3199391
-234.8480744
-233.4554041
-233.4721274
-232.4943999
-231.9795435
-234.6249172
-230.8140197
-223.7140861
-226.5513339
-231.0508219
-225.4118573
-218.5089604
-216.2725263
-221.9711489
-221.5040055
-221.5345711
-219.9702384
-223.6630493
-223.3766567
-224.3595819
-223.4346118
-223.4450314
-226.313388
-231.8509699
-235.8335711
-238.5029659
-235.5509785
-234.3169485
-235.1449373
-237.5236159
-238.2924909
-242.3793023
-241.7870316
-242.8832693
-242.1321088
-241.098543
-242.5081907
-244.6775175
-249.2669675
-255.7668667
-260.6170962
-267.2538617
-277.0245921
-281.366764
-287.9577308
-290.906342
-299.8305248
-314.0853238
-329.8427962
-334.0500296
-341.5290534
-360.363588
-383.1222864
-404.3436469
-430.5731157
-470.3262253
-518.450933
-566.4592375
-617.4573928
-686.5295689
-769.7780408
-858.2562693
-959.3534068
-1063.207093
-1165.971236
-1302.135927
-1442.409068
-1505.468304
-1448.240424
-671.293002
1796.051218
1974.970008
1315.13013
804.9648327
4122.069497
)


100
(
-158.3530213
-288.4049295
-245.5578025
-279.8523626
-293.8730709
-288.1448649
-289.5115612
-283.1223096
-281.6444181
-277.1838841
-272.8150171
-268.359421
-266.24887
-263.1015005
-258.3433918
-258.3742966
-259.4000436
-255.9152328
-254.3864556
-258.2601417
-262.2917032
-260.3695706
-256.8665433
-260.3088155
-264.0116219
-264.8765969
-260.2984541
-257.0551556
-258.077047
-257.4251453
-261.1987071
-263.8555805
-256.6119925
-254.5373436
-257.4678671
-262.9749387
-258.4579608
-255.6225847
-255.7536539
-262.2644096
-267.1689154
-271.4133875
-271.460952
-272.136844
-273.5670456
-275.21895
-277.4398278
-276.8200414
-275.923578
-281.5594432
-286.5527474
-289.7471829
-292.4888314
-293.3259967
-294.611738
-299.7910919
-302.7098603
-308.098095
-313.2733067
-313.2125427
-315.110165
-317.4912451
-318.1374236
-323.1391931
-331.8968777
-338.1944451
-346.9877761
-354.9023405
-366.3922632
-378.1650639
-397.0047583
-406.6285798
-423.1731127
-449.2688191
-474.0205678
-502.0851637
-527.4459496
-557.4250543
-600.8165351
-652.7271351
-711.1009139
-772.69952
-841.041803
-931.4885825
-1035.08847
-1123.045454
-1236.938861
-1395.569808
-1529.289521
-1688.78092
-1858.295685
-2009.612044
-2067.453788
-1944.050887
-296.9587551
2492.279637
2389.813346
1473.273511
971.5298849
6634.241121
)


100
(
-147.9149216
-256.136517
-221.6772338
-264.4291712
-273.9709625
-274.3529552
-276.1583712
-274.0517595
-272.4395148
-272.3532437
-270.315058
-268.1976038
-266.9013964
-267.8558784
-266.8943299
-264.577243
-267.760936
-271.1996774
-270.072927
-269.2223534
-275.2831399
-281.2148548
-281.8429228
-279.2114711
-281.8000184
-287.2084905
-291.1570653
-288.4755586
-283.9601971
-284.9212273
-285.0662218
-292.7264981
-294.4262671
-291.0993136
-290.3996122
-296.2498723
-299.8816947
-302.4517361
-300.9552945
-302.2342214
-307.761044
-316.1101279
-324.2178072
-327.2250801
-324.8058391
-325.0351364
-327.7409
-330.5685036
-332.5908317
-334.2383181
-337.3167962
-344.3799852
-349.920123
-354.1830028
-361.91798
-364.3653592
-366.3705496
-374.8444168
-379.8530559
-384.2377189
-393.20414
-397.9284719
-404.8951652
-411.7838042
-419.1690101
-433.8123453
-447.7207846
-466.3899536
-477.7786347
-495.5476391
-527.8170141
-561.5167917
-603.9724322
-639.2649677
-672.7450412
-705.5201485
-746.2499956
-805.6954246
-880.1886418
-952.0502487
-1023.686082
-1109.904492
-1218.407276
-1324.386241
-1441.174184
-1580.307718
-1745.230801
-1908.156441
-2091.16523
-2317.49899
-2524.929833
-2716.672275
-2731.459331
-2405.887093
420.4900302
3272.574986
2797.001753
1567.41271
1138.21378
9224.442903
)


100
(
-125.288139
-227.5820476
-205.4678402
-246.4152393
-254.9583743
-263.7135749
-261.8115714
-266.1700705
-263.8499954
-266.0166163
-267.6950183
-268.5498801
-268.9329356
-270.7748268
-274.5103357
-275.4601825
-274.8722138
-280.3890337
-286.075895
-287.1891208
-286.5232526
-293.8112134
-301.4433769
-305.1776529
-303.6696227
-304.5640584
-311.5154275
-317.0442317
-318.4778785
-315.2975196
-313.6900611
-317.4300467
-327.7135921
-331.8542584
-333.727468
-333.9112702
-338.1398175
-342.4108829
-348.5676057
-351.979636
-351.295647
-354.1473167
-363.019091
-371.5657297
-378.758004
-379.0757469
-377.6592027
-380.7785096
-387.1831901
-390.5707894
-399.296197
-405.7436562
-409.9789618
-416.7384872
-425.1144098
-430.3601302
-441.3689574
-442.8360146
-452.3929121
-468.5070219
-478.3367725
-491.8472769
-509.289414
-523.8896648
-545.3547338
-563.1586665
-578.7912336
-604.9788148
-629.62276
-672.3480504
-711.6573561
-755.3240157
-797.6566909
-844.1100478
-896.7081183
-964.8310083
-1051.070017
-1138.887648
-1222.060025
-1306.406779
-1403.329068
-1522.871693
-1659.609827
-1806.620418
-1985.054248
-2147.425592
-2326.554901
-2569.579521
-2847.20649
-3100.089491
-3362.936707
-3541.547993
-3539.547586
-2717.331221
1379.01772
4062.216979
3197.896154
1703.717838
1313.461703
11651.43958
)


100
(
-111.3095115
-207.7855824
-188.0328666
-222.4603608
-240.6472735
-249.4306543
-250.4815044
-254.4625826
-257.8505337
-259.1919427
-263.724386
-267.7129999
-271.2177459
-273.7830456
-278.4213972
-284.56325
-287.3967854
-288.2346132
-295.3249367
-303.0037247
-306.3224748
-306.5800553
-313.3550251
-322.6044358
-329.6766071
-329.8432629
-329.6080358
-336.4332837
-343.9897106
-349.8536601
-350.7500247
-349.5263733
-353.7192491
-365.1405674
-372.5339218
-380.0239183
-382.0060059
-381.438545
-387.0247082
-393.882869
-400.5884408
-401.557793
-399.4879916
-406.2185305
-415.3073574
-423.6305735
-431.4842368
-436.21311
-438.6113507
-445.3635335
-452.302328
-463.7533778
-477.9311546
-485.2046424
-487.9485864
-503.863446
-515.538398
-529.3188196
-550.9462442
-568.5926038
-589.2451833
-616.4491711
-642.5269945
-669.9665555
-686.8610838
-713.4258903
-751.3480904
-785.7356883
-828.5111754
-874.1732846
-922.512416
-971.7719598
-1029.112528
-1099.00191
-1189.38572
-1291.779711
-1379.603822
-1468.851612
-1583.105381
-1723.036396
-1884.806788
-2034.43203
-2198.499456
-2373.685741
-2575.833154
-2814.289212
-3087.862146
-3384.349972
-3647.672587
-3933.397492
-4251.24114
-4510.747708
-4326.026677
-2874.129465
2612.040092
4715.535482
3555.095412
1900.564308
1647.830085
17702.89614
)


100
(
-125.2282423
-185.9691742
-165.2200349
-204.8693651
-228.642813
-232.3378508
-242.1502145
-242.5944075
-250.4523829
-254.0638224
-258.8230298
-265.0708576
-271.4732729
-277.0391915
-281.4659749
-288.4547393
-296.8597665
-301.7857214
-303.8350451
-311.6189449
-321.0054515
-326.9254781
-328.0461681
-333.4571496
-344.3315024
-353.3329063
-357.6198761
-358.9558748
-363.578299
-373.8237806
-382.7630062
-390.7411736
-392.8161771
-394.9003086
-403.9928129
-414.7282386
-425.931269
-430.3319656
-427.487206
-428.064776
-435.4888335
-442.497654
-447.6586702
-448.6873234
-451.5608194
-460.6964398
-471.0734428
-480.9645043
-496.4258208
-504.6416211
-509.3333489
-521.3725117
-537.6045497
-554.2227334
-572.7587813
-589.4410502
-606.1463368
-636.8268862
-660.4458355
-696.3209405
-731.3703886
-754.402182
-789.8095105
-820.1843281
-854.756124
-903.5795305
-951.3123886
-1007.253345
-1062.913775
-1114.795013
-1168.518635
-1231.113022
-1309.684522
-1407.522396
-1518.292709
-1627.137088
-1740.830898
-1876.729526
-2049.132974
-2239.193705
-2396.482139
-2564.989288
-2791.217549
-3047.476086
-3309.723317
-3591.844574
-3889.845026
-4206.183398
-4515.012199
-4851.271906
-5270.509049
-5336.949694
-5076.754073
-2916.947453
3693.691509
5336.36467
3964.273206
2105.997519
1904.757331
20478.26912
)


100
(
-107.0187257
-163.3044743
-148.0626795
-191.6059184
-212.2584481
-218.0879501
-229.5459849
-234.1790893
-239.9342224
-249.200073
-254.6120377
-261.5029007
-269.499506
-278.081141
-285.4357055
-291.2843366
-300.0939714
-310.6767118
-317.7190497
-320.8597093
-328.5140194
-339.5756639
-348.2968411
-350.9404379
-354.7219904
-366.3623625
-377.6626553
-387.7104336
-392.5223737
-396.5506423
-405.9481574
-417.5040696
-429.8141565
-437.2442147
-439.2346013
-441.5554314
-452.9450444
-463.8162234
-473.0193236
-471.9327796
-469.1778317
-473.7732922
-483.2399833
-490.226454
-499.6895068
-506.9417364
-512.3955598
-525.1950265
-543.3386957
-561.9867921
-583.4630509
-592.6382029
-605.2729832
-633.266698
-664.5543412
-688.8198366
-726.9619669
-753.2940331
-784.9257052
-831.0013212
-866.3206484
-913.7384243
-945.0848592
-988.3423598
-1053.249561
-1108.579803
-1171.03602
-1233.313979
-1297.358686
-1365.353296
-1442.083128
-1545.148512
-1661.057648
-1783.153527
-1898.749651
-2023.534174
-2162.695414
-2331.497699
-2546.897119
-2761.505576
-2969.384684
-3216.365952
-3480.516998
-3749.356897
-4059.564747
-4446.604265
-4782.626667
-5123.380995
-5472.752496
-5815.372339
-6291.436749
-6117.268789
-5876.451213
-2902.14551
4498.87418
5971.50065
4409.767763
2356.678659
2163.463035
26124.95963
)


100
(
-76.14339135
-144.3810451
-134.2383341
-179.0621985
-193.6322251
-208.5405573
-214.2593351
-226.5436207
-230.3947222
-240.5790766
-250.4859675
-257.9175786
-266.845311
-276.3673004
-286.9371257
-295.9414824
-302.8786171
-312.8760388
-325.3948761
-334.592118
-338.7346967
-345.6465385
-358.4346926
-369.0908839
-375.4402627
-380.1162998
-390.2034359
-404.7000408
-417.8600791
-428.8432262
-434.4433906
-438.9553822
-450.942867
-464.258212
-477.3868283
-480.0133466
-478.378532
-485.1710765
-496.2466142
-505.3828516
-512.5914982
-514.6728497
-516.8040377
-526.8301351
-537.967796
-554.0824298
-575.3970333
-587.1741284
-595.8271723
-623.5125751
-653.0737024
-679.7925933
-707.750605
-731.7701525
-757.2451761
-795.7912284
-839.7536793
-890.0501836
-930.1303355
-957.7277462
-1010.456473
-1064.450967
-1117.08348
-1185.476592
-1253.049863
-1324.501958
-1395.378355
-1470.728776
-1551.995585
-1647.936651
-1769.105482
-1897.476983
-2019.513802
-2149.354445
-2285.82261
-2453.17564
-2639.419142
-2874.747361
-3111.647873
-3333.482547
-3569.392336
-3864.458989
-4190.103388
-4533.799281
-4941.517421
-5320.225844
-5647.702882
-6027.56887
-6430.623474
-6848.85395
-7134.698564
-7296.153837
-6615.765684
-2219.231047
5905.922583
6660.219798
4837.116697
2592.99004
2517.406896
35471.28292
)


100
(
-69.03650937
-131.4076837
-123.8025811
-162.0133747
-178.7361396
-195.514153
-201.6542572
-213.5235255
-223.837225
-230.9042089
-242.7663522
-253.9570435
-263.5072558
-273.7874681
-284.7739278
-297.2943003
-307.9136561
-315.6945494
-326.1630332
-340.334297
-351.7509035
-357.5028567
-363.5200117
-377.2963462
-390.4371972
-401.9881878
-409.5524817
-417.301476
-432.0287226
-447.8232892
-464.577601
-471.8579362
-473.5390476
-479.6829567
-493.395752
-506.641242
-515.1073452
-514.0816246
-515.4677019
-525.8483045
-538.4756323
-548.6632486
-564.0300807
-572.5977154
-583.3570702
-602.1832451
-631.9675356
-658.8678942
-686.8045723
-703.3380094
-729.1941781
-773.2329869
-807.0346596
-842.8869494
-880.43794
-915.3684169
-950.5862216
-1010.483034
-1060.35346
-1118.165389
-1170.252472
-1223.75425
-1304.818967
-1376.233367
-1456.604511
-1531.786823
-1617.624002
-1713.432233
-1823.075506
-1959.050316
-2102.909611
-2240.631448
-2389.187217
-2545.335392
-2730.260877
-2936.956361
-3156.388016
-3407.564819
-3664.066327
-3922.241029
-4247.889493
-4592.834638
-4942.715451
-5327.697151
-5739.828764
-6097.913842
-6539.332894
-7016.387382
-7462.581892
-7832.169315
-8151.346962
-8172.812442
-7150.21962
-1249.382977
6839.305723
7386.154509
5284.001051
2805.453245
2892.75752
45909.34954
)


100
(
-82.7929527
-118.879067
-110.6370078
-146.980862
-169.0503953
-178.1553729
-192.9415397
-199.5868722
-214.6061471
-223.7627334
-233.1908386
-246.3989277
-259.0212597
-270.4171416
-281.6628623
-293.9231078
-308.3141929
-320.4667822
-328.9587742
-339.5996464
-355.074578
-368.4269059
-377.2452321
-384.6069404
-397.2635601
-413.3906084
-428.518055
-440.5243723
-448.7149673
-458.5391578
-474.938243
-492.0200492
-504.0670381
-505.0030432
-504.1303193
-515.90493
-529.3125233
-540.6950635
-548.1231436
-554.2250568
-559.7623718
-576.4375928
-597.7028115
-625.2846903
-652.1482283
-670.6715619
-689.3120676
-732.3219554
-771.1862057
-804.3309163
-842.4620902
-870.2413742
-901.4015429
-946.8099202
-999.1616208
-1053.966043
-1091.052408
-1132.028528
-1201.903516
-1275.980751
-1339.231549
-1414.28987
-1491.408771
-1575.797591
-1653.231189
-1747.015837
-1851.789799
-1978.054259
-2129.347183
-2282.087003
-2429.917123
-2588.98071
-2762.230088
-2958.408309
-3190.416373
-3425.448468
-3691.387765
-3968.617803
-4243.916979
-4542.262536
-4928.387111
-5309.237906
-5733.75094
-6147.962185
-6535.425315
-7003.835951
-7542.77086
-8043.154105
-8490.09041
-8808.776493
-9120.410074
-8729.309513
-7383.456118
-209.8000397
8621.105553
8169.312562
5825.99261
3062.09668
3306.072592
60329.46135
)


100
(
-100.698306
-102.8596499
-96.13042918
-135.9417506
-157.6560975
-163.1302069
-179.9511743
-189.5403297
-201.3452488
-216.1886117
-225.4802364
-236.6937493
-251.0810932
-265.1725592
-278.0933425
-290.1126018
-303.1948349
-319.2095943
-332.9927598
-342.8563365
-352.4936165
-368.8890355
-384.8503868
-398.0230266
-407.9695923
-418.5244133
-435.3163818
-453.1443889
-470.0622009
-478.4843212
-482.1483091
-495.3609587
-511.6279608
-526.1600476
-530.6706494
-530.5154558
-535.3430518
-551.5113951
-566.3991869
-584.265223
-601.6351129
-618.4731843
-634.9302961
-671.6630745
-712.3453255
-755.0826574
-783.677988
-812.4124384
-846.112757
-896.878058
-932.6695332
-979.9317279
-1024.728091
-1060.861
-1111.768136
-1177.227262
-1236.912128
-1297.857647
-1361.627387
-1430.308411
-1518.317774
-1603.306262
-1691.110312
-1777.102163
-1870.807247
-1982.895733
-2115.381699
-2274.160344
-2442.187957
-2592.299195
-2759.672173
-2949.370201
-3165.487886
-3410.567025
-3661.192187
-3918.769329
-4200.492159
-4508.31489
-4812.758704
-5202.810283
-5630.84445
-6060.660875
-6496.773611
-6881.938832
-7330.496864
-7923.724284
-8470.709297
-8978.940771
-9414.31022
-9782.320642
-9882.076694
-9254.87454
-7463.534875
2160.848219
9960.774231
9038.481255
6530.397646
3505.984893
3861.449984
81198.73768
)


100
(
-108.8492438
-91.82954195
-85.27226734
-126.6635604
-141.4512814
-154.3580837
-164.1190234
-180.3552731
-189.3238785
-203.7931308
-218.4777826
-228.7426833
-241.3721436
-256.5752922
-272.16085
-286.156779
-298.7162759
-312.1302861
-329.3901378
-344.494091
-356.1428769
-367.3939287
-383.2629249
-401.5758932
-418.6391877
-431.6458047
-442.0013612
-455.1000952
-473.2928178
-491.3996989
-502.2481531
-504.2648972
-509.7278836
-524.7486411
-539.2690119
-550.7297869
-557.1542968
-564.273374
-579.1023262
-603.072296
-635.5983167
-674.1412901
-704.3647043
-728.0219007
-765.663006
-816.7872742
-863.2658787
-906.1003061
-943.2759618
-974.3835512
-1013.350963
-1071.330435
-1132.753807
-1200.443913
-1238.016849
-1291.982291
-1377.717711
-1456.071407
-1531.462464
-1615.651502
-1705.567049
-1800.054803
-1887.18811
-1984.917597
-2103.859603
-2245.749975
-2415.566284
-2589.576172
-2753.598184
-2914.622968
-3108.556926
-3324.495482
-3593.24949
-3849.530386
-4112.960601
-4412.936518
-4739.279776
-5056.858893
-5417.045145
-5874.23259
-6308.199521
-6782.323587
-7190.035876
-7591.746871
-8174.223577
-8791.730824
-9324.235905
-9849.941769
-10253.35389
-10526.44955
-10442.49109
-9603.867585
-7130.458743
3722.704793
11409.74591
9947.401066
7347.336461
4125.784885
4531.439551
107722.877
)


100
(
-113.3902275
-85.42919227
-78.39249773
-115.6441765
-129.1463223
-144.4846129
-151.0050446
-165.8639323
-180.3940085
-190.3553845
-206.7435341
-221.5987638
-233.0846591
-246.6792222
-262.3447437
-279.0996346
-293.9933538
-307.0633563
-320.6087934
-338.1902165
-355.9987339
-370.6998002
-383.376684
-397.8105469
-416.8601794
-436.5795121
-453.2733014
-463.1441762
-470.2060073
-486.3881469
-503.7473802
-518.0679502
-521.8727623
-524.4189658
-535.4472799
-552.7753264
-569.36146
-590.1116837
-607.923288
-630.0480687
-662.6053378
-712.8316081
-761.0936198
-808.4356198
-837.6793236
-870.6760304
-919.5640466
-970.541641
-1011.839805
-1072.461234
-1117.570249
-1155.908647
-1227.886132
-1300.526366
-1376.942239
-1443.640876
-1516.056965
-1595.669879
-1690.605191
-1786.533431
-1886.517754
-1984.455867
-2090.149015
-2215.905465
-2364.284042
-2539.065695
-2718.791374
-2880.815153
-3044.21728
-3245.319203
-3468.814991
-3742.861141
-4019.078095
-4279.641976
-4573.384972
-4888.49155
-5242.570371
-5621.929058
-6080.958067
-6534.209995
-6964.905775
-7438.417053
-7833.87721
-8369.753256
-9032.011635
-9567.338026
-10083.32177
-10568.82936
-10959.62556
-11116.48422
-10873.57852
-9629.123324
-6330.451468
6555.233429
12674.27806
10875.82557
8221.741237
4869.227924
5336.550949
131598.6971
)


100
(
-127.5899059
-83.14422302
-70.40812516
-103.2273923
-120.8442678
-129.7247343
-142.7931678
-151.698523
-168.1307925
-180.7009509
-192.8052686
-209.828777
-225.071766
-237.7289658
-251.7989265
-267.7194926
-285.1944557
-301.5266968
-315.446829
-329.5615411
-347.2388692
-366.8851971
-384.536569
-399.2595486
-412.6648674
-429.8085367
-450.1073473
-469.0510696
-479.4278395
-483.6610999
-493.5434633
-509.5773256
-524.6300424
-535.9009002
-542.519211
-552.4109055
-572.9063247
-602.0814843
-637.7469951
-677.6588723
-710.361329
-742.5278954
-798.6604855
-855.070239
-902.075796
-945.7605507
-979.9766037
-1012.042119
-1067.737888
-1136.551807
-1209.299966
-1276.419408
-1319.774128
-1388.682315
-1485.052964
-1564.448107
-1655.571004
-1749.596337
-1849.905266
-1945.634786
-2042.295885
-2147.06791
-2277.864212
-2431.862792
-2613.794051
-2801.528588
-2979.270737
-3156.286096