/*--------------------------------*- C++ -*----------------------------------*\
| =========                 |                                                 |
| \\      /  F ield         | OpenFOAM: The Open Source CFD Toolbox           |
|  \\    /   O peration     | Version:  2.3.1                                 |
|   \\  /    A nd           | Web:      www.OpenFOAM.org                      |
|    \\/     M anipulation  |                                                 |
\*---------------------------------------------------------------------------*/
FoamFile
{
    version     2.0;
    format      ascii;
    class       dictionary;
    location    "constant";
    object      la_r12;
}
// * * * * * * * * * * * * * * * * * * * * * * * * * * * * * * * * * * * * * //

la_r12_table
100
(

100
(
-108.5223206
1666.370661
1256.897946
973.899924
838.6831666
612.6538027
493.6089905
376.732152
303.069545
192.0159681
192.605272
79.065632
48.04709423
41.62796649
-19.29333315
-39.48964294
-32.27463429
-74.86428643
-89.72047035
-82.52329429
-99.98649921
-113.061318
-113.4124038
-110.6410272
-122.8949005
-125.8262105
-121.2996703
-119.9916187
-124.7788188
-124.0280203
-118.2094377
-117.2699786
-118.3632906
-116.0205945
-110.9276728
-106.7608351
-106.3442884
-103.4548698
-98.69328216
-94.10262905
-91.98039043
-88.4612035
-83.70906543
-79.18827841
-76.542754
-73.1188102
-68.95376521
-64.38506225
-61.48101688
-58.01671
-54.10856225
-50.18746685
-47.28335093
-44.11535465
-40.69007517
-37.64746672
-35.24444073
-32.72983621
-30.16339352
-27.8063934
-25.71679501
-23.62644239
-21.53756461
-19.575468
-17.77648888
-16.05172931
-14.37496072
-12.83277461
-11.39919967
-10.05181572
-8.805452681
-7.652525589
-6.618786269
-5.686620127
-4.797281969
-4.026228751
-3.343720331
-2.68618643
-2.167359507
-1.692928186
-1.280008533
-0.988703338
-0.689746782
-0.5216773448
-0.3468138669
-0.2693047523
-0.1845545139
-0.1738660647
-0.1548050443
-0.147456129
-0.1522657454
-0.1640352816
-0.1837021312
-0.1890064059
-0.1963175959
-0.1884806349
-0.1821959566
-0.1341825555
-0.0454619331
-3.930372656e-10
)


100
(
-67.5494427
1427.392779
1175.469543
952.737811
830.0706069
636.7604626
541.2067298
430.2714914
367.6707327
275.7638539
253.7812524
177.6651351
146.0603167
131.0314256
91.58851681
71.75692269
66.59774459
42.96256901
26.78854428
23.2523885
12.44857426
1.035505417
-4.535407036
-7.109058734
-13.24920852
-19.6351448
-20.52854663
-21.31113649
-23.24649096
-27.07689244
-26.87781451
-27.30396998
-27.78697288
-29.33786404
-28.62540751
-27.55013267
-26.98777856
-26.95519833
-26.78073668
-25.57175998
-24.47140837
-23.50883915
-23.04258394
-21.8690964
-20.85031232
-19.88432481
-19.41110722
-18.47877145
-17.60332796
-16.69235851
-16.13056244
-15.5772688
-14.84154598
-14.12061038
-13.5857961
-13.25370659
-13.01840154
-12.95820259
-12.93397229
-12.27737864
-10.75126655
-11.06851678
-12.42032602
-11.91766961
-10.38868095
-10.64030281
-11.66153048
-10.87141839
-10.24939831
-10.86487931
-11.18985766
-10.65952039
-11.13523975
-12.27565586
-12.2744586
-12.68069407
-13.66039503
-13.28847875
-13.29801464
-13.75017915
-13.78963415
-14.22881021
-14.62439835
-15.54384989
-15.60153854
-16.60429798
-17.71832343
-18.16716296
-20.29460239
-20.83278757
-23.33169155
-25.74264233
-30.28618317
-34.27545295
-40.50437262
-45.91337763
-52.72225788
-43.13830789
-15.99593294
-3.385477558
)


100
(
123.0316094
1444.576789
1209.753147
1003.747006
871.4801992
710.8718344
602.7904643
505.8291802
433.7042558
360.0794685
316.2297964
262.4367993
222.0626766
197.1569695
169.1263004
145.0961285
130.1057493
112.8440401
96.53290328
83.59093779
72.32554194
61.57768815
52.08737054
44.30946656
37.0451629
30.62164855
24.89276323
20.52262084
16.50812945
12.90184272
9.408280368
6.044336669
3.239350289
0.8954163867
-1.209731245
-3.23033728
-4.794201504
-6.10639826
-7.171604208
-8.550104457
-9.876059921
-10.72670734
-11.34670975
-11.86504935
-12.90543715
-13.69731418
-14.36107638
-14.87715235
-15.63761284
-16.39473758
-16.82390227
-17.04520318
-17.05738888
-17.40928771
-17.37623679
-17.4388425
-17.52910549
-18.27017391
-18.72804486
-19.25853576
-19.12791577
-18.65356882
-19.40010525
-21.1030135
-22.05000061
-21.99568992
-22.72149392
-23.83031923
-24.30462581
-25.06042984
-26.25429646
-27.4335424
-28.23443068
-29.63734371
-31.49173676
-33.73213802
-36.20278354
-37.84517644
-39.66226012
-42.34849114
-43.93000703
-47.03550425
-50.64065519
-54.49530504
-58.2493073
-62.58054608
-68.75543656
-74.76874277
-82.74190299
-94.87058223
-106.0361206
-120.5395004
-139.8144862
-160.8883217
-181.612069
-211.6527661
-211.6118332
-150.6809484
-71.588953
-30.2168694
)


100
(
547.2676827
1445.199461
1232.782743
1050.670176
907.0305064
760.2190816
652.4105893
557.6611077
484.537402
415.2216855
364.0195857
315.694536
273.268507
241.953534
214.7176239
189.7678235
169.8059298
152.3336791
135.5071066
120.6353143
106.4775808
94.15209407
83.25208805
73.64696754
64.31528252
56.2148911
49.26712395
43.11763679
37.04042208
31.78013428
27.15193698
23.11273291
18.49365776
14.53397926
11.23792117
8.502189839
5.522592171
2.502083689
0.1837085316
-1.593473207
-3.30399473
-5.330024835
-7.176398382
-8.005505374
-8.891711178
-9.716604345
-11.63860646
-12.44563788
-13.41990281
-14.15324497
-16.22323001
-17.02765885
-17.8012864
-18.66466214
-20.46066851
-21.55448277
-22.46464893
-23.64742915
-25.44102381
-26.84130582
-28.02116706
-29.36412637
-30.3849447
-31.90435454
-34.04605079
-36.13055742
-37.81309807
-39.80541921
-42.15489015
-44.52975395
-47.17017682
-50.1966646
-53.77946928
-58.01427161
-62.51571097
-65.60800072
-68.9580842
-74.58138251
-80.39139166
-86.06226748
-91.37911671
-98.18171765
-107.6595345
-113.3901792
-124.4631232
-137.7244588
-150.5558911
-166.4256584
-184.8905487
-207.3954417
-229.1928777
-255.7214063
-285.3642064
-324.7165798
-371.3607982
-412.4304387
-384.7295994
-278.4336819
-188.622445
-103.5530728
)


100
(
1013.070458
1440.861326
1259.527583
1083.069685
934.1169372
801.291936
690.9433358
600.1977372
523.2929144
457.6384362
401.1817443
354.1039827
311.5306361
275.8895091
247.1341625
221.7819366
199.3893902
179.9146407
162.8436703
147.065422
132.4182933
118.3644831
106.1376554
95.30241748
85.88852552
76.57848673
68.80175139
62.12867154
56.18690579
49.69771747
43.8686053
39.05504244
34.76802955
30.77625053
25.89217608
22.71932035
20.03112296
17.95644457
13.99875957
11.85561159
10.77212264
9.096230554
6.689708909
3.447732793
1.905815876
0.2323949373
-1.408504808
-5.501924855
-7.367655196
-8.906909683
-11.024017
-14.65478229
-16.88930767
-18.51809079
-20.8293276
-23.98281758
-26.60618964
-28.43585911
-30.96216848
-33.84055697
-36.60208534
-38.99964925
-41.44705929
-43.74158483
-46.32375933
-49.31408659
-52.77923597
-56.50068524
-60.39404826
-64.30316385
-68.95563292
-73.99152779
-78.91806995
-83.70306842
-90.55946252
-97.87987958
-103.8730355
-111.8924817
-120.0924659
-128.3745505
-139.9857754
-151.8720564
-162.2930245
-176.391141
-193.3765484
-211.4470296
-233.4926779
-255.5285699
-281.5700088
-297.798378
-329.4290967
-376.4441449
-413.3937446
-475.5124111
-530.0899456
-539.3134592
-468.4096197
-421.7443084
-360.0582878
-227.3744617
)


100
(
954.358032
1442.186163
1271.742053
1105.032887
954.4846884
831.4648242
720.0100947
633.7904206
555.8456998
491.6420007
435.4086861
385.4683704
343.8147177
306.6044905
275.0080673
248.9202793
226.03778
205.4620859
187.0666836
170.9612567
156.1893698
142.6539914
129.6290679
117.8941567
107.8198946
99.70726642
92.6885531
86.49447561
81.39085281
75.96335879
70.58381565
64.49622936
60.57166059
56.60589066
53.50302465
47.15198828
43.79248904
40.1096928
38.65298788
32.2345412
29.1656052
27.15680524
25.39635326
20.869637
16.25480171
13.47484852
11.87075178
8.493946663
2.651372331
-0.3021544873
-2.514443661
-6.079389702
-10.87923378
-14.41419055
-17.17858487
-20.57738967
-24.87663698
-28.09085361
-30.8882253
-33.4945709
-36.42507049
-39.58683048
-43.01775092
-46.61531205
-50.41503469
-54.35977867
-58.53990881
-63.22139833
-69.31023267
-75.33199094
-80.69415004
-85.91287343
-91.60967651
-97.89832807
-104.4317158
-113.3169261
-123.5593794
-134.276024
-145.0211004
-153.9247754
-165.0657936
-180.1805532
-196.2697399
-212.1039299
-230.5408454
-249.2096844
-272.3841314
-292.6354335
-307.1245711
-337.4271529
-382.9868219
-410.7464284
-464.0756617
-512.9062409
-543.4607132
-416.3220861
-395.8581059
-625.2662723
-605.4640736
-429.834178
)


100
(
689.9848979
1445.972415
1277.137134
1117.741963
979.6081295
855.3748525
750.0112948
661.7502108
588.0834028
520.9137027
466.6751851
416.5954578
373.3609452
336.6330322
303.7822991
275.8625186
252.4906232
232.2060656
214.1777182
197.6752013
182.7841258
169.7787224
158.4323855
147.7338532
136.7866274
128.2958792
122.8535275
118.3424402
114.3858544
110.8927742
105.9040672
100.5847982
93.07993803
89.0237421
85.27494017
81.04949927
72.84032484
68.37937021
65.423944
61.99982472
53.70605198
49.04055688
46.61796992
43.31509566
37.12366519
30.64556556
28.65805326
25.81287912
21.9586156
15.17003003
12.12298258
9.114325858
5.952528875
2.387703877
-1.19758193
-4.16798013
-7.350375082
-10.67017842
-14.57148127
-18.74842354
-22.5474469
-26.10120771
-30.07803504
-33.53288727
-38.15994225
-43.27457109
-48.54786037
-52.95490099
-56.31150969
-61.23279176
-66.86132642
-73.30247542
-79.47116554
-85.54124753
-92.90374509
-101.4583611
-107.4353746
-113.2872726
-121.8194522
-135.8488998
-148.3723349
-157.9436022
-164.3065437
-173.0081876
-183.8073392
-197.399548
-202.8799687
-204.19367
-205.7594261
-223.7908833
-235.1544397
-248.9199309
-262.290737
-259.3193142
-225.2569899
59.96217966
-183.5882202
-807.0258279
-916.4321624
-896.7744987
)


100
(
925.9310206
1448.434847
1275.834179
1130.519484
997.1630807
873.9691353
776.2484611
686.2755636
616.4990118
551.8586246
496.1365622
448.4170102
404.3359592
367.0235661
334.8038054
306.3987332
282.2568401
261.9297469
245.2366927
230.7089997
217.2603189
204.2032966
194.078936
185.7200349
178.3231107
167.3475716
159.3033862
154.9642389
151.5298572
149.522958
146.1524683
143.1334595
134.55418
125.6808346
120.3419211
117.3252847
110.3486513
100.6937702
95.58616393
93.24639458
87.93872009
78.66226812
72.87507712
70.04487608
65.44567225
58.34814173
52.90573393
50.9788099
49.47439946
47.10534523
44.00460818
40.75348525
38.54340482
36.27494886
34.07096973
31.89382596
27.59767821
23.98496429
20.35377387
16.09783062
12.34746431
7.391817887
3.111672026
0.3146646961
-1.296856755
-2.375771021
-4.427963554
-7.83098128
-11.31846685
-14.65915588
-16.20542697
-18.77021892
-22.50714459
-24.14470882
-24.7058743
-24.11328918
-29.46568044
-37.31716741
-40.52835809
-38.46726254
-30.62556056
-25.10086655
-17.95544664
-13.15161319
-7.602601412
7.113212657
24.07647124
28.51783912
27.44084037
32.18761678
33.13742454
29.76837243
26.11795685
41.65242454
154.0438932
518.2675717
-2.935645469
-788.0006234
-1024.520861
-1916.713478
)


100
(
1397.592188
1453.196613
1278.020481
1141.353272
1010.115583
895.7995509
798.6124869
714.9622034
642.3237472
582.3595659
526.5424506
480.1534912
438.4748943
400.8855983
368.8772028
341.6476674
318.3581466
298.0995572
281.9997404
269.8845393
259.6966022
250.3133344
238.92252
231.2558066
225.0666703
218.925315
208.0881862
198.3566925
192.9909585
189.3609085
188.1756567
185.6853552
182.4450141
171.0166534
160.8385287
156.0625759
151.4610145
142.6111793
131.3823384
128.3745813
124.9942611
120.0265176
110.8448629
106.6802923
103.9708642
101.1997734
97.86469399
94.51277708
93.48279732
93.74053836
93.58219046
92.93199637
90.38795728
86.9312256
84.76265657
84.14112675
82.53470768
81.95446719
79.33047876
76.4657873
74.70863512
73.71226582
74.37885807
74.90943227
74.77211803
75.47705083
76.57728668
78.20007387
80.65305239
82.69363752
88.95794438
95.77895408
105.4819838
112.8979721
111.0613042
113.494352
125.2964102
140.9819383
157.4701738
172.0285611
187.8736241
200.9035613
209.5746983
221.7674051
237.2381148
246.9876247
245.5591443
239.7910682
244.3001352
243.4976886
239.7068487
226.5502582
239.2302958
306.5124869
532.3033128
944.053062
41.06366442
-864.7014078
-871.1976954
-3960.638735
)


100
(
1709.233391
1455.047926
1280.846971
1146.248972
1017.951756
914.3816914
817.3821926
740.4986843
668.6013118
610.8793487
559.699468
513.2916503
474.4469509
439.4695852
409.1659947
382.6113506
361.4032628
343.9614361
330.1855225
317.3118329
309.003478
301.9772906
295.9523532
284.9693154
278.3838787
273.109868
266.852926
256.7268759
243.9664785
236.1194653
231.1488972
229.4808419
229.720061
223.9014545
211.1338897
199.9921979
196.7886954
190.823475
181.7253467
172.7213009
171.2974315
170.237712
168.9703969
165.3447422
162.5554768
161.9553551
161.7076101
161.5951225
161.2705315
158.6662217
158.8230978
160.405011
161.76075
162.1021235
162.1056184
160.2392964
161.4984988
165.3603195
170.6895994
177.1696239
182.0947244
184.0503809
186.9655072
191.9598432
198.7895653
206.0026691
211.9614076
222.0587103
236.4635233
252.2592929
269.2814151
279.8137759
290.3448449
303.0133879
322.2226119
341.3311573
360.2067535
376.6746186
392.9510639
407.0013733
416.5616124
427.2897983
439.1578806
453.0305577
456.589656
455.9077172
458.8273118
469.9387633
471.0704942
470.7192539
465.1781601
480.852513
522.7932352
653.607328
1052.377054
1379.762748
-36.33441122
-1131.896222
-980.8799374
-7017.371401
)


100
(
1725.547312
1449.868523
1276.783363
1145.452659
1029.73197
928.1690315
838.7838224
763.0225038
697.9969375
638.8381462
591.9574172
549.9148472
513.2204027
482.0690004
454.7226307
432.6641179
412.189385
397.2943008
385.5723749
376.3854924
365.5900728
359.698882
354.5466127
348.9431555
339.5538828
332.5029286
327.4867393
321.326409
312.1778302
297.3802021
285.5963379
277.8351734
278.848802
277.9866687
271.483312
258.5775118
251.0450301
248.4874288
245.2190376
240.4965787
237.0518919
237.6328403
240.6694147
243.1005079
245.996495
244.7996779
244.1242247
245.6512106
248.8580358
251.0947389
254.2988536
254.1870319
257.3753604
262.6360487
269.3370238
276.9388871
287.8659008
294.2687233
303.5378283
314.767258
327.1968879
340.9377543
351.9910034
361.1161601
375.8785196
395.5242642
414.495918
434.0634582
448.8280415
462.211416
480.5084088
505.2860732
520.5112467
538.0987995
559.3382182
580.1804668
601.1849824
621.353822
636.4851947
651.3340254
667.1206704
685.7409265
698.4565662
702.3486188
711.8331218
735.0650488
745.7255453
749.4381959
765.0372439
768.0576503
784.6606202
821.1226839
919.581773
1138.280651
1872.024805
1769.742202
-279.4250265
-1520.556609
-1130.40495
-10207.83733
)


100
(
1526.907926
1447.051433
1267.682024
1141.542184
1036.407608
937.767446
858.204517
783.2879661
724.5662261
670.1495966
624.1850399
587.395952
555.3434866
528.6094972
505.9355316
487.0048037
472.9243044
457.7174737
447.8048744
439.4214162
433.3511152
423.0582281
417.9834064
413.7024928
408.1880598
400.7383634
392.4550441
387.4459576
381.9645614
372.5498669
358.874539
345.5963885
333.7207464
335.1579975
336.1930783
333.9640319
326.8516203
324.5721608
324.6850141
326.0155376
328.0635131
327.9850263
328.9781299
333.9787662
340.5368561
347.1523381
352.8993247
354.8576326
357.5592779
365.3360288
373.9944212
383.4429277
395.4517172
405.4861728
417.1587295
432.2463413
447.4076681
465.8797842
485.2364661
497.7098712
513.3265284
534.612642
558.2885032
583.0690596
605.7170788
623.1391499
638.1274656
656.3159217
681.5292775
693.1513651
710.997565
735.1925689
760.2805197
788.4217344
820.1342081
854.4213164
883.2713327
902.5732251
922.4618539
946.9791475
971.232795
992.3984105
1009.658302
1035.8922
1064.754811
1079.878181
1089.550469
1117.170221
1124.573448
1140.82413
1187.527058
1277.748386
1466.950674
1846.585259
2908.652113
1958.466459
-706.0479456
-1854.352355
-1314.60285
-14364.24274
)


100
(
1585.811429
1439.990653
1256.358867
1142.797186
1038.662597
948.1238123
873.0655757
806.9857152
748.9764789
701.834172
659.3456056
625.6557149
599.3832242
578.3098502
560.9466004
546.4415009
534.6816645
526.3953956
515.2069827
507.9753602
501.5326684
495.6649563
486.9595668
481.3924854
477.7456277
472.9569948
467.7397807
458.9234589
453.6260043
448.9925748
441.2481326
430.4621963
415.9831784
410.081621
414.4873943
419.6083882
422.4351482
425.6525781
423.9231227
426.909201
431.8988062
438.1657876
444.8418711
447.3208518
452.7704757
462.7593527
475.2133492
487.1940471
501.0729054
512.4491491
526.4999716
543.435119
562.7271658
582.3382674
607.6896451
622.3702527
639.2667223
661.4513271
687.2654035
713.5711036
742.6177286
765.6045197
788.8943332
810.5396894
833.0695615
861.083661
876.0581863
894.8831776
920.0165308
944.5078774
976.6562094
1013.735085
1054.270154
1095.264603
1131.290749
1158.744915
1192.248996
1231.607272
1270.361016
1309.718975
1344.212862
1377.441423
1410.137746
1445.008343
1470.25867
1512.590073
1547.137943
1558.861528
1587.151792
1666.28158
1775.893479
1913.332642
2203.427324
2920.685991
4035.260912
1821.674638
-1100.441457
-2047.602577
-1608.00868
-18348.43272
)


100
(
1781.828738
1437.543163
1251.424152
1136.639078
1037.14238
957.8645397
884.2560717
826.965569
773.4839081
731.4965884
696.3621219
667.2280509
644.6810742
629.0908473
617.9484595
607.9656977
599.7513119
592.9677022
588.2792774
579.871467
573.6491532
568.3396146
562.8050505
556.0112192
549.6030687
546.5213789
543.465742
539.2254994
534.3477123
528.4646519
525.7901946
522.7801197
517.6114091
515.6964431
513.1767409
517.6303393
525.8218377
534.4909743
543.9433627
549.1114651
552.2825282
559.9613612
571.5729305
582.9789126
596.0904491
605.6622403
619.9739859
639.7508794
663.0223171
686.8679486
714.3845596
734.0608147
753.3539458
775.0743499
802.4072311
829.8821522
860.3570515
879.7586604
908.6005279
940.4832144
969.600724
998.9968324
1026.007194
1046.22485
1071.354724
1104.3088
1137.722309
1170.716019
1208.298295
1250.795263
1298.744075
1348.644635
1393.60345
1434.093111
1470.760377
1516.443579
1580.690315
1647.642834
1698.635122
1730.362464
1775.542896
1830.526694
1884.108825
1941.783461
1994.24668
2037.823174
2071.357925
2126.218686
2244.052557
2361.692236
2510.219674
2749.994573
3245.98609
4333.890916
5187.738764
1757.882301
-1446.165651
-2280.283
-1874.174099
-25571.30261
)


100
(
1863.663797
1428.841725
1240.929701
1128.100264
1036.367372
961.9360483
896.2993966
842.7806331
798.9641324
759.9887171
731.652976
709.4596525
692.8361732
680.8949149
674.2433244
670.6343049
665.6658122
661.4963633
658.2755229
655.4959913
649.4381029
643.557677
639.577242
635.0667352
631.5314533
624.0340308
621.7317706
620.9631733
620.0904238
620.4711898
617.7426317
617.756756
620.4568957
624.7741638
630.5920299
638.0081681
642.3036221
652.9738772
666.0526225
680.9524854
694.9581607
704.292889
714.2497432
732.0943209
752.1775309
774.4706183
800.4616642
823.7455631
848.6678542
877.4244275
906.0444357
936.9589643
967.8287753
985.5396429
1008.183724
1040.811913
1075.552974
1110.346075
1147.930005
1174.374232
1204.538618
1234.696305
1274.722866
1319.51503
1345.001437
1383.464004
1430.754446
1485.896511
1545.473744
1604.705208
1666.250897
1728.016441
1783.823885
1834.420057
1890.180724
1957.232271
2033.992533
2104.337569
2158.772619
2219.810389
2313.768056
2397.571293
2453.690484
2526.624552
2596.530639
2673.403456
2752.802777
2861.773476
3012.437234
3208.342393
3406.217712
3857.646468
4549.453751
6103.226123
6460.089187
1853.181915
-1661.070167
-2545.757879
-2225.032214
-30966.28258
)


100
(
1833.286501
1417.054233
1227.924494
1115.976074
1034.206863
961.8342282
906.607623
855.5418103
819.486526
788.9778631
765.1941261
750.1693746
740.0880667
734.3163004
730.8610364
730.8412891
732.2044992
730.771345
729.1183261
728.6063
727.2977625
724.0675743
718.6172514
716.3203097
714.2723239
712.0793182
708.6771301
707.306638
710.0748741
715.1476107
720.9019789
728.8987341
730.8786125
739.0142336
750.6301667
764.5129398
780.2561716
790.0001066
801.5484173
818.9173161
840.6199483
861.9677322
886.2532308
905.6653904
931.0524151
960.4384102
992.6542311
1024.262088
1063.100679
1086.457323
1112.899563
1141.592979
1174.573845
1205.629131
1239.549639
1269.635963
1308.169343
1350.717127
1390.170628
1439.813007
1476.832221
1506.5461
1551.778641
1602.867787
1656.018758
1719.516482
1788.214009
1862.01966
1939.378767
2014.724877
2079.54672
2137.931398
2212.570682
2292.289279
2374.977701
2464.761502
2563.121972
2644.448934
2725.151148
2820.641074
2935.689523
3026.882136
3127.815676
3248.408146
3335.926356
3436.680031
3590.414586
3780.00749
4008.869009
4226.976902
4516.225403
5132.419556
6065.784144
8065.798589
7956.293232
2131.104451
-1783.18617
-2766.289644
-2672.585574
-39843.17714
)


100
(
1755.887811
1403.722675
1211.591231
1106.151345
1026.287879
960.4446787
910.9609195
869.5164303
836.2244772
814.6546781
798.247968
788.5694777
785.4065688
785.6100935
787.6738657
790.4604633
795.2154197
800.0650227
801.6788895
801.8674891
803.8593352
804.6012609
805.4670992
800.4604589
800.6140219
802.098629
804.0344552
809.0142238
809.6267339
817.0614275
829.1674097
842.9382712
858.6757765
869.0299774
879.4668335
895.9745522
917.389108
939.1063843
962.0176912
978.0884839
1000.453383
1030.360026
1063.716626
1098.78211
1136.910344
1168.542674
1200.521775
1234.470798
1269.809971
1305.412955
1340.377996
1363.03133
1396.420877
1437.979634
1484.23456
1527.698838
1580.967601
1622.438346
1669.430543
1721.041649
1775.335918
1833.938703
1876.089108
1939.78421
2015.414276
2103.737416
2197.68896
2287.242811
2374.450922
2457.000004
2537.684164
2635.381986
2736.112944
2843.850384
2947.811487
3046.727658
3157.755922
3266.716666
3387.545653
3543.343017
3679.932699
3800.58424
3926.555383
4074.946659
4218.557274
4453.474991
4690.26649
4910.736043
5199.523671
5548.019721
6028.215484
6853.410465
8063.150391
10651.11351
8954.949587
2561.212665
-1901.923798
-2994.275829
-3166.512426
-51913.60724
)


100
(
1773.095099
1389.563714
1195.602374
1092.976695
1014.800818
959.1199698
910.8216684
878.5071256
851.5057588
835.8867505
828.6201221
826.2689438
827.5374499
833.8373584
841.767159
849.2904328
856.5727
865.4720002
873.0252519
878.1076468
880.0018308
884.7597282
889.0419788
892.1049326
893.0566826
896.2233712
903.2397155
912.7454374
923.2484968
935.1257735
946.0756856
964.1838117
985.0692734
1007.542409
1030.157648
1042.30291
1062.364209
1090.527878
1121.525542
1153.537026
1190.873822
1221.308708
1258.990617
1300.140955
1341.965947
1385.253062
1430.129129
1455.36342
1486.922553
1525.557436
1567.667171
1611.779753
1661.913211
1707.820637
1760.758859
1816.262504
1876.828593
1946.840585
1995.825897
2041.939352
2108.57365
2179.503088
2259.279704
2349.514348
2452.872506
2560.25242
2669.352462
2773.431786
2862.985232
2956.700951
3073.891107
3205.689444
3339.069123
3468.168423
3593.144163
3741.639684
3888.496715
4029.435059
4182.208433
4357.825972
4525.343537
4717.560827
4906.82707
5078.720584
5326.289865
5629.95259
5932.3529
6258.3343
6654.549558
7165.405156
7806.957059
8928.942844
10565.51533
13562.90441
10498.50061
2767.871768
-1934.175426
-3131.838908
-3562.726562
-63062.46188
)


100
(
1801.990227
1378.455543
1181.75861
1077.073394
1001.687077
951.0536192
909.9860703
881.8829579
864.9604499
854.0941044
853.9324017
859.7926389
868.4018369
878.1221714
891.4810879
904.9804962
916.8511922
927.6398754
940.2966205
950.964069
960.4985736
964.0936222
972.3827458
981.3278802
990.0146696
1000.886886
1007.780335
1021.531951
1039.297776
1057.850592
1082.535718
1096.737313
1118.390656
1144.342406
1174.616118
1202.518632
1230.720383
1252.785933
1289.408422
1332.247573
1379.28245
1425.77377
1477.931668
1513.712786
1554.811101
1596.184394
1643.32584
1686.705511
1730.96669
1765.506202
1820.926145
1884.95786
1947.467634
2016.894112
2086.549158
2142.626926
2200.903508
2276.15951
2350.102848
2428.507899
2500.129548
2593.822168
2700.501832
2820.82006
2948.245198
3070.592946
3188.291165
3300.70038
3423.141572
3567.801395
3723.103606
3885.792954
4040.44884
4182.355296
4340.840524
4527.77906
4720.823737
4919.030339
5141.671988
5350.450257
5554.173145
5782.316442
6019.844554
6331.142002
6689.790956
7039.209517
7434.328346
7908.45201
8525.523084
9158.736839
10065.38799
11515.76694
13561.48788
16855.41728
11416.9967
3100.188613
-1786.752114
-3173.698467
-4074.344291
-78124.91067
)


100
(
1791.089678
1359.019288
1163.584504
1059.368826
990.8924789
939.1672371
907.0728128
881.4212357
871.6768458
869.8271654
874.5383726
887.4091978
903.4152099
920.0353741
936.4446607
955.2929541
973.3568348
989.3873447
1003.101388
1019.737907
1034.926166
1047.244781
1056.994141
1069.518907
1085.412834
1102.973072
1121.109435
1139.410074
1158.588329
1183.565108
1210.852701
1240.366104
1267.306159
1289.313015
1319.827382
1357.394669
1395.400112
1436.248643
1477.191887
1521.608481
1572.814166
1628.12442
1680.830276
1736.58881
1779.484351
1814.489445
1858.680703
1916.97675
1978.969458
2047.220329
2121.377447
2187.720183
2261.265574
2332.748643
2419.31623
2511.435408
2572.193721
2645.516304
2737.770812
2838.860373
2952.537566
3076.963233
3215.395392
3365.712447
3510.983576
3650.342587
3772.027741
3910.595838
4073.643479
4258.655951
4449.686981
4637.912862
4821.134904
5025.571189
5253.690356
5485.632099
5710.546641
5950.9759
6211.74493
6464.13427
6772.450091
7077.950588
7412.806867
7850.779954
8300.190412
8765.014383
9324.749861
9937.613378
10727.41625
11606.78989
12878.00934
14679.9133
17427.06615
20553.53185
12693.77965
3652.421003
-1401.16714
-3049.44402
-4242.581668
-93799.68761
)


100
(
1786.792546
1342.533697
1143.840884
1041.119973
974.5231736
925.5821891
897.9952037
880.7588636
873.3014876
879.1880285
891.1935958
908.6947935
931.5382551
955.3115268
978.0493495
999.7440028
1023.695487
1045.965713
1066.783893
1083.459068
1103.850124
1123.872453
1142.473122
1161.825974
1179.726512
1203.561547
1230.434984
1257.972062
1290.031338
1311.69021
1341.677776
1375.344606
1411.65082
1447.545646
1479.86355
1515.097355
1562.403669
1614.634714
1669.283699
1726.918486
1781.41072
1832.215374
1886.987611
1942.5372
2000.364375
2057.220738
2106.548366
2167.661642
2250.046076
2339.732933
2426.307885
2529.722154
2607.999742
2681.381619
2763.95747
2865.360696
2968.121215
3074.221425
3184.04858
3312.297013
3455.490541
3613.883149
3779.210622
3942.100771
4100.585362
4252.60536
4425.065608
4619.073035
4846.102002
5071.200199
5289.276269
5494.293884
5719.566723
5979.445634
6257.111008
6551.226275
6856.72618
7192.297006
7495.351149
7770.77097
8127.50433
8544.627858
9071.841774
9629.281981
10116.00806
10752.36014
11493.53066
12368.79551
13353.33779
14515.13918
16086.17224
18337.00926
21531.93356
24515.54855
13778.69243
4546.932161
-721.8341989
-2756.142867
-4663.723398
-122197.0234
)


100
(
1775.649235
1324.104584
1123.654599
1024.209958
956.5805837
914.1786461
885.0709385
874.4795262
872.5282648
882.3120116
901.8613504
925.2131371
952.0193057
982.4939797
1012.40592
1040.407459
1066.725404
1095.358574
1122.533757
1147.088319
1169.167955
1194.133078
1221.382007
1249.211297
1278.088072
1305.467619
1336.410229
1371.788005
1408.679974
1446.670657
1478.753034
1510.637939
1550.174652
1595.154575
1641.013581
1692.854888
1741.265295
1798.918196
1861.148496
1925.41519
1989.989282
2057.693938
2104.183368
2157.766686
2222.522098
2297.983456
2378.298491
2470.733373
2557.078163
2651.315831
2752.475525
2849.9679
2964.088558
3068.645199
3141.452662
3250.782229
3377.623904
3518.326017
3674.785593
3840.659229
4019.551356
4212.599494
4396.875602
4578.187261
4744.264344
4935.686686
5154.230308
5401.211784
5662.502034
5924.886849
6184.076845
6452.638983
6777.598586
7105.172976
7433.94489
7774.855344
8137.703921
8504.162126
8887.167285
9321.427161
9759.091991
10342.34802
11028.76424
11663.06266
12363.27408
13214.74906
14121.3491
15131.616
16387.87618
17831.35703
19917.20739
22724.16973
26588.03286
28447.77291
15318.99735
5774.737785
126.6539815
-2205.252179
-4439.555186
-137704.1914
)


100
(
1759.78436
1309.440708
1106.38525
1004.348456
937.2553298
897.293251
871.5684566
862.9148452
868.2246678
881.2908791
905.2560019
935.4058299
967.2414971
1001.068436
1037.605075
1072.985795
1105.931893
1136.520099
1169.781124
1202.305964
1232.633633
1262.624282
1293.591878
1329.277287
1367.142244
1405.345051
1445.417969
1480.598668
1522.063183
1566.112998
1610.3561
1655.395759
1692.523381
1740.148147
1797.439605
1860.608832
1926.548658
2001.185251
2061.08602
2127.535441
2194.345902
2264.73976
2333.629244
2405.35426
2465.263307
2553.369231
2660.18002
2771.459337
2876.990233
3007.404822
3101.652351
3202.858605
3314.860727
3437.67579
3567.769626
3688.720053
3837.464646
4006.658672
4197.275035
4402.492761
4610.658623
4817.960844
5023.458302
5226.72516
5455.228009
5707.687876
5998.265177
6287.025619
6580.47926
6868.837287
7175.935768
7514.838636
7875.174988
8278.890153
8710.829795
9149.439913
9615.350813
10033.08164
10449.28681
10961.29317
11606.89108
12404.95585
13196.5299
13928.7318
14830.35077
15870.42352
17050.08132
18332.49905
19781.79077
21609.22992
24104.17645
27220.458
31321.88104
32878.38302
17268.22541
7237.324375
1269.467163
-1439.686734
-4430.915421
-174777.2796
)


100
(
1727.712157
1291.451232
1086.610066
984.0390621
920.1392591
878.4720809
857.606013
848.3605276
857.2196906
877.0863569
903.0202221
937.5123207
975.7432998
1014.04299
1053.525927
1095.25416
1135.94132
1173.281595
1209.239848
1247.328183
1286.62555
1325.327797
1365.412888
1403.712489
1447.49104
1494.680403
1542.309038
1591.691289
1632.476114
1677.751143
1728.661115
1782.472131
1836.529197
1897.690908
1955.619832
2028.271483
2105.028922
2184.021587
2266.005343
2343.261605
2404.608263
2473.001004
2553.056226
2637.166899
2728.144017
2833.47478
2945.21152
3072.39241
3201.70549
3333.032479
3475.620175
3592.507862
3693.98008
3834.983355
3989.820078
4160.257491
4352.263769
4559.853659
4787.965521
5015.560943
5244.835566
5471.8935
5690.555052
5939.981508
6219.410164
6523.392098
6850.631347
7189.811656
7535.820362
7892.458626
8313.397719
8716.394416
9134.112864
9586.79464
10084.5034
10587.42868
11094.48579
11648.85007
12235.72805
12893.27457
13737.36269
14687.77841
15552.19011
16551.33946
17721.8379
18948.11148
20234.13705
21803.54539
23442.63161
25692.5845