/*--------------------------------*- C++ -*----------------------------------*\
| =========                 |                                                 |
| \\      /  F ield         | OpenFOAM: The Open Source CFD Toolbox           |
|  \\    /   O peration     | Version:  2.3.1                                 |
|   \\  /    A nd           | Web:      www.OpenFOAM.org                      |
|    \\/     M anipulation  |                                                 |
\*---------------------------------------------------------------------------*/
FoamFile
{
    version     2.0;
    format      ascii;
    class       dictionary;
    location    "constant";
    object      la_r8;
}
// * * * * * * * * * * * * * * * * * * * * * * * * * * * * * * * * * * * * * //

la_r8_table
100
(

100
(
-944.0205709
-234.8063743
-106.2190103
-345.4433526
-456.6078053
-575.7166676
-600.8828258
-664.1321748
-661.6161974
-699.7607729
-676.0108821
-683.4914335
-673.167659
-644.9019628
-647.9559527
-637.0757543
-604.0807641
-596.6440251
-586.1799604
-556.8649631
-538.6546315
-524.5816234
-504.5506302
-480.3917358
-461.0474609
-444.7550918
-422.8382071
-405.4585401
-392.8523938
-379.4938634
-360.1006764
-342.5376113
-325.5894493
-310.4048631
-293.2083797
-279.1857822
-271.5600003
-260.3403883
-246.4553091
-232.3684411
-222.0696121
-209.7339143
-196.3786528
-183.2520705
-172.9182374
-161.5686341
-150.1720724
-138.2915087
-131.6970158
-123.3741892
-113.872933
-104.2905216
-97.16599768
-89.2837641
-80.80303218
-73.29567715
-67.15872504
-60.80549082
-54.5014547
-49.07312224
-44.66647012
-40.11413992
-35.69088972
-31.70177674
-28.0901551
-24.56968504
-21.1095945
-18.26451854
-15.48018352
-12.87700134
-10.5021128
-8.401931751
-6.43259246
-4.658567723
-3.106822254
-1.721548479
-0.614920523
0.4300814139
1.261000402
1.903723821
2.467865234
2.787115412
3.041807246
3.108402854
3.109526536
2.980774297
2.809193878
2.538755639
2.253127907
1.947301761
1.628234309
1.300250606
0.9846035841
0.6934259847
0.4472562474
0.2503725386
0.1330204419
0.04423062231
-0.0006425564577
-3.982421262e-10
)


100
(
-815.026538
-309.3090028
-77.43116553
-233.4263095
-333.4361545
-411.7361854
-419.1661969
-456.207772
-451.1977165
-461.3335392
-450.7217779
-435.4892959
-420.5912317
-398.0596548
-382.6932742
-369.2883157
-348.0562021
-331.3840805
-318.2294954
-303.1618936
-286.3379705
-273.4970916
-260.6698634
-245.1897103
-227.9275177
-217.3655206
-204.6421164
-191.7871407
-180.3021114
-174.3908594
-164.523578
-152.6113896
-140.572271
-132.7744005
-123.560308
-115.3129955
-108.5608127
-103.7186105
-98.70859322
-91.89510534
-84.96991446
-78.94982951
-74.16071879
-67.88180834
-61.88533319
-56.698249
-52.83327727
-48.45938824
-44.95388526
-41.83720665
-39.54912755
-37.19555687
-34.31884913
-31.68820733
-29.4828695
-27.66845848
-25.88953557
-24.76978
-23.52293909
-21.31307761
-18.09203144
-17.72965408
-19.09779532
-17.98013676
-14.9381231
-14.81804409
-16.2555577
-14.70221558
-13.04800149
-14.06410985
-14.74289696
-13.34217687
-14.13273731
-16.57949115
-15.58677316
-15.3520207
-17.92121801
-16.43759362
-15.61108349
-17.78639952
-16.30272995
-17.29675181
-18.08504396
-17.46176064
-19.74569379
-19.42766464
-21.23776256
-22.05409337
-23.60164097
-25.01372856
-26.24816538
-27.88912141
-30.28736984
-31.41091328
-33.50253043
-34.00379898
-39.81745869
-47.70300728
-19.13460277
-4.259543092
)


100
(
-509.7111398
-101.7430001
53.98135604
-101.563491
-187.0556083
-228.0148458
-267.9210539
-261.1685595
-282.6311459
-273.7555296
-272.7020684
-261.486252
-239.3260858
-228.6773189
-213.9385952
-196.8700221
-186.7240969
-178.9258959
-164.4048795
-155.6484152
-151.8811775
-142.9196117
-134.5006484
-127.6119242
-122.359953
-112.6300693
-105.3482651
-98.62769548
-94.67321092
-88.99755995
-85.57813028
-81.98799127
-78.25243928
-72.70577695
-67.7496966
-63.75334252
-60.78148288
-58.72270502
-56.92619492
-56.07921784
-54.90191577
-53.13642558
-51.20229244
-49.37115175
-48.13679532
-46.35076928
-44.98551038
-43.48206687
-42.48166387
-41.40786166
-41.08312236
-40.62624758
-40.221936
-39.38849449
-38.46249862
-37.64826897
-37.3207976
-37.23153941
-37.28911054
-36.98284627
-35.38928893
-32.92341785
-32.59587711
-34.18104077
-34.93441921
-33.88230806
-34.20344643
-35.73964805
-36.00845157
-36.37431374
-37.89043936
-39.69293024
-40.23830393
-42.13407604
-45.08341841
-46.43101864
-47.17974729
-50.60177749
-53.87715475
-54.86164285
-57.44875111
-60.21710131
-62.96740746
-66.55136454
-70.61584848
-74.22308643
-77.61177921
-82.16919054
-86.24269122
-89.97717391
-96.25986649
-98.06941419
-99.77199796
-104.1731698
-104.8745528
-106.6407895
-178.4134706
-155.2716379
-85.13951089
-40.12255157
)


100
(
-37.04940443
25.03606886
144.1852186
5.187557442
-48.83745739
-92.5399521
-117.6632752
-127.4968853
-136.180049
-150.2869133
-136.8548404
-140.6553949
-125.7550967
-112.665424
-109.3161536
-99.02104395
-88.46623018
-86.02903193
-85.14799595
-77.2655396
-75.04099484
-76.34903204
-74.60848103
-70.4814831
-68.52470018
-68.2206695
-64.88397249
-60.6879733
-58.13020704
-57.49140973
-57.02889733
-55.86660019
-55.98159938
-55.20975774
-54.53169328
-52.15491878
-50.44305879
-48.98467779
-49.73626085
-50.23640675
-50.7135021
-51.22757258
-51.25016617
-51.41337674
-51.05430648
-50.94944322
-50.56776645
-50.96157292
-50.52747518
-49.98930777
-49.71513711
-50.02178114
-50.40372879
-50.95223357
-51.55429082
-51.69640109
-52.25455975
-53.51197675
-55.25972035
-56.34401985
-57.50537993
-58.14139154
-57.85808418
-58.23726837
-59.79944014
-61.3527893
-62.0645932
-63.5228707
-66.12660369
-68.99812635
-71.23870973
-73.95654154
-77.08015964
-80.52635777
-84.70538295
-89.89373597
-95.0748781
-100.0032566
-104.6971503
-110.3454562
-116.1297316
-121.8736864
-127.7675057
-135.5884233
-140.4307154
-145.442017
-155.2647615
-163.7047611
-169.4447691
-172.5069044
-181.0795504
-189.9706474
-188.6867897
-187.5343931
-191.4047109
-221.0125167
-406.2618349
-302.0314593
-191.7250686
-115.9154236
)


100
(
365.7195412
124.0331924
214.2540927
121.7649654
65.15667372
9.462441983
1.998023978
-30.17435143
-27.16543551
-48.37689323
-49.25545783
-49.26312974
-54.97948222
-43.01560451
-37.91823858
-39.70309253
-34.85630186
-30.99473492
-33.14078231
-37.53517302
-35.28086542
-36.42658277
-39.97900285
-43.2314948
-42.1284016
-42.63056674
-43.68486978
-44.39100324
-42.52820815
-41.834177
-41.80145379
-44.1528228
-45.02322249
-45.73854202
-45.78776825
-47.28488299
-46.93039069
-45.94481074
-44.18006594
-45.90020384
-46.89565206
-48.27745183
-48.611358
-49.7469917
-50.73029235
-52.75126413
-53.8397817
-55.64329902
-57.91295063
-59.4871043
-60.4750799
-62.0730029
-63.72794359
-65.75355632
-67.9976275
-69.95322171
-71.27897358
-73.34392386
-76.22616628
-79.3959278
-81.89825665
-84.41548872
-87.06112972
-89.75639257
-91.94361717
-94.32606029
-96.78394105
-100.1217691
-103.243122
-106.9703817
-111.3058245
-116.7544276
-123.1801742
-128.5489925
-131.8792117
-138.5187946
-149.7815225
-157.7923909
-163.3992541
-174.2606428
-183.7291877
-193.3712324
-202.9269859
-209.4860726
-219.4936314
-226.8883951
-235.6263679
-250.617531
-261.118772
-265.8213218
-267.3674259
-276.9625883
-276.1015489
-262.1088631
-279.7203712
-428.183447
-723.6632614
-485.396802
-328.0089712
-224.312405
)


100
(
360.8631278
258.6666593
311.6773745
214.8811824
150.4844488
111.8991312
87.35196964
63.96781984
44.01603715
35.09012356
11.89432163
11.80067244
5.015458203
-1.143160754
5.070790273
5.147195925
-0.2476996668
0.1715355557
0.3145108006
-4.01629211
-11.12906215
-12.5510594
-14.89595505
-18.72399009
-24.52763425
-25.40402819
-25.42399471
-26.7892734
-28.84734331
-29.01011601
-28.2685937
-28.31788488
-31.48155487
-34.42027943
-34.50705388
-35.06679686
-37.48145562
-39.85085518
-38.78266532
-38.62833745
-41.94173822
-44.38436488
-46.98848887
-48.56114556
-50.61652659
-53.29344556
-56.8181084
-60.60032667
-64.09405363
-68.60937898
-71.71891672
-75.06949098
-78.26870282
-81.22017585
-84.49662276
-87.63789382
-90.38629254
-92.93310417
-94.78010831
-97.93424124
-102.3848011
-107.5434292
-112.4151003
-117.0807706
-122.9129812
-129.6620045
-135.831483
-140.9550262
-145.7941045
-151.7335232
-158.6311911
-165.2385728
-172.0290746
-179.5296146
-191.5702421
-199.9041716
-205.515035
-217.76848
-231.2858997
-242.6481802
-249.0274793
-253.1509703
-273.1252721
-290.0345481
-299.2528631
-303.3804828
-308.3738826
-332.4019315
-341.1958028
-327.9326171
-318.3027748
-315.1454575
-286.453741
-271.593643
-316.6118559
-782.4498258
-1046.73119
-725.7016161
-515.3404314
-378.1081296
)


100
(
210.2086919
376.6330963
396.7755485
295.5748787
222.7288448
195.4597357
150.7570302
138.9562885
104.9146419
92.81853417
73.08834725
52.95788329
49.57616296
38.96320938
32.36633063
34.53410215
31.9955666
24.67812788
22.89172874
21.40267004
16.84343663
8.90218004
5.500393562
3.486894137
0.7212080923
-5.55999026
-7.922926834
-7.475686284
-8.794290011
-10.55829983
-13.25854959
-11.16206703
-13.28747955
-17.34553384
-22.46436003
-22.17947031
-24.19603456
-27.54334954
-32.46842255
-32.19177057
-34.89057356
-39.98039168
-44.94765768
-48.69767422
-51.78285622
-54.83540695
-58.8560063
-63.79139782
-68.75865158
-73.52665895
-78.27822427
-82.05720835
-86.09718113
-91.09256394
-95.37223238
-99.00702123
-102.9353805
-107.075171
-111.0554886
-115.1078261
-119.3614761
-125.794914
-133.9326653
-143.9244989
-151.877517
-159.029159
-166.5431555
-173.8631745
-182.7156654
-191.1365779
-198.6595382
-206.8541519
-219.5800891
-232.4500612
-242.4366305
-255.6671454
-264.5360407
-276.2516576
-283.4950495
-283.3368694
-299.1259479
-320.1350236
-328.8553357
-332.7541482
-330.5445589
-332.7615221
-335.1511898
-347.4613998
-345.5727863
-300.6956901
-278.5982645
-269.3367859
-253.8997269
-270.8993077
-375.3772267
-1155.829027
-1245.430019
-940.5823714
-761.3396201
-663.2237047
)


100
(
445.8880949
488.4380327
473.1071706
362.8507973
304.0328592
257.0697579
218.0889185
190.2755494
165.3692234
133.9379307
122.8723168
97.64205257
81.57520071
75.80116631
63.11005569
56.52992099
56.64154016
54.32177883
47.21338678
43.61051033
42.21100661
39.03129384
31.40274497
26.64130499
25.49099066
22.81860256
16.51118698
12.93705396
12.93717024
11.62511856
8.887545479
5.30644692
6.547664507
1.664975735
-5.042300181
-10.81739829
-11.9203462
-14.64365953
-21.0033645
-25.45671991
-28.4348784
-32.75121774
-40.2688631
-45.95352447
-51.09583149
-53.76527399
-57.4272528
-59.97547515
-64.88869906
-69.08062817
-75.34710179
-79.03598742
-83.04764891
-88.18953369
-95.24860476
-103.7482848
-111.8566156
-119.1162676
-126.4067601
-133.2916902
-140.1054472
-145.3973542
-150.2620356
-157.0281448
-164.1672905
-172.1948062
-182.3091598
-191.4949958
-198.7156077
-209.4661116
-225.8495775
-239.54759
-249.518005
-259.0233619
-264.2899254
-277.8016202
-285.6470524
-284.0216643
-294.8427718
-309.8433578
-314.9983639
-316.980038
-317.7194636
-317.832114
-310.3256202
-311.0223121
-317.736363
-316.1973678
-312.4136959
-311.3625117
-311.3990037
-327.3184521
-351.9958391
-423.5648833
-687.5709687
-1768.466299
-1532.74462
-1048.065142
-898.9728898
-1303.74602
)


100
(
789.5449048
558.2891594
532.8202438
433.5348106
371.2763537
308.5392317
278.4775221
232.4479589
214.985225
181.6278725
158.1608334
143.8674455
117.6205062
105.2465069
98.49271615
85.62239715
79.81788356
80.58151896
78.42088561
72.1524497
68.4792612
68.03848935
66.46344055
59.05695232
52.37877676
50.74306434
46.9782556
40.28341618
34.5062188
33.48296306
32.29882026
26.38261045
24.66707535
22.70233395
15.99461282
5.835560245
0.3782943477
-2.448416352
-6.384167789
-13.60667981
-18.38785243
-23.01991046
-27.95627009
-35.23232378
-41.05069715
-44.89592639
-47.84866225
-49.78039331
-51.11322528
-55.89088103
-61.85481708
-69.35941477
-77.04721561
-83.42093522
-89.25333351
-97.89462785
-105.9773784
-116.8278855
-126.6547473
-134.3657452
-141.2121543
-145.7167798
-149.9409922
-155.6945105
-162.4939623
-167.6522242
-173.5949991
-184.8674229
-198.5512896
-206.7568582
-214.5545816
-218.9400004
-225.0574446
-242.7214205
-243.8545229
-239.971813
-254.868347
-270.2315625
-275.7705843
-281.4784722
-291.5404742
-303.2303163
-309.8505448
-319.8704218
-340.4887639
-354.3758171
-367.5342793
-371.4659126
-386.723251
-410.2725494
-434.1319599
-456.0203927
-511.176705
-677.6467488
-1186.346299
-2631.740357
-2132.790544
-1387.807695
-1019.921225
-2447.400716
)


100
(
945.7248888
615.3463979
595.9539367
499.218459
423.0815402
367.6840897
324.6338636
284.0681873
250.043211
228.5036759
195.2427992
179.3529871
162.3500141
138.7896043
129.5559221
123.5655486
112.4899846
106.9054357
108.1317032
109.0697439
103.5656524
98.65076991
98.90548079
96.95281129
90.68483825
82.38591955
78.40234767
73.45822126
65.53599955
57.06325593
55.88366791
52.65845568
45.69757425
42.85105151
38.88791524
28.75009324
19.5124619
12.82922038
11.05513204
6.204769462
2.925166484
-2.028007217
-5.662304405
-12.63308111
-17.65266416
-23.51794353
-28.23079249
-31.85196058
-34.86575809
-38.7918359
-43.39038852
-50.90352667
-58.02804845
-65.5748141
-72.4153187
-78.36628251
-81.5221827
-87.15688448
-91.59261626
-97.63936543
-106.1814262
-113.8939249
-117.9731408
-120.6639889
-127.6047127
-137.1810917
-140.3905089
-140.7674514
-146.3048067
-152.6272342
-168.4905981
-181.4033451
-181.1861837
-189.0028234
-213.6413207
-233.566673
-247.914132
-265.947558
-289.0670293
-313.6881718
-333.7246033
-355.1577855
-382.3062478
-408.9703539
-429.7428622
-448.1088469
-463.9448439
-487.3850658
-507.6373749
-536.2023066
-554.8316943
-594.0087252
-708.5671385
-953.0107717
-1901.122574
-3646.586234
-2842.79777
-1911.709862
-1383.18627
-3995.625296
)


100
(
978.9764698
676.697184
655.4681853
554.9337205
470.5653645
423.1852075
363.3187332
332.3999159
287.6602406
265.8556367
241.0266835
212.550693
201.6827077
185.310338
165.1907
159.3607067
155.7877102
145.520494
140.9438179
143.3151033
145.5308691
140.3178779
133.4886761
132.969471
130.1544005
125.1710991
115.6663941
108.2832311
102.4783369
91.45590352
84.87884568
80.72267206
73.17934816
69.16688883
63.16297779
58.88576184
48.37271918
41.87082416
36.67052194
35.47479526
34.09595897
33.52664056
29.49626745
24.77774997
18.10797953
11.14773788
5.579791897
-0.09438710255
-5.20329608
-6.738511861
-10.53133018
-14.64973733
-17.04552217
-19.46186156
-21.34149694
-21.01465732
-22.88189713
-25.14657784
-26.9654237
-28.82650136
-29.95787784
-38.03260065
-50.54086395
-55.24649575
-54.96745616
-61.55126968
-71.25997123
-86.7105443
-103.3873227
-113.1943824
-127.3191173
-161.7474621
-187.4495452
-206.3092835
-232.5664082
-262.2112689
-294.9887938
-327.8072889
-356.8886565
-385.7795464
-414.4654083
-442.5949803
-471.264352
-493.8520793
-510.1638925
-550.9965354
-568.961236
-573.4452084
-604.3565004
-624.2153857
-658.4964939
-723.8262086
-904.3064937
-1285.281903
-3048.891244
-4691.933175
-3545.641474
-2458.330843
-1877.889999
-5986.718936
)


100
(
953.2540594
733.0708381
707.0005033
596.0313351
524.5395831
466.6345016
410.6641117
369.07588
333.977178
298.2378579
283.0987772
258.445562
237.3807855
229.9358308
216.6684399
200.3340899
197.0536181
194.9403438
186.7831328
180.6613459
183.3538472
184.8342042
180.6521592
172.8357866
169.3300071
165.8036598
161.6166232
151.9051462
141.5620851
134.4052828
120.7880483
114.3428016
109.5904827
102.5986727
98.87673785
96.1367766
90.15583404
85.60613242
79.31419334
75.86993533
74.65284026
75.316983
76.28115056
74.32138283
69.3516386
65.26141282
60.73590112
56.04715047
53.63838121
54.39985455
57.78071806
62.68042207
65.88315817
66.83584845
70.1545901
71.70405538
74.70262014
77.48023199
69.51219987
58.55162413
56.66913326
53.17589971
43.75349247
25.53956562
2.703571059
-17.42534885
-35.77465998
-58.274194
-101.2941753
-134.0440214
-155.7024261
-181.1628632
-207.1744533
-237.7608811
-273.636289
-314.7796221
-354.1352151
-381.5595589
-405.0606712
-435.7446191
-472.5403558
-504.1943424
-525.2879101
-560.3698882
-587.2890526
-606.3241889
-611.1979717
-636.0857107
-650.3833853
-656.8108405
-703.1162193
-794.6541132
-1064.007008
-1726.662204
-4508.691546
-5747.446359
-4202.069216
-3028.359787
-2428.238156
-8114.320768
)


100
(
1030.007632
784.2958068
742.7428927
639.3187842
572.0374816
501.8967471
457.4832097
403.4701325
376.8486696
340.9665563
317.5309687
306.1769798
284.3947392
271.1193786
267.3395217
256.9037914
242.5822075
240.5286754
239.5656344
232.9121304
224.1983341
225.6529417
225.9643376
223.1172518
214.7077939
207.9514281
204.6760099
199.3088248
192.2987478
181.5847691
170.7100953
160.2282147
155.0557493
151.5310889
150.0496026
147.2044383
145.168119
140.5542886
138.3985161
135.3738392
131.3668089
131.213551
134.8723397
137.0101677
140.1971697
141.760359
144.0655516
148.8663454
155.5356043
159.572236
169.4184458
178.8142669
187.4254073
194.8389301
195.398342
185.1924494
180.9923122
174.6579629
169.5614754
156.9626167
132.1701852
110.0498361
88.25709451
64.15583352
35.60481859
-9.376589682
-48.49860729
-75.23818904
-106.72954
-137.0870692
-169.9236914
-200.2486772
-233.8987157
-268.3981619
-302.4233117
-331.7177568
-358.055713
-384.4877563
-415.7938391
-454.9231423
-493.477107
-521.0809477
-542.0720574
-560.0671112
-566.7974342
-594.174494
-614.299155
-597.3938083
-588.0506142
-607.2864047
-660.0012475
-781.8756032
-1126.690482
-2318.465335
-6101.378842
-6794.850565
-4941.720953
-3633.717927
-3020.776118
-9669.255102
)


100
(
1115.370167
821.5632249
778.811101
686.6839251
607.3514147
542.5652713
494.7208929
448.1076805
410.2653862
387.7382147
357.7834897
345.8638693
337.596753
321.1263427
312.9371929
311.9629811
303.9029486
290.5207025
288.5587565
287.5861336
281.752799
271.4971996
269.8276601
269.2908575
268.473065
260.2000988
251.5479726
248.1874772
243.5432363
239.7800543
232.4323287
222.7463953
215.3383129
215.1757533
214.256733
216.8262021
215.2775859
211.9151903
212.4968421
212.3825071
213.4278631
214.0238517
216.1446475
226.4228654
237.5923723
247.5919163
261.3540543
275.9925812
289.2482904
303.035462
311.4663493
314.3306522
316.2784002
315.6542063
309.3310322
298.4184851
270.8361279
248.7776259
230.4222827
207.1351384
183.0771791
151.2035335
111.477392
78.03265004
44.55239887
12.62680888
-22.48235132
-58.04658247
-86.04887612
-115.1511788
-147.8461075
-186.2077274
-221.6422977
-251.4100351
-273.2469597
-296.5078287
-336.4119008
-376.4615173
-397.389321
-408.7828266
-420.6957315
-440.3408229
-460.5340776
-481.3750846
-490.2430388
-475.164831
-457.5538322
-438.8442351
-454.623359
-474.664965
-495.1700809
-624.4111809
-1169.853356
-3044.466576
-7740.321436
-7781.086831
-5795.0568
-4317.545109
-3740.296974
-13249.75466
)


100
(
1104.224564
852.0839231
817.8282002
722.0506121
637.1979675
584.0881766
524.7806119
490.9986993
448.1699895
427.1025393
407.4970211
386.4413665
383.7226715
378.8624304
366.0918955
361.4253216
362.0842553
356.0513533
342.8511104
339.6007967
337.7922275
333.2608253
321.9361938
317.1539163
317.4114171
316.1839442
312.014729
305.2248241
300.7989003
300.6110571
298.676524
298.696562
293.348764
289.5021618
292.8455111
297.2954604
303.2865564
305.7632927
305.5964209
310.48525
320.2789903
327.8885942
337.681544
350.7135404
368.6281323
390.4616873
410.7593232
425.0337466
440.3234374
447.1128673
448.6393441
444.1884126
425.5597786
403.9648958
386.3855454
364.3395411
336.0291473
307.3923583
269.9082013
244.6101562
220.313321
193.3140634
163.9401567
119.0816031
86.91555224
65.39833481
41.21423034
16.452258
-12.43197498
-47.27876059
-85.69697299
-122.1329287
-154.0502516
-176.5853655
-195.9480805
-221.0397235
-249.7375694
-268.2098219
-266.4566832
-259.0768215
-288.1804646
-306.7435728
-287.3604642
-265.0201145
-242.0486356
-232.4732281
-210.4933046
-179.1208928
-183.6435554
-194.3406851
-158.4596617
-411.2119101
-1104.55351
-3703.870172
-9227.084185
-8797.136002
-6700.530773
-5052.804687
-4478.509231
-15030.68776
)


100
(
1138.812869
883.5265557
847.0750973
747.4213677
671.6049526
616.9297538
561.349906
523.9524847
493.7170628
463.3915962
453.9988411
440.0200311
427.716059
430.2972892
428.5495479
418.1117685
415.0960053
416.367945
411.9463153
398.8955462
393.5508821
391.3693631
389.1818167
378.4658962
371.1273168
372.7201315
372.7794846
375.425005
373.1390798
370.5886465
373.100293
376.0649508
381.0274275
384.1985386
386.4960561
391.9881437
406.3690305
417.0215266
429.1939883
438.319243
451.9039048
472.4500855
496.3415888
514.7591135
537.1056639
556.8030265
570.6811315
582.5323337
582.4742965
571.2596373
557.5634233
533.9780696
503.4345944
471.0896593
437.0949675
407.0015197
387.1024848
361.2483131
340.3795104
314.1504627
278.2697266
257.3707876
231.0756229
208.4616991
187.5567835
160.0472525
139.2436239
115.1295119
86.67968782
55.36803939
28.58351526
13.44569095
-0.3518261538
-14.46479495
-39.72342127
-65.35204035
-84.53007859
-85.41582646
-67.18584601
-50.6384446
-37.24337855
-13.27232721
23.19584716
36.20233309
86.50146667
164.1790384
192.9281247
224.6202113
239.613159
250.5545345
317.5198701
-112.9620079
-885.762276
-4301.008453
-10283.57606
-9806.782993
-7592.268915
-5779.485678
-5226.32539
-17115.31521
)


100
(
1197.903217
913.2899885
869.5643934
770.7618346
705.020635
640.310784
598.9013712
554.1598213
534.6253234
509.3374246
494.0297176
493.2597893
483.352398
477.9654726
484.3413413
484.9190294
475.8500308
473.2910438
474.3681627
471.9329453
459.3309169
452.124608
451.7940681
449.3652548
444.392649
438.8744897
440.6872047
447.3180672
452.2571193
459.0367015
462.2583601
465.9954081
477.4290378
488.0127366
502.4523021
512.8584616
526.4158557
550.4766769
576.5891951
596.6524643
621.636334
648.1703232
674.747121
702.1259627
718.6622493
725.8825468
729.5770293
718.0028855
696.6573477
670.5131765
629.6253979
596.1919798
566.1807541
534.5900775
504.5874399
483.665462
460.6146106
445.8327951
428.326659
404.9734567
384.2868736
353.2745119
332.8961692
322.6434608
309.5605519
297.1819746
277.7383847
256.5692675
235.0844698
219.6863926
214.4079155
206.550239
195.645029
181.379098
168.3048153
171.3631921
185.5064284
225.7524744
255.8277626
263.1547559
295.6806394
347.836709
427.3751572
500.3762245
585.37977
654.9899874
700.3650405
769.5397692
841.0893288
863.1666111
797.9601403
495.553627
-571.779732
-5333.503075
-11756.43501
-10707.48609
-8420.225244
-6420.481044
-5989.564814
-21008.05425
)


100
(
1224.168676
937.1763589
885.936756
796.7116793
729.6585691
667.9747376
628.5390068
591.6639069
566.2606929
556.321509
540.7188567
537.3085789
541.7801223
535.9527566
535.1728147
543.5478805
546.3734744
538.6050623
535.5179329
536.999655
536.9740626
527.1772961
518.816736
521.2571138
521.3017719
525.1519837
525.5461491
527.85897
539.5768178
551.2261453
568.738185
579.4053837
589.8884944
607.9079657
633.5183185
654.9612089
681.2427922
707.641744
741.4145335
780.6196441
817.1326307
841.5562609
869.4190371
882.570089
888.3516564
879.8945765
853.132663
821.4214471
789.3871747
746.1204015
708.0754728
680.7893443
648.9486601
629.3145803
613.0052685
598.0524133
581.0778034
564.4373216
539.1993422
528.2640098
515.9877675
499.1911594
489.0192692
474.4369089
466.3420997
452.6342128
441.4560134
432.1815469
429.5608936
437.6743294
449.5982774
458.8674575
462.7316463
465.0826411
482.7131048
509.2420735
540.6877373
585.2452787
640.097524
699.3044932
788.9055792
878.119016
945.4265532
1050.662653
1169.565441
1289.626253
1412.120364
1531.316836
1629.253076
1667.176724
1645.169581
1205.64271
-23.88010315
-6148.66595
-12575.18389
-11451.99542
-9115.031404
-6977.912542
-6693.935498
-24321.87191
)


100
(
1196.59466
957.9803111
904.9611173
817.4196375
744.7227805
697.4363746
650.3838337
627.3280509
600.5086518
593.7287207
591.7737825
584.0387797
589.8640154
597.8434495
595.3357626
597.1528157
606.5907274
611.8822206
606.7516029
601.1564499
603.8026555
606.6128999
604.4183304
600.6100359
605.0243642
613.5211305
621.7212738
631.9213995
641.5722448
656.4276803
681.0008334
704.3760804
729.776746
750.9495185
777.2823623
817.4901777
856.4568673
891.781206
933.675926
976.8380259
1009.374877
1035.96402
1042.034122
1040.846907
1027.097354
1001.332193
957.6896299
917.8086097
870.209666
840.4688609
821.0602882
801.0864067
788.7293925
777.9040487
763.5060155
751.7726501
734.8886101
718.7645977
709.4880277
697.1040499
688.034137
686.7959089
683.9538961
682.1363288
672.675173
669.8833428
671.4498551
682.4888603
703.0489355
723.1283496
739.612457
758.6288089
785.9858577
825.5942658
884.1399044
951.0566065
1020.195401
1078.033794
1149.839951
1247.697484
1375.637389
1522.296879
1650.226368
1769.403449
1915.737302
2115.938785
2330.480971
2529.795966
2665.923851
2696.995136
2671.111261
1988.091261
368.3663268
-6907.331991
-13722.6709
-11949.66074
-9667.222863
-7431.685759
-7329.678491
-28371.29082
)


100
(
1142.325141
974.1501147
922.2135196
830.7305176
761.8956234
719.9988811
676.4427958
653.2870094
639.0120374
627.6229972
634.5732797
638.8450001
637.4763173
649.3176099
660.242458
659.9676353
663.4509056
673.3394661
681.1254487
676.3924764
674.8153332
682.9554588
688.2903872
696.3838183
701.5036022
708.0633727
724.2916671
741.3060503
765.3218392
784.0878009
804.4877308
841.3085036
879.8455606
916.9073544
953.6331083
994.6860093
1040.457224
1092.883978
1133.636191
1170.164956
1196.36106
1205.799569
1194.914316
1167.095047
1127.082465
1095.558044
1058.113972
1022.633027
996.4274849
985.6465782
968.6366294
968.6415824
967.3294537
963.5750847
958.3591814
943.5804889
927.1274649
924.0592802
925.8019226
925.2245231
929.8276238
934.8097588
940.0998403
940.5285701
944.7829985
957.7116613
980.4402144
1014.493291
1056.862385
1090.999311
1128.252755
1174.651193
1233.256626
1312.189487
1394.547438
1475.699031
1572.793051
1689.903495
1812.240114
1980.823374
2141.970689
2317.017156
2494.96317
2662.719259
2892.130184
3193.178632
3480.629232
3732.224619
3942.865312
4007.57153
3957.027661
3149.685967
1086.339865
-8467.855367
-14337.84827
-12329.55938
-10106.43554
-7811.237221
-7992.418294
-34327.60597
)


100
(
1190.562686
990.2431463
933.81342
839.8311451
780.803993
731.8219381
702.3421431
675.70842
671.3806347
667.3285913
669.4739645
685.5877645
694.4497584
698.4703663
713.3135472
727.3738349
729.3783151
733.707311
744.5363476
756.4529257
762.5309519
763.6520108
774.3734111
788.5938803
805.2120099
820.8452339
837.4192162
860.395265
892.227666
924.6788719
959.4026891
992.6333104
1037.581653
1094.05639
1143.591762
1193.945318
1244.223528
1289.755909
1326.804693
1348.0947
1352.003382
1348.085799
1321.041549
1280.830644
1235.520234
1195.658778
1170.727734
1162.634579
1161.570416
1162.234484
1167.883382
1172.056405
1170.539372
1177.824528
1170.896644
1172.549662
1181.635515
1183.42494
1193.110747
1210.616949
1229.417288
1248.426779
1261.717698
1281.252644
1309.691298
1345.542432
1395.243548
1453.398945
1499.466962
1544.766769
1617.37187
1703.707761
1814.213222
1925.629722
2040.451448
2160.97317
2303.350775
2462.375774
2623.612627
2837.216069
3074.2646
3299.713994
3514.420065
3769.97003
4138.681619
4522.347116
4872.199097
5196.407623
5413.711724
5549.030491
5393.979519
4449.094904
1963.738399
-8769.049054
-14906.84813
-12617.82126
-10474.46222
-8103.825539
-8505.418712
-40430.0083
)


100
(
1229.503105
1001.211698
939.760941
850.4462239
792.5563188
744.9720222
721.0855783
701.9265072
694.6415564
704.469031
708.8743482
721.5624373
743.5897745
755.8189279
763.881121
781.0910365
798.1707399
804.5322079
810.4698959
827.3997814
841.0144457
855.6446454
867.2036193
883.3603193
907.1583759
933.4961116
965.4346298
993.8372458
1024.255501
1072.831392
1119.483602
1170.944377
1219.302266
1274.948505
1338.236205
1399.58957
1445.095478
1487.739095
1507.064642
1511.24062
1495.404395
1459.266204
1425.576442
1396.70964
1360.307623
1337.524674
1336.839754
1343.789424
1349.555936
1377.431411
1390.853499
1398.42389
1411.637991
1407.700316
1419.326219
1436.959823
1463.931136
1488.597853
1520.112709
1552.773199
1585.031625
1611.846774
1645.066743
1692.048463
1749.812891
1818.167985
1898.24408
1970.927116
2044.340219
2133.768199
2237.832236
2383.879119
2527.497268
2650.730406
2802.391338
2992.079673
3204.826445
3440.873108
3673.306248
3880.689887
4138.725239
4456.717823
4765.51406
5176.283237
5643.36011
6093.898572
6487.010896
6911.462797
7203.796732
7346.291777
7109.222668
6144.379016
2802.563411
-9858.829661
-14976.11713
-12759.17951
-10721.02982
-8257.416369
-8858.109659
-38944.17909
)


100
(
1181.50595
1010.674001
947.7800298
860.1287862
797.4227654
759.9783705
731.4673884
723.9173861
719.0420543
729.6774534
747.9146592
759.8654425
780.2353499
806.1832778
821.7096244
832.9657793
852.9854864
872.1662113
885.5017877
897.1176349
917.365696
939.088313
966.2895133
988.6860591
1014.215989
1048.625837
1088.942713
1135.212365
1180.004187
1224.906226
1284.573106
1353.475482
1412.592036
1479.332387
1540.281202
1596.329838
1640.430447
1658.409354
1664.783341
1656.562967
1628.905395
1585.229552
1552.566607
1521.445287
1511.391465
1519.408627
1535.249803
1554.853565
1587.477314
1611.820705
1635.015704
1656.132886
1663.794759
1681.837306
1708.365301
1732.73957
1777.228015
1828.50775
1883.39982
1932.297337
1981.444309
2034.22001
2098.976649
2174.455886
2267.881414
2372.935618
2464.405871
2558.58961
2679.132665
2815.170923
2974.316991
3153.538438
3340.359045
3529.804516
3742.631594
3988.110113
4275.050546
4558.338871
4862.314337
5142.545326
5446.851687
5824.436412
6274.680913
6809.050294
7349.287257
7874.497987
8391.742535
8844.647817
9198.932541
9341.146373
8937.652557
7839.507836
4534.970206
-9007.063759
-14850.79335
-12698.99401
-10799.19127
-8277.342823
-9136.451747
-37773.44185
)


100
(
1129.266565
1016.564633
956.1229429
864.9289177
802.6144191
769.0718922
742.934243
736.9898181
742.6454198
751.7930706
775.780669
800.1797964
817.4068043
843.1523662
871.8287831
891.5334006
906.0637997
929.5866305
952.5268681
975.5230167
995.996865
1023.151428
1056.144255
1090.838464
1131.507964
1169.74111
1213.668156
1273.173814
1331.506408
1396.985886
1460.353957
1529.159183
1608.508247
1681.051162
1742.260973
1794.037049
1821.974491
1826.386028
1810.223772
1776.875254
1752.692649
1727.325649
1699.916021
1690.097205
1702.825419