/*--------------------------------*- C++ -*----------------------------------*\
| =========                 |                                                 |
| \\      /  F ield         | OpenFOAM: The Open Source CFD Toolbox           |
|  \\    /   O peration     | Version:  2.3.1                                 |
|   \\  /    A nd           | Web:      www.OpenFOAM.org                      |
|    \\/     M anipulation  |                                                 |
\*---------------------------------------------------------------------------*/
FoamFile
{
    version     2.0;
    format      ascii;
    class       dictionary;
    location    "constant";
    object      la_r6;
}
// * * * * * * * * * * * * * * * * * * * * * * * * * * * * * * * * * * * * * //

la_r6_table
100
(

100
(
-3308.457943
-3042.910193
-2814.793315
-2525.828537
-2333.278227
-2174.632853
-2063.46793
-1942.235496
-1857.419499
-1780.842667
-1695.604113
-1664.961954
-1599.012971
-1532.480909
-1493.653643
-1429.313339
-1357.246938
-1323.246046
-1265.348405
-1198.578455
-1160.56285
-1118.822558
-1066.109887
-1017.094842
-991.0910514
-950.672475
-903.1755346
-862.372077
-833.4495708
-795.4064601
-752.8969362
-723.9649828
-700.4793263
-668.9875464
-632.9270416
-599.2607293
-574.5472355
-545.8996503
-513.96056
-484.7158256
-463.069163
-438.1954084
-410.101601
-384.5674692
-366.0097178
-345.1006782
-321.6588962
-297.2482938
-279.7086036
-260.5817615
-240.2647498
-220.5544361
-206.0518018
-190.3503342
-173.554602
-158.8713295
-147.356267
-135.1572388
-122.5528094
-111.1908531
-101.7289735
-92.00303615
-82.00757897
-73.32218165
-65.78933516
-58.04524292
-50.26094229
-44.1218936
-38.21361986
-32.34944519
-27.0486028
-22.55366216
-18.19251492
-14.12750533
-10.8122921
-7.712872664
-4.941418637
-2.581303595
-0.5749629392
1.156009752
2.553610943
3.578557133
4.399471556
4.822420891
5.147519494
5.14578718
5.044012069
4.725182263
4.331067573
3.878891681
3.367897873
2.81096888
2.239175025
1.686922918
1.192794741
0.7743815744
0.4864564194
0.24868345
0.06150496021
-2.527716036e-10
)


100
(
-3407.968717
-2886.47808
-2662.291369
-2333.416312
-2113.365798
-1947.608238
-1761.997113
-1661.240971
-1533.634743
-1456.088
-1373.520449
-1297.429118
-1236.458097
-1160.921597
-1093.884717
-1038.586235
-974.5073223
-906.9829493
-865.5070452
-815.2827287
-761.8629026
-723.5461027
-688.1312655
-646.8986429
-606.5706989
-582.2665221
-551.1694257
-515.0076616
-478.7573154
-458.0332432
-431.9744154
-404.3072708
-379.1071402
-362.3539957
-341.873068
-318.4554797
-294.111748
-275.4980438
-259.5127712
-240.5912936
-221.3828936
-205.3518058
-192.6624295
-178.1670525
-163.9197116
-151.599781
-142.0541724
-131.4734103
-120.2929974
-110.11297
-102.2308028
-94.88452516
-86.97984752
-79.71703807
-73.80402156
-68.88368604
-64.42370966
-60.89645385
-57.58846548
-52.5704672
-45.84651358
-43.35114202
-44.08748917
-40.66133873
-33.94979016
-31.99833924
-32.94510764
-29.2127019
-24.93753851
-25.29030246
-25.37912083
-22.0808081
-22.06691552
-25.44193413
-23.23119962
-21.71593243
-25.31998925
-22.3282933
-19.59301673
-22.61095742
-19.43991838
-19.93512223
-20.96483436
-18.50523681
-21.34156088
-20.32012235
-21.64562128
-22.41246287
-23.54284103
-24.36199296
-25.70118289
-27.18887424
-29.98225409
-30.54458039
-32.58431898
-29.85463133
-28.0923516
-37.71337179
-16.55246087
-5.631857116
)


100
(
-3595.714446
-2838.709751
-2561.112794
-2179.015738
-1969.563715
-1759.295964
-1577.815683
-1438.152239
-1316.203677
-1205.676498
-1129.853496
-1042.370621
-979.9017817
-914.0879405
-841.5526412
-786.6438971
-735.9662773
-679.1369675
-627.9690499
-594.9801561
-555.3213917
-517.1915399
-486.7677129
-461.2161406
-432.1555403
-405.4853483
-384.8338739
-364.1537196
-340.5056792
-318.3213079
-299.9807423
-284.4485388
-267.6144172
-252.4709499
-239.6346859
-228.6193017
-215.8164375
-202.6492652
-190.3692235
-180.318159
-170.8974692
-161.070969
-151.9808352
-143.8083909
-137.204119
-130.4460709
-124.3095883
-118.8395155
-113.9850112
-109.3070056
-104.4249241
-99.70276587
-94.92653696
-90.76832453
-86.35827129
-82.43730055
-78.82101367
-76.5486313
-74.46406932
-72.18224144
-67.48138471
-62.01098902
-59.63024357
-60.17528915
-59.22203622
-55.80793816
-53.97838714
-53.47379902
-52.10806435
-50.76940062
-50.89742192
-51.34090582
-50.83834092
-51.86255004
-53.82627493
-53.86173236
-52.35565303
-54.19542362
-56.71075919
-56.33343196
-57.28961422
-58.1761834
-60.33926758
-61.35193141
-62.37285114
-64.89401475
-65.85220924
-67.79036479
-70.86833516
-72.7372489
-75.99272873
-76.60412143
-77.62542342
-77.94884314
-73.01387126
-62.73353701
-85.80668833
-87.41964028
-45.20690023
-24.44963274
)


100
(
-3835.657559
-2796.309307
-2447.771757
-2094.485806
-1845.863189
-1592.73506
-1434.535633
-1258.09316
-1152.509177
-1036.006642
-954.1615194
-877.2129944
-801.1196317
-750.7814739
-691.1863388
-633.017822
-591.3090643
-550.4345647
-507.7736924
-470.7527704
-447.070666
-419.2829691
-392.6867904
-369.8902925
-353.1805114
-333.8696765
-315.9588518
-300.4065051
-287.9413973
-273.5129793
-259.1837961
-245.8340388
-235.6462643
-225.7819992
-216.148579
-207.8345995
-200.6475959
-194.3240056
-186.8584105
-179.4810628
-172.3844394
-166.2458562
-160.8718958
-154.798839
-149.0214174
-143.0677549
-138.8344846
-134.086579
-129.9022078
-125.5417998
-122.544178
-118.7389885
-114.9306583
-111.177989
-108.2960953
-105.2773076
-102.4106348
-99.82222028
-97.93354711
-96.20143964
-94.51252233
-91.98320566
-88.6658363
-86.80871828
-86.63038029
-86.35051408
-85.46640651
-85.12664113
-85.38320778
-85.99726067
-86.4431986
-87.27488612
-88.24636034
-90.15929543
-92.7913553
-93.81252008
-94.33054413
-97.3811422
-99.97871306
-100.763504
-102.343374
-105.4759372
-107.8061146
-110.0553332
-113.4315895
-115.9066804
-119.1590442
-121.7557639
-124.5964444
-127.0283321
-128.1938559
-126.997857
-123.6928027
-114.228406
-103.4529778
-91.24724132
-149.0847181
-146.9888863
-98.44161887
-63.6080077
)


100
(
-4003.08759
-2808.469773
-2395.655255
-2026.910235
-1727.810105
-1491.527634
-1313.587786
-1150.01036
-1026.20671
-924.925756
-828.8138915
-765.8673278
-698.1160154
-640.7247779
-598.2487204
-550.5075142
-507.2444136
-476.3005047
-446.3579607
-415.708062
-389.9164341
-372.055913
-353.373048
-334.6555933
-318.1602393
-306.1935125
-293.6077954
-280.9980392
-269.8271947
-260.8692442
-252.2102165
-242.2595617
-232.94714
-224.0880158
-218.0822911
-211.0667147
-204.7850656
-198.1003206
-194.181514
-188.5474312
-182.639456
-176.5841557
-171.6000007
-167.7165716
-163.3688363
-158.5710709
-154.1011043
-151.1417377
-147.7671909
-144.6108576
-142.1092937
-139.9760586
-137.3830217
-134.8742622
-132.9493213
-131.1017417
-129.3540089
-128.222098
-127.3902397
-126.4718757
-125.7693578
-125.4618807
-124.8609749
-124.1288905
-123.2433255
-122.6971879
-122.6243665
-123.2785781
-123.3991855
-123.8644621
-125.1658863
-127.5537582
-129.2641726
-129.2824925
-130.1782001
-133.9943614
-136.3135706
-138.2060203
-139.2902918
-142.3059589
-146.3426997
-148.2234508
-146.9494402
-147.6384791
-148.7773616
-148.9724737
-147.6116995
-141.5218419
-134.1992729
-120.4779331
-106.5423015
-87.30319192
-57.84537888
-17.92661896
25.71210792
58.18212767
-83.24022751
-182.8837583
-164.8453989
-123.1253398
)


100
(
-4035.333396
-2829.547234
-2362.870645
-1953.656132
-1630.437198
-1416.787799
-1213.933493
-1073.251941
-937.7577072
-847.3536826
-759.3092821
-688.2495996
-634.2531192
-580.0333343
-537.4754402
-503.5615802
-467.1532834
-435.3065556
-412.3535039
-390.9898099
-368.7291219
-349.8625366
-335.7364985
-323.0968625
-309.1768563
-296.9582935
-286.7585165
-277.4991257
-267.7903369
-259.1690856
-251.4126471
-245.5190728
-237.8617751
-229.7743375
-222.1902763
-217.712805
-212.2022834
-206.4062069
-200.7333248
-197.8930221
-193.2540835
-188.3961716
-183.3840808
-180.4338281
-177.9746674
-175.1247562
-172.0278372
-169.7805168
-167.6358887
-165.5314214
-164.2630193
-163.4463974
-162.2457207
-161.1151125
-160.4119658
-160.0136124
-159.5927814
-159.5078917
-159.068318
-158.426142
-158.1300344
-157.9972903
-157.3830406
-157.0902967
-157.7967222
-158.6566792
-158.7513218
-159.3538571
-160.7260465
-162.2474198
-163.1727284
-162.7305813
-162.0654384
-161.6995691
-161.4720571
-160.8495559
-161.7994781
-161.8894523
-160.2203402
-152.4706173
-143.6808527
-137.8356999
-128.6972441
-115.8031639
-98.95107654
-75.06981555
-53.46387315
-21.79233375
22.27751936
64.80051338
115.5961914
178.8169888
254.790407
340.9341469
443.7565741
462.0233533
143.9437738
-149.2022485
-198.6273663
-192.723555
)


100
(
-4017.350247
-2845.181793
-2324.881113
-1885.752344
-1582.536035
-1353.556593
-1156.59712
-1014.536956
-890.3722893
-789.9985806
-716.8020736
-645.2545157
-592.410605
-547.2931159
-505.1020904
-473.1776606
-446.9985844
-419.1338147
-395.1847325
-377.2093043
-361.7142322
-344.7583125
-329.9384161
-317.8862674
-308.7222273
-297.540405
-286.9029112
-278.3775576
-270.2489315
-262.0912761
-253.5081439
-247.4904562
-242.4814317
-235.9856589
-227.9521838
-222.6748707
-219.437888
-215.5350012
-210.1288025
-207.2780719
-205.1474176
-201.832859
-198.0080626
-195.4244521
-194.1769767
-192.9253376
-191.8714607
-190.5665624
-189.6578575
-188.177791
-188.038494
-188.0880577
-187.926417
-187.1830705
-186.0100466
-185.0485709
-184.6379486
-185.1651652
-185.4208794
-184.8795546
-184.5527066
-184.8238265
-185.0499013
-184.9436989
-184.5490246
-185.3669437
-185.2958744
-183.4950014
-181.3073641
-177.4338945
-173.6232151
-170.7990061
-166.9436292
-160.7242939
-155.8336461
-145.6862992
-131.2022827
-112.2718407
-91.74358372
-73.69991078
-48.44383903
-17.021353
18.3611147
61.28313457
101.5552654
147.2681515
196.8508435
249.3076964
306.7157041
364.8514841
418.8390302
479.4973817
546.8656553
629.1841929
725.0248813
656.3587507
281.2690965
-51.2627751
-150.9249629
-293.9017101
)


100
(
-4136.946851
-2853.777464
-2285.226981
-1848.546199
-1550.306841
-1299.031714
-1122.487158
-966.890488
-860.5201093
-759.8210231
-687.6357544
-624.6204603
-567.8690669
-527.9411103
-490.8155131
-457.7456189
-433.0081177
-412.9782184
-391.4438618
-371.9632718
-356.9499329
-345.1636333
-331.3729642
-318.4792341
-307.4307865
-299.4847223
-289.5697119
-279.7459806
-272.1774764
-264.8780759
-257.6043004
-249.4403939
-245.9868233
-241.9237871
-236.1377597
-229.6286026
-226.8877026
-225.2024528
-221.8905134
-218.8231267
-217.6214401
-216.3392935
-213.8220134
-212.0738908
-211.1820871
-211.2388857
-211.2415504
-211.6064639
-210.7033084
-209.6152194
-208.2581198
-207.6262663
-207.0275677
-206.0975532
-205.3109761
-204.31055
-202.04454
-200.7640861
-200.7791707
-200.9784069
-200.4855287
-199.6202103
-199.2483969
-196.5804631
-190.1024731
-183.1028977
-175.6488587
-166.2585084
-158.1324355
-149.2211487
-134.8308389
-120.2535911
-104.9937521
-83.12485628
-57.88409211
-27.3103327
3.752363406
32.69445863
72.38640968
113.9921514
155.1918212
198.6269294
241.3189903
283.5257141
322.3432254
361.2304688
401.794701
435.6721746
479.019214
518.843862
561.3983798
617.1851501
690.8658063
789.0754589
894.0445009
721.8119211
261.2731332
-10.15509841
-49.94557213
-456.4615429
)


100
(
-4259.907953
-2858.507356
-2265.035444
-1833.931604
-1519.410597
-1272.53843
-1097.047187
-946.7680526
-838.0544562
-747.5368157
-667.9899517
-613.7028139
-560.5445726
-515.3526047
-484.2930267
-453.5806201
-427.0217953
-407.6903096
-391.930159
-373.6396231
-356.9607249
-343.4315792
-333.8477056
-322.010776
-309.9169728
-300.0105632
-291.8603852
-282.9905475
-274.0040064
-267.5075039
-261.7312542
-254.3997365
-249.4223643
-247.5200089
-244.5916139
-239.2745518
-235.646543
-234.8255286
-233.8416454
-231.9539331
-230.4877915
-229.9766458
-228.84255
-227.5781395
-226.6860576
-226.338711
-226.3955457
-226.3595122
-225.8876074
-223.7548873
-221.054943
-218.9467707
-216.9535453
-214.8581387
-213.3776936
-212.3012796
-210.1489095
-206.4452889
-202.489972
-199.4124087
-194.810601
-186.8465411
-177.0557537
-164.6071833
-149.1120741
-133.9476
-119.0764921
-98.48013203
-74.5037385
-52.47598289
-24.63996119
8.31814385
45.24138391
85.41372415
116.9930692
148.0465479
190.5061876
229.0457949
263.7523475
297.6513996
330.2530459
359.2826881
384.2180823
413.4452003
447.8956809
480.8733495
510.5443391
552.1859251
591.838714
636.4543004
693.6466292
775.3301462
886.717518
1030.822981
1151.903128
848.6386557
219.068369
-65.92766569
55.75749632
-915.9871865
)


100
(
-4281.678044
-2885.279466
-2268.799736
-1821.789167
-1489.790582
-1263.017658
-1074.779485
-939.0100466
-821.4445956
-741.2038594
-665.4816185
-603.7354148
-559.7999591
-515.4463785
-478.9357042
-453.9272144
-428.3678941
-406.3050938
-389.1670108
-376.1812143
-360.5895686
-345.26933
-332.8775697
-324.2199969
-314.4634293
-303.627545
-294.5801982
-286.6410932
-278.6161138
-270.6823955
-265.887775
-261.1649761
-255.2246982
-252.8312071
-252.1730176
-249.1756065
-246.0093253
-243.9441914
-244.3562893
-243.5511217
-243.3079443
-241.7935324
-240.6176367
-237.9800764
-235.9558908
-233.8754005
-232.0561285
-230.8070915
-229.5973166
-226.8867476
-223.5672167
-219.6380049
-216.4635939
-212.6925202
-207.9763313
-203.2481528
-198.6755409
-190.6251418
-177.9006715
-161.7137322
-143.5900029
-124.3072545
-106.0177704
-86.1112251
-58.2854527
-26.65364885
-0.008222235793
28.72802791
63.85515743
103.4913967
148.3704593
188.4872716
216.8017593
249.0233327
285.5890611
314.0319533
339.860246
365.8614262
390.9045244
413.596947
434.0155641
458.8282423
489.0855755
524.2545303
559.3540731
599.3542565
641.9708563
694.2026639
747.8010638
811.6033736
899.7029721
1019.786863
1170.276626
1376.69518
1508.536463
967.1390636
159.9344213
-163.8205421
46.53248719
-1630.946976
)


100
(
-4306.329994
-2908.792118
-2272.254851
-1806.856616
-1483.568978
-1256.892246
-1068.078019
-935.1054043
-821.9792108
-734.7843037
-668.7618051
-605.8504885
-558.2684391
-520.4354032
-482.9791092
-452.5269443
-431.4714221
-409.1564056
-389.8189284
-374.5241341
-363.5197742
-349.9643855
-335.671209
-324.9784152
-316.781643
-309.3385993
-300.2090602
-291.7148532
-284.6616193
-276.4131732
-270.161538
-267.6324756
-262.6361918
-259.6401019
-257.9273733
-257.4201325
-254.7399689
-252.9328337
-251.4038198
-251.145596
-250.5000255
-249.3117349
-246.206724
-241.8588675
-237.2075053
-232.4323543
-228.2076315
-224.4199038
-221.3922398
-218.2821776
-213.0670333
-206.4833549
-199.8113576
-192.6093853
-183.1309636
-169.2693032
-149.4496023
-128.2519172
-104.144196
-79.76694311
-53.02191231
-18.46496321
17.35716918
47.31509098
78.40489254
115.8877633
156.2006763
198.6299916
236.9776717
265.4227054
297.3018247
335.5468301
361.8977555
382.1487343
405.3591811
429.186788
451.7557276
473.0144503
494.279115
520.9089368
553.6141141
589.7990498
625.4165486
661.3729576
710.5379618
767.2299255
834.201985
890.9278048
969.8630012
1065.397727
1190.158166
1350.701702
1587.462416
1842.036416
1946.926265
1063.618792
44.00963651
-281.5469174
68.34759486
-2375.043371
)


100
(
-4359.137307
-2924.920969
-2269.910071
-1793.394489
-1487.924182
-1249.915651
-1074.690046
-930.7199351
-828.5222375
-737.4326301
-671.8819277
-614.6632374
-562.5756656
-524.0817344
-491.273726
-458.8425041
-432.5091157
-413.7776638
-394.2609209
-376.2704449
-362.6262118
-352.9278895
-341.7675136
-329.3182991
-319.5468224
-312.2865803
-306.6938699
-299.3905163
-291.7396116
-285.6148996
-277.9633572
-273.593254
-269.5138131
-266.6724851
-263.9467626
-262.3170748
-259.7380213
-257.620431
-254.5173647
-251.7009614
-249.1195446
-246.3594636
-242.8122611
-237.6336903
-231.1383639
-224.682599
-217.4578632
-209.7125435
-202.7172397
-196.0632447
-188.1123985
-177.3323868
-161.1308787
-140.5566385
-117.9081291
-92.85909573
-66.65511173
-32.28467884
10.55956671
49.07897983
83.40296251
118.6423224
158.3999018
202.2784455
244.3847279
280.4938059
309.9200444
339.4326146
375.5414523
402.3091762
420.3154502
440.8445484
464.7035229
488.5557638
513.6342377
540.9283706
570.0292728
598.7965175
630.1018027
668.0408637
709.584435
753.0207339
801.7569363
859.2131248
934.9613734
1004.688384
1092.175996
1177.729302
1293.816622
1433.816319
1605.937171
1830.71631
2140.597266
2456.038861
2438.60981
1102.372516
-130.6309639
-270.1540717
102.3739624
-3492.616828
)


100
(
-4391.571345
-2931.2918
-2260.002338
-1804.826504
-1492.775951
-1251.996768
-1083.946029
-940.4839197
-835.9515313
-749.3562872
-675.9452374
-624.2636273
-574.1696009
-530.3579847
-498.0267709
-469.0408371
-439.9394664
-416.486534
-399.4486064
-382.4788847
-365.6617172
-354.0296296
-345.1153171
-336.353399
-325.7816648
-316.4459336
-310.2176024
-304.835362
-299.3356072
-292.6396519
-285.9415555
-279.5240653
-275.5502053
-271.8167018
-268.6523944
-264.7309767
-260.5122437
-255.5272453
-250.924744
-246.0454495
-240.4034199
-235.2472916
-230.2176106
-223.8494083
-217.0692775
-209.0537258
-200.0488997
-188.8353664
-174.2498561
-157.7584533
-140.6436073
-119.7107476
-95.39432748
-64.02788783
-20.35514618
21.43212662
59.7750611
97.86251305
140.0639581
188.6159541
238.4889932
279.3150456
315.4339814
346.6733592
379.5113297
416.2754696
443.4301042
461.189106
477.9356106
498.8814897
522.3112422
549.2318564
580.1220201
611.5087148
642.960327
674.1514449
714.1736785
759.7069971
804.2504741
851.121871
907.3906349
975.8095675
1047.376873
1124.990204
1209.971139
1316.51571
1439.564198
1555.87481
1725.574061
1925.036951
2162.932169
2461.384584
2853.417221
3269.976984
2916.865649
1010.686882
-167.1699713
-105.5812468
104.1687782
-4924.877845
)


100
(
-4370.229581
-2940.362556
-2272.904339
-1819.552452
-1494.735761
-1267.598331
-1091.357993
-958.1357954
-844.0769889
-763.7157486
-690.3981293
-630.5537215
-587.3086149
-543.5428649
-505.5010556
-477.3701601
-451.490853
-425.1032158
-404.1093725
-388.5275353
-373.9229338
-358.8852291
-348.1744165
-340.0290726
-333.1959788
-324.0230979
-314.9516761
-308.6779105
-302.9211929
-297.8718688
-291.9528901
-285.0672386
-278.5611555
-273.8807199
-268.5852737
-264.2758527
-257.9614446
-250.1186076
-242.8117057
-235.1754171
-228.1505488
-220.8482441
-213.140129
-205.4180657
-194.6959058
-182.3015375
-169.165936
-153.1687666
-132.2740994
-105.2839516
-68.53232456
-29.75396868
8.435976266
46.59153541
90.90664752
144.0369787
203.8937829
249.5777666
293.2112132
334.4844909
371.3562384
410.1794477
448.1815727
477.1762432
497.3684889
517.2309699
541.5843805
565.5941495
588.9712197
615.1590796
647.1681414
682.7100105
720.2227604
756.4661705
793.9791446
839.4967421
900.6098828
968.1131454
1030.067767
1088.731301
1167.615336
1256.745361
1348.210864
1457.736555
1586.432078
1721.185579
1851.585523
2029.347678
2274.837872
2525.770808
2841.687217
3251.582433
3759.382931
4234.505085
3365.432597
1108.519684
-137.6210097
33.00380686
157.3384872
-8329.459661
)


100
(
-4309.217559
-2956.037231
-2290.346592
-1828.894452
-1504.964656
-1284.938769
-1104.276263
-975.815692
-864.1156828
-775.5275061
-708.1394115
-645.6922828
-597.1273856
-558.6769687
-519.6047209
-485.7938575
-460.7647696
-437.8978294
-414.0090072
-395.1572176
-380.7712696
-368.3384924
-354.7534396
-344.1549926
-336.6179242
-329.8072346
-322.2255594
-313.6675956
-305.9678699
-299.9725757
-293.6494372
-288.3839386
-280.8834821
-272.9168566
-265.8994601
-258.6065142
-251.6185469
-243.3901812
-233.6429449
-224.1411476
-214.4474203
-203.5554462
-193.0254287
-181.0916433
-166.9642284
-148.5619182
-123.1343863
-92.51968903
-59.68370382
-20.39950837
22.47664016
75.87045043
137.589293
187.7320565
233.8948389
284.2094514
335.4583661
385.0571046
430.7705231
465.5500765
495.0503849
519.5596179
545.2806704
576.1828534
603.0408652
623.1402235
647.7308513
677.3292555
713.5976027
751.6784671
790.8957342
835.7484946
884.2953971
936.639264
993.0140738
1059.169656
1132.621402
1211.483552
1288.251161
1376.853271
1489.682152
1614.090929
1733.058524
1874.025105
2028.273113
2196.637759
2387.310823
2625.854472
2900.586394
3228.802217
3636.373335
4102.54033
4789.82069
5266.196994
3879.951957
1363.791641
15.41959125
213.1956867
274.6620012
-9747.785177
)


100
(
-4327.155169
-2967.136005
-2300.149936
-1832.977141
-1525.556069
-1298.872872
-1126.899934
-989.1472651
-886.5224179
-793.9019736
-724.0215358
-665.276756
-611.8631971
-570.5638919
-536.1570932
-500.9135212
-470.5879354
-448.0052761
-427.9630438
-406.5248905
-389.1342338
-375.6379782
-364.7843657
-352.1379516
-340.9337076
-333.2804828
-325.6612975
-319.1322015
-310.8496603
-302.1745592
-294.2895677
-286.1064206
-278.7141261
-270.8050155
-261.6570975
-252.0176889
-243.6771837
-233.7442521
-224.2803759
-212.9444448
-200.7568888
-186.8312059
-168.7404769
-147.816083
-124.7401543
-96.17641689
-60.66808377
-16.90520283
43.61092907
98.40518222
152.0386467
206.840809
266.5681163
326.9519459
383.3858842
428.1959425
467.4577931
503.3114365
535.0132853
567.3368959
599.1192467
623.1601385
645.0361624
670.2197481
700.1517979
735.7154994
775.1327676
818.3356005
864.4198384
913.524337
964.696617
1015.430161
1076.459511
1149.234607
1225.541948
1308.153251
1404.398183
1506.317833
1615.458957
1739.827082
1875.132833
2020.478416
2185.078417
2373.298755
2569.046937
2777.452424
3031.82635
3329.075263
3688.562891
4081.211847
4582.125192
5122.093623
5922.365804
6439.802072
4596.761293
1731.594261
269.1245064
493.990182
425.7494792
-14946.028
)


100
(
-4381.467495
-2971.347039
-2302.416071
-1846.846481
-1545.111605
-1312.201433
-1149.273454
-1010.009563
-906.1311415
-817.8779196
-740.8458137
-683.9925915
-631.8015733
-585.135586
-549.3699664
-518.6993453
-486.9937143
-459.7128584
-438.9598143
-421.4151533
-401.9639009
-385.1955959
-372.3561947
-360.9771451
-349.6476688
-338.1917859
-328.9078569
-321.0755719
-313.012763
-305.3699651
-295.5592305
-284.5253058
-274.756373
-264.7451676
-256.7077015
-247.0651959
-236.9239725
-226.9562538
-213.9412243
-198.408678
-182.6740339
-163.2770388
-138.9193419
-107.4266839
-62.94604638
-14.02671471
36.96502471
94.00161019
157.1908184
228.9427207
302.6715335
357.9480941
410.1907382
459.868198
503.7730812
541.4565596
578.2092164
610.2730368
637.2957073
663.2889289
690.5230304
724.5866214
756.9553246
786.0339984
823.1456336
869.6407847
922.2544338
977.6717702
1034.317479
1093.9546
1157.595029
1233.564417
1321.400425
1411.728488
1508.334829
1611.162087
1726.001262
1852.604674
1991.150077
2158.458434
2341.703114
2525.711661
2726.970497
2936.66707
3173.72824
3478.027058
3825.653791
4190.133917
4638.632939
5113.140436
5746.274518
6628.279777
7330.129075
7751.768237
5062.133846
2184.286537
521.6359422
862.7142274
586.6357146
-22765.80631
)


100
(
-4359.347228
-2965.627075
-2303.352434
-1864.357711
-1559.104208
-1336.021786
-1167.035555
-1035.441095
-923.3115987
-840.867712
-765.1385465
-699.69899
-651.9528426
-605.5044857
-564.2364369
-532.8388235
-505.900434
-477.459883
-452.6161646
-433.169328
-417.2818773
-399.4156136
-382.4600861
-369.6377575
-357.1150897
-346.6459192
-335.1118303
-323.9529218
-314.6545468
-304.665826
-296.5389225
-285.6790235
-273.6243584
-262.0436715
-251.7481509
-241.2204654
-231.751909
-219.3357703
-204.5040729
-184.3810054
-155.3168767
-122.4846957
-86.64510902
-41.02007817
12.83138137
83.56971865
168.6025648
236.8726934
301.9284026
369.0384813
432.3970006
489.0344537
538.5270516
578.0948312
612.3571813
642.8217712
673.7264984
707.4462232
742.955667
771.2084045
800.8061788
836.52309
876.8007672
924.9049049
979.4388404
1038.675521
1100.958176
1168.495875
1238.008166
1309.773304
1394.793489
1494.267686
1598.396415
1709.36714
1829.536279
1971.283511
2125.825607
2283.726781
2453.552023
2655.669353
2873.934141
3111.819691
3360.280868
3616.184583
3929.580878
4325.53772
4738.655798
5195.325696
5731.566854
6344.494181
7119.138095
8041.681469
8964.650722
9152.897596
6029.976392
2540.681542
871.3082549
1310.507598
903.1443214
-30401.85361
)


100
(
-4283.11274
-2968.771832
-2315.168579
-1877.219999
-1568.711451
-1358.913116
-1184.973067
-1058.823942
-948.6649236
-858.8010595
-789.7859066
-723.9359816
-668.2055938
-626.6246128
-585.4222656
-548.8087688
-520.8368814
-497.3169235
-472.0429263
-448.1135954
-429.0776103
-413.5388377
-397.4513366
-380.9013957
-366.8055518
-354.0979316
-342.0890931
-330.8677522
-318.7520604
-306.6311155
-296.1236624
-285.7115537
-276.2429266
-264.2710242
-251.4428876
-239.5840776
-223.8589634
-207.2386027
-186.9581705
-160.0545784
-121.5853502
-71.44192459
-1.325334888
62.00798447
131.1282948
203.7350162
288.6028545
372.7189979
448.5269691
504.0343699
554.3411306
597.6743491
634.3148179
670.9576116
710.2418327
746.2733028
777.7560097
809.5315079
846.3994593
888.9680796
932.6721342
977.0503479
1030.914806
1092.705055
1162.080871
1233.595846
1308.397332
1386.027619
1471.946602
1574.30319
1688.506835
1806.815202
1933.629269
2068.380548
2220.131931
2396.29425
2579.99037
2773.391413
3004.490035
3256.159575
3516.173942
3794.387815
4080.566498
4430.51723
4851.584058
5303.028118
5798.252471
6391.118105
7067.359129
7766.242978
8677.455176
9680.135939
10675.16057
10653.38936
6397.188698
3090.677783
1374.305953
1827.818987
1189.594933
-43346.97207
)


100
(
-4200.972581
-2966.79777
-2322.604021
-1883.580196
-1588.143173
-1376.983665
-1210.188388
-1076.476055
-974.1292859
-882.2590787
-810.0430279
-749.8243367
-692.1012414
-644.3669956
-607.8021499
-571.2231015
-538.6023543
-512.9236512
-491.9397387
-467.7648077
-445.2449245
-427.4656936
-410.6257165
-395.7754777
-379.9934218
-364.4260386
-350.8746968
-337.2658822
-326.3915742
-313.5944873
-300.1987395
-289.9641882
-278.9924724
-268.136681
-255.3421266
-239.1175945
-218.3623424
-191.1987914
-154.7718928
-112.7577591
-60.49816138
4.910952925
83.55888926
182.2378804
274.6560858
349.2571079
420.568104
490.4839806
552.9156178
606.5345411
654.4586382
692.8655145
726.5541303
759.5538465
797.4462952
843.1470347
889.0346808
928.8979882
970.743341
1018.878186
1072.832661
1136.215899
1205.370606
1282.154362
1365.202776
1454.217342
1545.174769
1643.295527
1757.287244
1885.622006
2019.071117
2161.648752
2313.922432
2486.103384
2684.904673
2895.943511
3114.475324
3358.511048
3636.691724
3919.979624
4227.411337
4565.117364
4935.413185
5388.683017
5896.731595
6456.154857
7085.698639
7762.070286
8543.493885
9352.233478
10443.75843
11514.54462
12571.94412
11706.51553
7075.131363
3701.603286
2022.208294
2434.917266
1665.646778
-61487.02204
)


100
(
-4222.754055
-2961.095408
-2322.663039
-1888.648562
-1605.849936
-1388.352595
-1233.259438
-1099.112067
-995.6622314
-908.5385027
-831.1278488
-771.6432136
-718.8079467
-668.0746077
-626.6242951
-594.8276352
-562.1718138
-532.4869628
-507.8310289
-487.9018172
-467.2100884
-445.2103686
-426.493155
-409.3733141
-394.2581915
-379.084836
-363.6373172
-348.526117
-335.0015706
-322.8239759
-311.965102
-299.3078489
-287.1005441
-273.9279473
-255.6735305
-235.2692904
-206.8202818
-168.4677988
-117.0788148
-47.80939126
32.59520557
113.0873091
202.30639
295.1252834
391.5944587
477.4096175
542.2524401
595.7103612
644.1637087
687.9979413
730.12212
774.1981958
818.9863313
856.9157022
896.0570596
939.2094235
991.228844
1049.498277
1107.657251
1167.631101
1236.484112
1313.382679
1398.505247
1488.543348
1584.53326
1684.511305
1796.440589
1926.65148
2072.083813
2227.274864
2390.569685
2563.622187
2751.310867
2966.837605
3194.097445
3437.627521
3709.550531
4026.06026
4348.456014
4661.531386
5012.042892
5408.462122
5895.100382
6453.110668
7034.744453
7700.471584
8430.05457
9227.431071
10069.21941
11055.31188
12193.0784
13336.465
14354.90465
13038.99258
7525.63536
4426.40824
2771.846384
3148.109441
2047.789356
-89362.84442
)


100
(
-4223.145022
-2946.852612
-2316.126674
-1899.983203
-1617.671124
-1408.261699
-1250.776482
-1124.024414
-1014.863015
-932.5759333
-857.4586721
-791.2008806
-741.6384909
-695.3947371
-650.924763
-614.4224783
-586.5562573
-557.5531375
-529.8593712
-507.0884779
-485.9873347
-466.4176528
-445.9968818
-426.8439882
-409.4725489
-393.302329
-379.8419051
-364.9313331
-349.3946124
-337.6132826
-324.8553381
-314.1844693
-299.8692385
-282.1198016
-258.5595729
-223.3624331
-179.6300042
-127.4949636
-59.2715117
22.23584796
122.4161382
238.7194318
331.8317299
415.6705362
495.7275939
565.6802418
624.3635492
676.1436774
724.0990221
764.9941353
807.2422598
851.3913731
898.5437034
952.1760226
1001.571714
1049.641185
1104.942917
1169.206931
1241.119826
1320.543607
1405.673159
1499.60539
1600.748838
1708.646404
1820.416023
1941.755269
2082.125198
2236.615837
2402.860209
2581.839909
2774.604291
2979.86194
3218.551221
3477.613578
3746.702566
4045.530361
4373.392879
4721.493751
5068.497529
5453.859296
5874.153003
6376.029899
6965.870977
7600.726575
8289.243719
9072.025314
9855.300293
10733.87316
11666.0299
12733.28717
13956.74874
15211.93722
16042.68572
13626.37382
8317.064961
5226.872642
3520.073917
4025.387111
2854.695118
-114805.1732
)


100
(
-4134.893848
-2932.421021
-2317.560955
-1907.731686
-1623.320827
-1426.257024
-1264.71345
-1144.719167
-1039.498706
-950.2191296
-882.1461757
-817.4831111
-760.7656877
-718.9231772
-678.7924882
-639.6855039
-607.0560383
-581.314582
-555.4909678
-529.6697967
-506.8806491
-485.5431923
-467.4968141
-448.1145233
-429.3089017
-412.0315706
-396.0077373
-383.582858
-371.1122513
-357.4580948
-344.8555093
-330.303542
-311.4834598
-290.2875516
-257.4262047
-212.2244021
-149.8774835
-61.60436543
23.8717024
118.6699182
219.9379195
328.0302481
430.1835653
517.9536293
582.9988251
639.4406977
690.2571538
736.5304839
782.3182119
833.0278241
885.4765699
932.6214797
983.6257787
1037.511802
1098.243788
1164.955186
1230.006932
1303.232415
1385.672381
1478.59031
1579.018596
1686.68176
1802.147791
1924.776339
2058.816019
2212.5754
2381.864354
2562.392241
2753.40156
2962.742989
3185.24965
3433.272315
3696.930998
3982.240301
4309.390088
4666.602692
5053.402204
5437.150478
5829.697999
6267.333967
6782.605924
7407.38278
8077.495837
8773.086974
9559.347003
10387.27195
11278.45321
12205.65337
13223.92643
14354.34449
15603.10636
16759.50818
17520.03883
14697.38621
9081.985669
6012.658165
4332.716224
4942.887522
3396.032257
-167320.3259
)


100
(
-4049.209028
-2917.32408
-2316.656777
-1909.748639
-1634.401126
-1438.887508