/*--------------------------------*- C++ -*----------------------------------*\
| =========                 |                                                 |
| \\      /  F ield         | OpenFOAM: The Open Source CFD Toolbox           |
|  \\    /   O peration     | Version:  2.3.1                                 |
|   \\  /    A nd           | Web:      www.OpenFOAM.org                      |
|    \\/     M anipulation  |                                                 |
\*---------------------------------------------------------------------------*/
FoamFile
{
    version     2.0;
    format      ascii;
    class       dictionary;
    location    "constant";
    object      la_r1;
}
// * * * * * * * * * * * * * * * * * * * * * * * * * * * * * * * * * * * * * //

la_r1_table
100
(

100
(
1081902562
-586587844.3
-140369108.1
-197537675
-115335844.4
-171626966.7
-95926275.81
-143719558.4
-89307142.28
-127600340.1
-111986495.4
-99309089.4
-98780826.69
-75943266.31
-68636584.98
-73519779.8
-64252915.81
-43743798.07
-51804461.93
-54846469.46
-40460161.16
-34204542.26
-38751339.63
-47921904.73
-29655883.06
-24051056.55
-22115584.19
-21964477.62
-13066401.92
-15239108.4
-26830022.5
-30544176.94
-16332637.73
-10126878.4
-6438409.397
-4157692.025
-4071735.916
-4888748.59
-7354735.455
-9781828.645
-7920680.587
-4097180.151
-6286342.735
-11244260.29
-9354409.089
-3820733.989
-1928364.993
215169.3326
-276691.7189
-846328.9159
-1404207.916
-3213911.331
-3153580.38
-1625011.661
-2290118.197
-4289614.555
-3601392.806
-1571273.21
-467721.5328
47752.50639
674887.8487
993670.1352
366624.8153
359185.4942
959248.3352
884574.1241
370927.1857
584627.601
846418.4226
621146.1155
464326.2615
687629.6952
661826.8467
487493.2616
746401.2378
788224.0465
569263.3873
704533.2205
706359.8784
576713.9155
645466.5383
590538.7571
571438.5377
585921.2734
473131.1071
461668.7451
410792.2965
323236.1569
278187.0698
198626.8745
130761.3364
53809.92562
-27283.27769
-98747.64709
-161251.2498
-193987.3002
-191870.171
-100316.1553
-1042.133247
-3.315900652e-06
)


100
(
1313357529
-811903791.9
-323896633.6
-259679386.3
-200696465.3
-177273439.6
-141126779.9
-126332901.2
-100584016.2
-93803386.28
-78201380.4
-70429981.34
-63370098.92
-48944194.46
-46832566.8
-44869255.14
-28421687.96
-32171888.36
-29595621.17
-20618095.46
-18916966.85
-20559312.04
-16207498.41
-10894917.23
-12714013.52
-14303976.47
-9543629.09
-4395321.284
-7490224.052
-8772650.806
-4481855.182
-2173141.202
-4172197.523
-6349468.092
-3921107.66
-1795858.46
-1673032.593
-3240688.828
-2051788.368
-324854.9891
-95950.00038
-1115679.153
-1251760.539
133363.5653
594768.8606
-374099.9872
-1252694.703
-546195.361
-564162.0435
-266852.5048
-37564.55728
335888.878
656966.9954
602331.4043
590072.0511
663432.4433
979791.5265
854205.4698
982585.3407
1482623.568
1358697.448
264474.1411
778903.6912
1834580.218
1002951.94
61809.42394
854574.0593
847313.4279
-28188.68357
78533.67896
317433.235
-320898.9793
-469398.0493
-505400.1746
-1607648.565
-770349.2626
-991915.8327
-2835054.145
-1010353.124
-1969555.355
-3264347.156
-1878159.118
-5630376.935
-3186822.184
-3527666.866
-8112823.615
-5092244.514
-10318429.62
-11265586.76
-12877079.67
-20046399.88
-27004287.47
-35295742.39
-44070354.14
-54579905.94
-61537468.9
-43657683.08
-8620450.558
-435994.7927
423906.0373
)


100
(
1697645415
-772183464.8
-269810311
-249623649.8
-172094704.5
-119213374.1
-117252218.3
-68680391.57
-70694014.38
-55698306.71
-47040018.84
-42485579.02
-28011057.98
-24291623.78
-22281754.37
-18914559.73
-14817854.88
-10736709.51
-11377155.03
-9324167.934
-6731162.721
-4251770.133
-6924877.08
-4294888.621
-2424571.687
-1269985.308
-4424846.227
-2358049.478
-1659111.679
547977.2373
-2203122.281
-533689.1239
972971.8287
1845021.697
-565799.7983
-1276699.227
-759355.072
118420.3456
655831.5383
-6733.713452
929847.9908
1686824.404
2245944.334
1655967.838
1303468.77
2376316.874
2356269.223
2074911.745
1240947.134
1392265.933
1013368.822
1514003.318
2107418.468
2946220.948
2734596.551
2098400.506
1815745.551
2059805.26
1792787.56
1139525.596
1001856.426
352286.214
-871310.2459
-291782.2375
311231.8805
-1130552.346
-2501411.635
-1301736.579
-1196272.976
-3049849.844
-3383901.101
-2914937.011
-3319133.333
-5654205.456
-8912693.034
-13101384.73
-12006755.95
-8044689.97
-12558288.16
-16168220.7
-17446014.43
-23059388.61
-31035277.07
-34648461.75
-36003814.46
-47181168.03
-56698065.44
-66068805.64
-82829183.98
-98626978.89
-114962909.2
-136693738.2
-157644419.2
-180640481.4
-201877936.7
-185702276.3
-73874756.34
-14669511.43
-5618567.351
-861899.5063
)


100
(
1944800077
-749539412.2
-286315128.3
-234579239.3
-129079344.4
-105246769.7
-67037971.58
-59079265.99
-37855681.54
-44845273.71
-19452766.4
-19173333.81
-16209722.93
-9534983.518
-8380988.583
-8006915.631
-5068385.366
-3764402.633
-1747599.818
-1814396.692
-2428442.054
-426500.9535
1494319.798
-251085.5684
163827.32
1681655.894
3418978.132
1289306.241
569041.5906
1137199.636
2868963.399
2494816.106
1256388.17
3939541.554
4243553.865
4276496.248
1985890.359
2186734.088
1544599.066
2557193.355
3954164.043
4735900.715
6492835.189
6094409.264
6349440.63
5362252.335
5683223.345
4797786.187
4211856.64
3352738.996
3351645.191
3240969.249
2512335.25
2733333.377
3453251.308
2292516.456
-916548.8553
-1945283.094
-460100.0461
-1762157.19
-4795318.835
-5087883.802
-4875013.684
-6773425.15
-6534634.16
-5119357.99
-5681395.545
-8083281.792
-10141952.24
-10429189.58
-10977030.82
-13878492.72
-18263201.42
-21715561.94
-22500237.05
-25066998.77
-31872305.53
-38389501.45
-43296361.26
-48802333.99
-57608738.45
-72648963.91
-78403784.95
-87662847.3
-111098758.9
-128072011.3
-144979109.5
-162151190.8
-184754333.6
-213476868.8
-246576577.2
-270852767.9
-308133729.7
-352615576.5
-352674310.7
-310777982.1
-98749693.56
-40737433.99
-24906005.41
-10269811.7
)


100
(
1835653922
-738461132
-300747199.4
-187840645.5
-114952203.7
-91557245.15
-38311072.17
-46564526.79
-17686620.36
-22179141.9
-15672408.33
-7045766.057
-8541904.998
-2940524.167
-1834661.973
-1520045.77
-480780.4382
123766.2338
961179.2558
1668311.495
2665943.753
771547.6436
2496872.099
4018033.138
4117631.655
2837635.338
5302472.892
6542097.627
6538102.874
4148368.567
5189556.143
4679530.8
7575026.206
6751945.027
8462198.507
8220735.547
9215830.347
6208312.444
5738392.968
5816189.835
6584608.896
8934628.179
10965467.58
10410586.53
7651075.662
5176924.09
4672351.739
4574864.661
3162664.902
-147719.909
-624275.9415
320830.4129
-724158.9574
-3793542.226
-4005480.646
-2965454.949
-6225701.054
-10753630.97
-11044968.75
-9473030.906
-10863886.39
-13651797.38
-14170205.17
-12271429.19
-12177297.8
-15224527.55
-20270420.24
-20291949.84
-17886050.79
-22663633.16
-31963477.95
-37485198.05
-33894940.67
-30517630.24
-42792800.08
-59692680.46
-66441704.66
-68657463.33
-82703770.51
-106457924.4
-118160650.6
-119616574.7
-138356502.9
-171551291.4
-198106737.9
-233125484.7
-274850609
-287215969.2
-298106088
-351765053.5
-443659895.7
-467930428.6
-511184658.9
-574821859.8
-570157714.4
-378808397.7
-82449510.37
-78438531.65
-56696046.04
-30264077.55
)


100
(
1859540829
-682387050.2
-264272849.8
-169476889.1
-117000144.7
-60576406.25
-35882145.47
-21110496.13
-20391459.88
-6733848.368
-11566290.13
-1215899.67
-1225501.337
-1604590.962
2232768.186
1877440.548
2008284.921
3100406.087
2583953.148
3448297.857
3606026.059
5055923.468
3042848.882
5100537.134
6092159.404
9094727.179
9458964.261
10306081.36
10497598.68
11890736.3
10132743.77
9862011.348
9567394.956
13121353.12
14235938.65
13813310.13
10946632.34
9772644.758
7606983.478
5242294.802
6191619.614
6606759.005
7690760.222
8520830.604
5851674.802
-218641.5962
-3863285.379
-3749842.011
-2315935.088
-5491745.397
-10342214.94
-10315422.24
-8624280.566
-10673963.6
-14094393.42
-14414500.5
-13402784.64
-12495588
-12287163.94
-14572052.1
-16867068.7
-15821004.26
-15972249.6
-22128568.57
-29986534.68
-32059627.45
-30271393.25
-34535111.1
-43884612.67
-50505780.62
-50415514.64
-49002918.91
-57177894.39
-80121397.92
-87901829.66
-86751065.63
-110432119.6
-137510653.3
-144930094.3
-139472788.5
-162679494.9
-231545468
-275511221.5
-297599031.4
-346052777.6
-404310773.4
-454240141.7
-449818337.8
-498374519.7
-656038984
-703400125.7
-739492308.5
-840379986.8
-864486478.2
-784291012
-291192385.8
-31649375.16
-113038650.3
-97075740.23
-58573508.95
)


100
(
1949227970
-625174200.2
-238118913
-161525964.4
-111948022.1
-42835670.79
-36357445.82
-5431197.871
-11691754.58
-2334216.144
-1562344.504
-3417458.417
3859643.086
2302814.361
2514920.699
4070611.506
3683403.78
3584951.689
5046443.634
3546823.517
4573392.774
4618937.371
6858876.611
5489687.082
8065868.992
11249546.35
14500614.52
16643711.97
16694276.3
16068538.61
14760443.82
14401176.39
11099250.4
12295563.55
13579863.32
14774107.26
10503686.66
7508700.149
3003453.759
1362821.198
-575.0050044
1621444.28
-287503.9616
-219248.7488
-1869901.875
-5898045.233
-13597846.48
-17216883.48
-14749463.24
-13593455.95
-15939291.05
-18646140.34
-15933280.12
-11823446.76
-9604749.554
-10583237.77
-14596186.44
-16865450.25
-14954966.57
-14336975.1
-20536299.22
-30879393.54
-38676020.01
-37774684.64
-37244354.32
-44559544.63
-50650653.12
-58348424.65
-61119236.02
-60813688.51
-76325198.96
-107929363.6
-126568707.8
-131035100.6
-152619561.7
-171612410.8
-174494776.6
-177305889.8
-213245160.6
-319944023.2
-377157244.2
-384158154.9
-408432716.2
-474510135.6
-560758733.8
-627792741.6
-653639092.2
-646535624
-714061617.3
-865495508.3
-909697618.6
-908087120.9
-925825816.3
-892022708.6
-734573240.5
-51700181.89
-9360372.425
-146395490.1
-136497190.2
-104118196.1
)


100
(
1914831836
-559364254.3
-217572621.6
-155917174.1
-85811752.08
-45614352.72
-20663203.22
-8712985.777
-971319.0475
-5438816.637
6022662.665
2229614.911
1734155.298
5870721.493
4116876.933
4432822.688
4043270.287
5258747.437
5470485.087
5728238.56
4216392.761
5737528.581
6093064.329
9044234.904
8334405.107
9513787.92
15795165.22
19125959.54
20858175.63
16854549.55
15438511.85
11906942.23
9554306.431
6588710.873
8019410.05
8761135.462
6670903.128
1701883.233
-3741648.884
-7879476.048
-10061232.02
-9012188.95
-8655462.46
-11488412.59
-13990756.84
-14645132.85
-17782191.71
-21516467.74
-20930383.59
-14741622.66
-9652028.878
-6238161.896
-7471866.801
-13387050.89
-18609563.8
-18220997.98
-17406071.66
-23939826.17
-35140924.12
-42026375.94
-39523749.07
-37967387.25
-43919204.58
-46836649.55
-53351144.06
-65082307.34
-67832572.36
-73838851.95
-109292510.3
-154552848
-169041674
-179466924.8
-197749629.8
-209238158.1
-239447317.7
-253658505.2
-311885501.7
-428496983.7
-479547259.7
-468246459.6
-470077084.5
-515761597.8
-576047732.9
-623682300.6
-671150386.9
-692536647.2
-717106952.1
-762000222.2
-844405701.8
-920222385
-930421332.9
-958448574.4
-983800032.5
-932370814.9
-657189584.1
105492338.9
-47450681.9
-188160222.8
-172673200.5
-154628500.2
)


100
(
1571163954
-529611927.7
-210839363.2
-136274910.8
-73136556.06
-46972648.21
-8929105.593
-10647887.29
7045447.162
3196689.632
2345358.347
7961413.716
4788726.596
4696650.679
6264505.11
4550824.895
6040582.492
7242459.417
5399499.901
4284321.671
6572401.154
5340067.837
6254182.662
6748717.001
7787769.616
8410149.567
8152567.369
16014527.19
19862696.97
18393095.23
11772804.13
6000015.251
3894254.026
-834603.628
-634787.4249
-2324185.833
-2418834.391
-7307375.962
-11462747.61
-18057212.1
-23049383.7
-21972537.36
-18295539.57
-16582517.47
-18597757.64
-16420838.05
-13096222.56
-9981063.201
-7855978.366
-10056802.38
-13461763.52
-15150080.78
-13712025.22
-14780296.52
-24069392.73
-38322532.42
-47087238.96
-47986025.31
-48093570.24
-53408272.46
-56769363.15
-62245233.9
-68653104.39
-67005666.86
-75155597.35
-115961806.8
-171422071.2
-201730126.3
-208915481.5
-225812342.7
-234564270.1
-264701962.5
-297525640.3
-303343853.6
-398303519.8
-515893063.9
-531850321.9
-500010751.7
-497023455.5
-527474505.3
-575601334.7
-621492614.2
-665894872.2
-703905060.8
-737333476.9
-805282464.6
-886108541.3
-986974897.4
-1078408795
-1130652807
-1184347152
-1254058603
-1275150080
-1112344666
-636231464.4
230157674.8
-114312871.7
-254795823.3
-224933935
-256781011.3
)


100
(
1085246668
-506808081.3
-187878473
-115002622.2
-73593975.99
-33379466.02
-9570091.534
-131627.2809
1313624.482
8432452.029
5252976.305
7384404.809
6947853.793
5903622.336
5462641.149
5884840.835
6313582.079
6495139.212
4114507.685
4714156.102
3921483.183
5949736.613
4993893.196
3201698.344
5251111.691
4075865.362
5958624.391
5873618.058
13355393.95
16804173.91
11248925.18
3171373.347
-6171901.965
-10898265.34
-13848011.77
-13418722.21
-14938477.29
-19249484.65
-20788856.56
-24014779.81
-26878345.11
-27657709.71
-19983247.27
-13958600.24
-7402045.744
-7080314.459
-10709013.7
-13460789.58
-14072585.18
-13509768.35
-16809810.26
-29145296.14
-41172445.27
-46161952.54
-46371884.01
-50207561.32
-58587406.15
-66155359.78
-73868961.32
-83915826.9
-86513642.83
-95749303.13
-136316925.1
-190601156
-216797913.2
-222422739.7
-251996120.5
-278717025.9
-283519016.8
-299939251.8
-298846269.5
-335318921.7
-443261613.4
-521550435.6
-524872842.8
-516054258.3
-535448323.8
-574951408.6
-626262705.8
-680319408.3
-742343134.7
-800624459.5
-852515101.9
-927404698.4
-1010007956
-1104036215
-1218140525
-1315492972
-1395172476
-1492955180
-1580903090
-1659288972
-1597954818
-1323368612
-610599196.8
331007165.5
-223165966.5
-343202312.4
-314691567.3
-437257102.6
)


100
(
1034424323
-466159557
-161928539.7
-102165664.4
-70146017.73
-20034906.23
-13223833.4
7841579.909
3108880.916
9322816.686
8866920.877
5702485.681
8903479.309
6501075.081
5605483.232
5310698.724
5935068.208
4777152.26
5468335.2
3227907.12
2602676.972
2153850.578
2130205.557
3290788.28
453046.3707
1996415.488
166997.737
1759627.513
2560784.446
8044962.149
13903893.74
2456351.769
-12702678.56
-21565815.06
-27683167.71
-25698118.17
-24610233.33
-25454102.57
-25299937.9
-21370272.24
-18183597.46
-15190357.68
-15298227.29
-13161872.33
-11587699.18
-10691867.58
-11367895.3
-20926066.05
-35479727.18
-43232424.57
-44664677.91
-46367896.28
-55654055.97
-71161137.38
-83121379.22
-88595414.59
-88433084.23
-86244362.72
-103897066.8
-154367214.1
-213357280.5
-239646500.3
-244976667.2
-275824239.3
-310218794.7
-305646797.8
-299913927.2
-292837224.9
-301392302.3
-388904466.5
-472398410.6
-481747293.8
-507553044.2
-559548765.4
-602333637.5
-656610629.7
-718907793.6
-785754569.4
-852713797.6
-914089973.3
-982563963.9
-1074371479
-1179094507
-1277545006
-1384532227
-1470316837
-1579666631
-1707438626
-1813943041
-1933342109
-2042335571
-2105015392
-1924560712
-1637426481
-325651382.2
297469266.9
-378918594.7
-451614369.7
-412527346.9
-531729771.5
)


100
(
1391676745
-427337870.1
-137485023.4
-100381114.1
-54904751.61
-18300495.91
-4170196.817
5358244.858
9001086.719
5521902.378
12146794.52
8759224.99
6026490.177
7737552.962
5864485.432
5944731.705
5431198.311
4061265.505
3013081.778
3101235.583
1314654.032
-1387839.208
-304587.7347
-1941855.7
-41786.44017
-2709989.049
-2475230.645
-2647642.445
-3664181.749
1499926.113
3371376.503
994081.2907
-9976381.786
-28904775.29
-37954373.72
-34172326.93
-28104172.73
-20307933.31
-19323024.41
-16333429.46
-14209811.88
-12580225.16
-10396059.65
-15294618.43
-26616481.49
-34470101.78
-38074846.54
-42099001.98
-50877084.25
-68549046
-85885005.4
-93798191.9
-94001064.38
-90805975.75
-93306955.75
-121893732.8
-173768739
-217369763.8
-225643192.9
-234356545.9
-278627279.9
-322957078.7
-330296169.8
-312047406
-290380538.2
-298088406.4
-371848030.2
-451384730.3
-464058783.5
-493864862.5
-566543071.9
-616161271.8
-667407885.4
-728891050.9
-794341181.5
-861938158.9
-932765260
-1020924114
-1120948884
-1223261330
-1332036388
-1442812316
-1564457142
-1665308838
-1783461475
-1900199227
-2055073439
-2203541713
-2323910384
-2476188837
-2584849031
-2594291905
-2336578634
-1833819894
129315047.1
117165551.8
-558828921.3
-566973596.5
-536264050
-792466182.6
)


100
(
1295188830
-392862504.5
-130866545.6
-90817297.3
-41153559.24
-20943268.9
4412921.789
3280987.899
14435348.8
9701288.91
7873413.232
11010245.91
7355719.948
6105441.245
6754963.506
4795950.575
4429715.674
3681900.217
770277.9904
275328.7425
-1287695.699
-1165471.302
-4782168.51
-4013901.715
-6148051.198
-4536354.741
-5376007.64
-8126516.679
-5948570.927
-8044821.722
-5755264.436
-4654972.917
-14700797.69
-21883995.8
-26879189.25
-32371451.82
-25181274.83
-19794848.1
-14601733.79
-12057110.99
-19192555.14
-25335196.99
-29599806.23
-33259160.1
-38937692.93
-56316971.01
-77826214.16
-91735221.29
-98293682.89
-101035500
-99641574.93
-109649221.2
-137700553.7
-172837616.1
-190428765
-196662659
-225476365.8
-285446417.5
-324910481.4
-324733181.6
-301560674.2
-278791206.3
-291421623
-351627524.7
-424331213.4
-453528970.8
-489876623
-576147496.2
-652002208
-702156592.4
-746251604.9
-787997711.1
-843825111.3
-916082674.5
-1000163192
-1095780648
-1202649434
-1328901596
-1468766718
-1596720920
-1698868560
-1810416433
-1966603527
-2124735095
-2261382805
-2387610214
-2555824454
-2710801974
-2836228300
-2999350527
-3090669194
-3017471226
-2611099823
-1585861955
602089153.1
-166779853.1
-714152011.7
-705710498.2
-672589373.9
-994982747.3
)


100
(
828944789.1
-373940740.4
-119199563.7
-68839046.06
-39348889.64
-13916844.94
6169302.775
10891267.27
10127024.32
13258312.77
9240009.918
8378340.124
7972904.472
6446539.38
4652299.589
4098036.513
2295258.749
1490080.16
1157694.017
-3002413.569
-3197671.77
-5255876.673
-4513521.618
-8380084.937
-8015838.242
-9226186.207
-10300494.75
-8127973.388
-10683133.66
-9700510.888
-8040896.833
-8965140.011
-8401185.526
-12388363.77
-19515193.94
-18276346.45
-22216981.12
-23930676.93
-23226791.11
-25947531.81
-29278676.73
-39853465.07
-59428921.45
-73511936.8
-83809365.26
-93566003.49
-104446051.5
-120891832.8
-137786996
-148844274.1
-155952746.9
-156751631.9
-168870752.7
-218916269.6
-279100569.5
-301574953
-291564260
-283708260.4
-289646808.6
-304055418.3
-334977082.1
-378531797.1
-407261110.5
-451186089.2
-546799074.4
-638058028.4
-693468797.4
-740532740.9
-796954586.4
-863919231.1
-932968061.3
-1002521071
-1082140322
-1181169733
-1295934733
-1416678554
-1517487730
-1626131921
-1782025331
-1940227233
-2085757433
-2266513843
-2451483161
-2564116820
-2696241844
-2908164372
-3094926605
-3206640832
-3335005448
-3464224556
-3551448931
-3219909149
-2675262929
-1137204926
1047390243
-443307924.3
-858889664
-858560749.3
-844541326.2
-1607797542
)


100
(
427275595.3
-357573567
-96136485.73
-57615490.95
-38771153
-3543124.011
2656355.299
16661568.12
11962208.07
13543220.34
10734821.84
7518135.327
8319480.781
5866422.697
3838227.023
2090540.066
349007.3605
-752932.644
-2362057.235
-2338290.726
-7178991.435
-7176911.046
-9556292.228
-8183859.817
-11060884.04
-13830332.74
-11691573.95
-14026441.08
-12203659.37
-10544011.19
-10609083.27
-5289322.193
-7803679.565
-11785888.9
-13454825.93
-19956924.59
-23448416.84
-28708190.44
-42389924.87
-53435365.56
-62250960.39
-74335350.75
-87287550.91
-110391927.3
-135727680.9
-148628416.4
-153473172.7
-154077922.1
-150656196.6
-172194129.4
-214089055.5
-243849206.2
-246255691.7
-246941569.5
-270973339.5
-308679022.9
-328433088.8
-334430467.4
-343486550.8
-356496019
-406102773.5
-501783914.7
-591270956.5
-634319951.1
-686086946.3
-769691699.2
-842931863.7
-909488304.9
-981188967
-1062009728
-1153874779
-1247646984
-1337091363
-1443618487
-1574103923
-1712509053
-1840900788
-1978036578
-2153469447
-2352667817
-2510132477
-2668253902
-2838636535
-3006186321
-3253095549
-3434970029
-3551419167
-3674741954
-3787040834
-3910286486
-3906568765
-3473217705
-2728155031
-666134531.2
1428676527
-662873779.9
-987635947.7
-1011214822
-1019300279
-1683332733
)


100
(
481871684.5
-331252480.4
-81262492.54
-54032387.22
-30010062.43
633810.9184
8150032.642
15887146.35
16739260.1
11103943.19
13342131.54
9936180.313
6714265.442
6218250.882
2804743.224
536320.7478
-774268.3596
-3587780.143
-4354153.539
-6708664.522
-6240066.383
-10980250.3
-11283614
-12507410.28
-13523198.81
-13057886.16
-16233943.15
-13518683.86
-13569462.31
-14718005.04
-10461617.94
-11037588.82
-10235768.7
-10693567.98
-22114576.44
-32482473.09
-40873856.84
-52453643.02
-60783651.05
-80484450.67
-107393754.5
-127267342.7
-142466018.6
-153765822.8
-158126863.2
-169342615.6
-188199432.6
-202010825.1
-207333579.9
-205502328.2
-216686764.1
-262579335.5
-302639993.3
-314019327
-314061622.5
-322702527.3
-344620968.2
-392107192.9
-460495173.9
-515548014.7
-550396000.8
-612996967.7
-720980859.6
-814476525.7
-878521946.1
-938591865.6
-996342758.8
-1066679231
-1153849857
-1250620102
-1358540965
-1475711199
-1607212615
-1751576171
-1908811454
-2061663318
-2186048872
-2325312882
-2509589101
-2722158480
-2916265919
-3078549963
-3283655190
-3495885661
-3729914053
-3876924999
-3994647299
-4136768734
-4249747917
-4324496474
-4316610213
-3867043794
-2744342305
-119619010.8
1825996726
-825568170.5
-1100386414
-1154778054
-1212958471
-2081374815
)


100
(
731830014.3
-306951446
-70402695.89
-49405413.27
-17561253.32
-2302446.391
14924752.02
14473758.71
21055862.16
15015419.87
10997130.7
12682408.61
7990367.67
4682106.597
3005296.428
-546651.1717
-2960733.944
-3402011.738
-7220731.976
-7994068.683
-10997007.19
-9771192.361
-13115192.42
-16984379.3
-14392343.83
-17225768.31
-14685339.59
-14791713
-16604171.81
-13181242.28
-17105714.83
-18893568.49
-19162733.27
-25321616.74
-29723389.17
-45439245.42
-69544965
-88158315
-106428930.2
-125354220.9
-139776803.1
-163424610.9
-184837454.6
-192681384.8
-193451582.3
-186384159.7
-180917987.4
-208416976.4
-249175114.6
-267913021.8
-272224597.5
-281526527.6
-309834283.2
-349764740.9
-385499035
-419708265.3
-449395590
-478783687.3
-552670335.7
-663513441.1
-747894082.7
-796095679.9
-856779621.6
-939818643
-1019915845
-1095642531
-1172785663
-1262068066
-1373187806
-1499566445
-1631126525
-1757002705
-1886695855
-2040898323
-2210755319
-2366770671
-2519904563
-2723055542
-2962069092
-3142952355
-3296390968
-3471683817
-3730205395
-4013172596
-4182602841
-4340136145
-4486221438
-4611044572
-4708449301
-4711646476
-4467231856
-3883788632
-2647991539
841866100.4
1829236515
-953958702.2
-1203134849
-1314737759
-1432032286
-2751836059
)


100
(
583995970.5
-291134749.7
-65482588.76
-37537031.87
-11826505.29
2383289.386
18418080.3
20305721.46
18692298.66
18798731.05
14410473.91
10502750.79
9374151.127
5395585.204
2008413.883
-835456.12
-3630377.395
-6355149.782
-6075428.072
-10112525.6
-11654915.96
-13131008.97
-14592556.06
-14367769.16
-18419674.55
-15487085.63
-15748190.37
-17707489.01
-16152942.49
-19323474.9
-19100525.88
-25564730.46
-37484687.16
-44609183.09
-56184466.26
-73594785.77
-89360428.51
-124144501.8
-159946402.4
-178713744.1
-187186187.5
-188723178.2
-177944257
-186858624.7
-204635540.9
-215005482.5
-217504355.1
-222658140.4
-244016827
-296614932.4
-338971881.4
-360130801.4
-378823746.3
-399035153.7
-436293082.9
-506063094.8
-591752953.6
-643885163.4
-686354206.8
-772525052.2
-889593572.1
-983118158.1
-1050950264
-1123672135
-1191599940
-1267911723
-1363002162
-1473020249
-1598899883
-1737262043
-1889311048
-2049293537
-2214097790
-2394937712
-2577619620
-2733085037
-2888534618
-3104789336
-3344127355
-3539439659
-3756525306
-4004286274
-4233276905
-4449970583
-4643843028
-4847993645
-4976455709
-5053631450
-5083313750
-5046615387
-4635288227
-3716488980
-2309925972
1881252313
1987615746
-1177805676
-1255793626
-1464021347
-1626528394
-2833723853
)


100
(
272699167.9
-278984998
-55253963.63
-27049260.3
-12469007.73
11078707.58
16298613.9
25604555.99
21166202.33
19966614.13
17006481.48
12487448.45
9213938.081
5848933.476
2296226.838
-688734.8706
-4236517.354
-6330298.289
-8432018.122
-9725507.732
-13762483.91
-16101102.44
-14340948.11
-17566621.34
-15183961.33
-16198961.85
-18291400.47
-16314166.22
-22612661.55
-24506402.38
-30258243.27
-40960657.6
-48106410.64
-68936963.45
-93381185.27
-110990802.5
-137042992.1
-161302935
-182685600.8
-206119041.4
-217912100.1
-203178357.2
-186502981.1
-170658791.3
-176100079.2
-217669105.9
-265249471.6
-289449024.6
-308529202.1
-331258007.2
-364736011.8
-410582231.6
-458320599.9
-505023246
-539424106.7
-585866492.1
-688638765.4
-809430077.7
-890588860.7
-948553886.8
-1021920162
-1111883635
-1202706390
-1287653691
-1375595797
-1473610844
-1598819050
-1743147814
-1896432896
-2043633068
-2184189327
-2341895750
-2524706384
-2715811288
-2905648767
-3115328039
-3343229718
-3569463962
-3750734603
-3952769359
-4210178490
-4508857041
-4736919956
-4894957658
-5060411742
-5213736524
-5348613489
-5419133329
-5427093446
-5229478247
-4726386551
-3565170899
-1629180200
2925882171
1667109248
-1429194460
-1239054666
-1589358497
-1829814964
-3192552684
)


100
(
32434764.23
-266399822.8
-43175101.41
-23131546.22
-8363783.555
17316593.34
21154985.86
26711439.01
25494455.95
20828692.93
20459978.15
15413897.48
10376100.28
7769331.769
3402819.198
-631091.1532
-2466712.983
-6097535.05
-10099093.72
-15943700.93
-13306073.79
-11084359.34
-16080216.57
-14268085.88
-15661627.86
-17772037.24
-17218735.33
-20986870.15
-22245419.29
-33131612.03
-47511645.88
-57370146.44
-76522088.29
-96412287.26
-120139558.5
-155571969.7
-185121052.3
-200426710.2
-207881977.6
-201800517.3
-193377673.3
-194422680.8
-198464436
-199409407.6
-208724958.2
-229892619
-279604954.3
-341972232.1
-386579777
-407654260.1
-426952448
-446490413.2
-497320316.1
-592854643.1
-691907913.7
-751297948.5
-809567200.7
-908859935.8
-1023077753
-1115215749
-1194024118
-1280811710
-1371352956
-1462620498
-1561501397
-1680720201
-1824150707
-1986375794
-2151574437
-2323744521
-2499881173
-2686697606
-2883455285
-3086507091
-3282403622
-3486602961
-3733910279
-3943383041
-4146847653
-4463011856
-4755780875
-4951121237
-5145712223
-5316891094
-5463414096
-5558283850
-5657790498
-5667147887
-5614897984
-5247822121
-4558182598
-2969632166
-686964158.2
4587846405
1491519083
-1588557902
-1163827326
-1667406380
-1975733219
-3476857991
)


100
(
157547589.4
-246831226.5
-35094979.74
-21027762.63
1263515.98
15805869.88
26965328.82
27247048.05
30147972.5
25628776.94
20590286.21
19067003.38
13555431.09
8987462.501
5685115.136
1563309.39
-3090903.281
-4539268.192
-10232029.52
-12632511.87
-9541721.394
-12954355.7
-11573354.65
-13469162.55
-14470224.74
-15770916.57
-21865021.33
-23320702.78
-31470432.86
-44765651.27
-56672503.2
-83172803.54
-108868123
-133949315
-163252627.4
-183306520.8
-202329667.6
-216404787.4
-214081950.3
-198364761.5
-180834716.1
-167607147.1
-187817205.3
-233036639.4
-275007946
-305302165.5
-332238362
-364268195.2
-408807126.6
-458906714.3
-506619736.7
-546137593.4
-582451664.6
-651639923.1
-783668230
-910307395.3
-990222757.6
-1056586463
-1135846196
-1225297676
-1316164074
-1407305306
-1509698285
-1623872704
-1757601739
-1914380206
-2090105327
-2268950331
-2425804147
-2579727434
-2762592245
-2972009473
-3165701209
-3391591822
-3655515221
-3905773871
-4127725455
-4319910163
-4524090325
-4848311220
-5171492085
-5335055849
-5476778210
-5590511404
-5667833714
-5776840897
-5829330761
-5802380418
-5610950524
-5063196243
-4070224844
-2192679791
533217961
5922302999
1164202733
-1639344979
-1041544304
-1701211634
-2195017005
-5533093263
)


100
(
219644436.6
-238711724.6
-32791306.54
-16027358.98
5836338.261
18229247.52
31722702.6
32992143.29
30586339.46
30912886.42
25101340.85
19694718.58
16807855.21
11658058.57
7972226.214
4152977.492
64117.83906
-3455243.715
-6036150.661
-6977244.651
-11050903.78
-9560607.401
-11692038.63
-11614656.48
-12523923.91
-16421119.05
-18569628.52
-30883105.05
-44197159.5
-55872770.18
-80239113.39
-102138570.3
-133978823.7
-171781509.2
-197124506.2
-208887643.5
-208166491.5
-188486902.7
-181689658.2
-182719251.6
-185497666.6
-197587270.7
-217121672.3
-247390815.7
-308339882.8
-365894817.3
-399517184.3
-420923754.6
-445196039.4
-473948504.1
-542500155
-643950702.9
-729698823.1
-791666682.4
-869616261.5
-988030396.2
-1104435143
-1194657598
-1272799727
-1359602242
-1454157821
-1550729883
-1655343321
-1782565729
-1935436676
-2106654872
-2279601674
-2467667130
-2656899735
-2834095529
-3030249784
-3263170129
-3488294338
-3686250142
-3922588706
-4175353063
-4389806620
-4664513016
-4988769674
-5239662719
-5429518866
-5567598586
-5650470316
-5685350661
-5730469258
-5783511924
-5739157818
-5636846982
-5327202445
-4571754475
-3318252856
-1082608095
2243331083
7499633015
912923964.6
-1599853370
-859082913.8
-1656075853
-2216669650
-4450795627
)


100
(
15548145.13
-230790581.7
-27883212.47
-8471470.58
6204073.983
25004818.84
31289053.98
37450722.25
35309268.16
32900342.13
29117814.12
23806976.29
18857940.75
14969012.37
10322563.77
7375392.115
3756617.406
-1445576.491
-3121532.561
-6353363.144
-6025745.456
-8462750.769
-6591138.782
-9129803.096
-13545434.97
-14248372.15
-22661279.94
-33490797.46
-49407685.41
-77045237.94
-101024952.4
-131052926.3
-165143708.2
-183525818.1
-205875831.9
-213192745.3
-192890412.5
-170026412.8
-149431754.5
-145577013.1
-183785929.4
-239795911.9
-282411075.4
-316305430.5
-343013453
-372628619.5
-415500356.1
-464989400.5
-512705748.7
-554353199.7
-600638971.9
-690018902.8
-829537384.4
-947093144.6
-1020527678
-1096003631
-1184215445
-1273883583
-1357840241
-1450721902
-1557252339
-1675651758
-1807379314
-1964590495
-2148505720
-2335841802
-2499169111
-2657284292
-2835835751
-3026388067
-3206234578
-3439707201
-3728809223
-3974030855
-4172569623
-4407492989
-4644534859
-4911344977
-5243187999
-5479649785
-5565190313
-5605219832
-5584414972
-5557326685
-5608648596
-5599310195
-5504616883
-5259343767
-4763924465
-3853857701
-2201530756
227292142.1
3703948152
8951702921
1077636781
-1503236248
-625199710.8
-1543100976
-2314512057
-8069995698
)


100
(
-134377599.5
-225094497.3
-19788350.19
-5381683.141
8319772.234
28996436.83
34611444.71
39722455.7
39764372.61
36326566.55
33914606.82
28175543.92
22721618.57
18644081.35
13843949.55
9889715.471
6584337.951
4178308.196
-837314.6351
-1354400.684
-4367447.243
-2326954.477