/*--------------------------------*- C++ -*----------------------------------*\
| =========                 |                                                 |
| \\      /  F ield         | OpenFOAM: The Open Source CFD Toolbox           |
|  \\    /   O peration     | Version:  2.3.1                                 |
|   \\  /    A nd           | Web:      www.OpenFOAM.org                      |
|    \\/     M anipulation  |                                                 |
\*---------------------------------------------------------------------------*/
FoamFile
{
    version     2.0;
    format      ascii;
    class       dictionary;
    location    "constant";
    object      mu;
}
// * * * * * * * * * * * * * * * * * * * * * * * * * * * * * * * * * * * * * //

mu_table
100
(

100
(
1.769606677e-05
1.770223635e-05
1.769906339e-05
1.771803228e-05
1.774878356e-05
1.774093006e-05
1.776112771e-05
1.776875968e-05
1.778374796e-05
1.775850226e-05
1.778156867e-05
1.773663743e-05
1.774638746e-05
1.777625602e-05
1.775492438e-05
1.778173519e-05
1.784149929e-05
1.782828213e-05
1.78525207e-05
1.79104396e-05
1.791125852e-05
1.791121564e-05
1.79378039e-05
1.796642197e-05
1.795559974e-05
1.797009368e-05
1.800990835e-05
1.802739283e-05
1.800606388e-05
1.800834529e-05
1.803331763e-05
1.80370346e-05
1.803693372e-05
1.805872101e-05
1.810293646e-05
1.8131201e-05
1.810351914e-05
1.809972807e-05
1.811886617e-05
1.813203802e-05
1.810751145e-05
1.810551024e-05
1.812643628e-05
1.814880637e-05
1.815182188e-05
1.817654808e-05
1.822281533e-05
1.828405461e-05
1.826175034e-05
1.826040033e-05
1.827781932e-05
1.82982304e-05
1.827319925e-05
1.826568658e-05
1.827673717e-05
1.828740224e-05
1.829101921e-05
1.831457477e-05
1.835859467e-05
1.839070062e-05
1.839008243e-05
1.841054342e-05
1.845335697e-05
1.847559298e-05
1.847575508e-05
1.849890376e-05
1.85464301e-05
1.854627841e-05
1.85538004e-05
1.858648487e-05
1.861339205e-05
1.861076756e-05
1.863442416e-05
1.867195618e-05
1.866539807e-05
1.868685831e-05
1.871993677e-05
1.871663745e-05
1.874384941e-05
1.876137237e-05
1.877189034e-05
1.881198121e-05
1.881345881e-05
1.885298456e-05
1.886398237e-05
1.89067032e-05
1.892437722e-05
1.896957101e-05
1.900386436e-05
1.904792459e-05
1.9105314e-05
1.916932831e-05
1.923589239e-05
1.930734372e-05
1.938367454e-05
1.947274533e-05
1.954823631e-05
1.961171096e-05
1.965267638e-05
1.945025283e-05
)


100
(
1.768253854e-05
1.776228268e-05
1.781461601e-05
1.789710435e-05
1.795523531e-05
1.79717223e-05
1.807145748e-05
1.80691231e-05
1.814176358e-05
1.813271168e-05
1.815611909e-05
1.818193375e-05
1.818188328e-05
1.823730052e-05
1.828062815e-05
1.829816379e-05
1.836180816e-05
1.844915652e-05
1.846339897e-05
1.851174619e-05
1.858984447e-05
1.862183902e-05
1.863828595e-05
1.86817809e-05
1.87530098e-05
1.875725911e-05
1.878669288e-05
1.884059087e-05
1.891844274e-05
1.891415015e-05
1.892938766e-05
1.896708527e-05
1.902661661e-05
1.903776185e-05
1.907163441e-05
1.912723789e-05
1.920384922e-05
1.924731802e-05
1.925841257e-05
1.929150816e-05
1.93470767e-05
1.940013717e-05
1.94131321e-05
1.944752388e-05
1.950342414e-05
1.957459207e-05
1.96108411e-05
1.96667939e-05
1.97411826e-05
1.983308334e-05
1.989153798e-05
1.99191667e-05
1.996265546e-05
2.002309068e-05
2.006945729e-05
2.009179163e-05
2.013198622e-05
2.019091747e-05
2.02481614e-05
2.029796854e-05
2.034136356e-05
2.046524382e-05
2.056517448e-05
2.058823626e-05
2.063561123e-05
2.07900839e-05
2.08988203e-05
2.088993904e-05
2.101203938e-05
2.116190423e-05
2.123413108e-05
2.127322428e-05
2.146447326e-05
2.158113128e-05
2.157569398e-05
2.170654691e-05
2.193458342e-05
2.194948649e-05
2.207864216e-05
2.233121829e-05
2.235068764e-05
2.258223008e-05
2.275004049e-05
2.280244917e-05
2.316162448e-05
2.323460558e-05
2.344643415e-05
2.371392837e-05
2.382520469e-05
2.413897847e-05
2.429492256e-05
2.455599385e-05
2.469645874e-05
2.492619748e-05
2.503809155e-05
2.524496582e-05
2.530559396e-05
2.514899468e-05
2.412448961e-05
2.303894278e-05
)


100
(
1.767473957e-05
1.784221968e-05
1.794886855e-05
1.809308297e-05
1.81429186e-05
1.822977487e-05
1.831762689e-05
1.840206997e-05
1.846415688e-05
1.854726713e-05
1.8559951e-05
1.863261739e-05
1.866579737e-05
1.871177311e-05
1.880839902e-05
1.887167573e-05
1.892601498e-05
1.902094411e-05
1.913822644e-05
1.917772063e-05
1.924602305e-05
1.934029743e-05
1.941096327e-05
1.944621314e-05
1.950689659e-05
1.959222045e-05
1.964489966e-05
1.969075756e-05
1.975905064e-05
1.98484481e-05
1.991385991e-05
1.99441376e-05
1.999459218e-05
2.006557286e-05
2.013768932e-05
2.018499177e-05
2.025318417e-05
2.034117097e-05
2.044850356e-05
2.052122102e-05
2.056971582e-05
2.063782538e-05
2.072561375e-05
2.082578016e-05
2.087398496e-05
2.094065614e-05
2.102571328e-05
2.112803821e-05
2.121357665e-05
2.129612768e-05
2.13941844e-05
2.150582851e-05
2.162717945e-05
2.16839496e-05
2.174478582e-05
2.18204399e-05
2.19564162e-05
2.200443807e-05
2.206617842e-05
2.214417805e-05
2.227942115e-05
2.233114834e-05
2.247468599e-05
2.261833561e-05
2.270332048e-05
2.278451775e-05
2.296865032e-05
2.315015801e-05
2.321363729e-05
2.337676027e-05
2.357692515e-05
2.37681026e-05
2.388387375e-05
2.407272725e-05
2.427727853e-05
2.439916697e-05
2.447439024e-05
2.470469236e-05
2.495930273e-05
2.510408101e-05
2.532590509e-05
2.549039458e-05
2.57694989e-05
2.587090684e-05
2.611208698e-05
2.63868596e-05
2.655308408e-05
2.681238396e-05
2.706008808e-05
2.726106519e-05
2.747452555e-05
2.769001317e-05
2.789094225e-05
2.80310484e-05
2.823190702e-05
2.836533015e-05
2.839402181e-05
2.787334939e-05
2.686619368e-05
2.581333276e-05
)


100
(
1.767251537e-05
1.791959463e-05
1.809470328e-05
1.822647429e-05
1.834253296e-05
1.850786203e-05
1.858552135e-05
1.875131381e-05
1.881238918e-05
1.892450029e-05
1.899493659e-05
1.905893405e-05
1.917644551e-05
1.922269059e-05
1.931086753e-05
1.944343809e-05
1.953156072e-05
1.961886267e-05
1.974009353e-05
1.988913373e-05
1.995041154e-05
2.003695868e-05
2.014724336e-05
2.026129312e-05
2.031549228e-05
2.03931718e-05
2.049308319e-05
2.059665097e-05
2.065845963e-05
2.074106695e-05
2.084268991e-05
2.096249512e-05
2.102394802e-05
2.108829164e-05
2.11716609e-05
2.127399873e-05
2.136644962e-05
2.144771744e-05
2.154819779e-05
2.166646037e-05
2.18014213e-05
2.190826109e-05
2.198319151e-05
2.207403862e-05
2.21804054e-05
2.232563592e-05
2.239995488e-05
2.248791004e-05
2.259037598e-05
2.277235269e-05
2.285908347e-05
2.295848173e-05
2.306948595e-05
2.324676345e-05
2.334118438e-05
2.341227778e-05
2.351924723e-05
2.373434554e-05
2.385089436e-05
2.392329316e-05
2.406654467e-05
2.425216181e-05
2.435365594e-05
2.450065844e-05
2.466513875e-05
2.482046983e-05
2.495590877e-05
2.514109262e-05
2.534168939e-05
2.553317337e-05
2.568546896e-05
2.585157697e-05
2.6031473e-05
2.623986214e-05
2.645166317e-05
2.6621556e-05
2.675980281e-05
2.70262133e-05
2.728095948e-05
2.739786559e-05
2.763358907e-05
2.789600344e-05
2.80815383e-05
2.832535452e-05
2.85755117e-05
2.881026903e-05
2.902089584e-05
2.924034662e-05
2.946210958e-05
2.967364869e-05
2.98879138e-05
3.00963867e-05
3.028175267e-05
3.049189884e-05
3.064382186e-05
3.077203125e-05
3.079172208e-05
3.004023798e-05
2.911231343e-05
2.810792372e-05
)


100
(
1.767570889e-05
1.795022509e-05
1.817833137e-05
1.83711824e-05
1.855874724e-05
1.872092404e-05
1.887024809e-05
1.902875853e-05
1.918066613e-05
1.928486714e-05
1.94415987e-05
1.95085984e-05
1.961798141e-05
1.975785084e-05
1.983963318e-05
1.996455242e-05
2.012784664e-05
2.024438389e-05
2.035924275e-05
2.050184891e-05
2.066819193e-05
2.076428856e-05
2.086839121e-05
2.099421482e-05
2.114141685e-05
2.122670506e-05
2.13207128e-05
2.143481943e-05
2.156819535e-05
2.1666557e-05
2.176278224e-05
2.187632425e-05
2.200570071e-05
2.213933629e-05
2.221248889e-05
2.230247696e-05
2.24087523e-05
2.256642178e-05
2.2658714e-05
2.27674598e-05
2.28916282e-05
2.303852331e-05
2.319553877e-05
2.328336403e-05
2.338482783e-05
2.353126149e-05
2.375719465e-05
2.384215771e-05
2.393901214e-05
2.409203015e-05
2.43140316e-05
2.442733277e-05
2.453191899e-05
2.469106985e-05
2.488591267e-05
2.500580409e-05
2.510378587e-05
2.530584692e-05
2.552231498e-05
2.56918272e-05
2.582772367e-05
2.600027984e-05
2.618466552e-05
2.634590489e-05
2.648576208e-05
2.663813717e-05
2.680409795e-05
2.700013433e-05
2.717197988e-05
2.735082379e-05
2.754130484e-05
2.774350895e-05
2.794298657e-05
2.810465421e-05
2.827863433e-05
2.853564353e-05
2.879736637e-05
2.898179036e-05
2.919757928e-05
2.945128601e-05
2.971029798e-05
2.994175544e-05
3.013869797e-05
3.035680503e-05
3.058986917e-05
3.080791713e-05
3.105586221e-05
3.127968849e-05
3.148838805e-05
3.166551138e-05
3.190013215e-05
3.213374727e-05
3.230654519e-05
3.251700665e-05
3.267646031e-05
3.280243369e-05
3.274126582e-05
3.190175546e-05
3.101533934e-05
3.006112617e-05
)


100
(
1.768418841e-05
1.799452515e-05
1.827172225e-05
1.852375984e-05
1.877617044e-05
1.893920979e-05
1.916711644e-05
1.931761611e-05
1.952845124e-05
1.965808135e-05
1.980756366e-05
1.997124656e-05
2.00741041e-05
2.022282542e-05
2.038159135e-05
2.050043315e-05
2.065642244e-05
2.084511481e-05
2.099142473e-05
2.112805278e-05
2.128713946e-05
2.146687285e-05
2.160191582e-05
2.172200727e-05
2.186227033e-05
2.202188233e-05
2.215861543e-05
2.226765329e-05
2.238799699e-05
2.25238501e-05
2.267282363e-05
2.277683123e-05
2.28960742e-05
2.302857532e-05
2.321075996e-05
2.329751516e-05
2.339924171e-05
2.351497268e-05
2.375395662e-05
2.38623526e-05
2.3981227e-05
2.411296121e-05
2.432079415e-05
2.448410451e-05
2.458181229e-05
2.469672591e-05
2.493258914e-05
2.518107996e-05
2.527412991e-05
2.540124481e-05
2.561151332e-05
2.583350855e-05
2.597570948e-05
2.612214749e-05
2.63070595e-05
2.650220467e-05
2.66668862e-05
2.685151899e-05
2.702644397e-05
2.721111706e-05
2.741199863e-05
2.75996056e-05
2.775451874e-05
2.791886737e-05
2.810917098e-05
2.831726229e-05
2.850044886e-05
2.867105466e-05
2.886543058e-05
2.907105085e-05
2.928355988e-05
2.946742403e-05
2.965137449e-05
2.984462881e-05
3.006611865e-05
3.025649929e-05
3.049287724e-05
3.074310294e-05
3.099542846e-05
3.121895407e-05
3.141846919e-05
3.164637014e-05
3.191798097e-05
3.213771698e-05
3.237135894e-05
3.259691895e-05
3.281140566e-05
3.302407069e-05
3.324216486e-05
3.346943903e-05
3.367447668e-05
3.388555452e-05
3.408481854e-05
3.428322298e-05
3.445778958e-05
3.456954624e-05
3.432401553e-05
3.352927403e-05
3.268917949e-05
3.178785944e-05
)


100
(
1.768044818e-05
1.804426666e-05
1.837081237e-05
1.868645703e-05
1.893122182e-05
1.916278221e-05
1.940253055e-05
1.96126927e-05
1.98170667e-05
2.003733707e-05
2.017934719e-05
2.036717717e-05
2.053462943e-05
2.067647165e-05
2.085867123e-05
2.103859035e-05
2.118811403e-05
2.136923531e-05
2.157763246e-05
2.175352696e-05
2.190611177e-05
2.207849027e-05
2.226955848e-05
2.244584232e-05
2.25814555e-05
2.273649415e-05
2.290931991e-05
2.305345685e-05
2.316957939e-05
2.330036713e-05
2.346408693e-05
2.365475335e-05
2.376897844e-05
2.389707162e-05
2.406486512e-05
2.427310054e-05
2.43706076e-05
2.448229542e-05
2.46670825e-05
2.492222005e-05
2.504789741e-05
2.517461557e-05
2.535136582e-05
2.557727188e-05
2.574820755e-05
2.58535791e-05
2.606106112e-05
2.629958566e-05
2.654774944e-05
2.667407489e-05
2.687394602e-05
2.708390878e-05
2.730117031e-05
2.748992204e-05
2.764873927e-05
2.78163305e-05
2.799311482e-05
2.818919697e-05
2.838186585e-05
2.855646284e-05
2.874132136e-05
2.894760793e-05
2.916971539e-05
2.939825083e-05
2.957946508e-05
2.977383275e-05
2.997898047e-05
3.018267803e-05
3.040170271e-05
3.058926319e-05
3.077524443e-05
3.097956679e-05
3.120897991e-05
3.141851235e-05
3.16233385e-05
3.184516766e-05
3.206063333e-05
3.228979237e-05
3.25034007e-05
3.273464638e-05
3.298485127e-05
3.321316624e-05
3.345162215e-05
3.368993716e-05
3.392234407e-05
3.415281433e-05
3.43837606e-05
3.459176703e-05
3.479548871e-05
3.502473755e-05
3.524904247e-05
3.544789912e-05
3.565334932e-05
3.584924739e-05
3.602881447e-05
3.615596892e-05
3.57730047e-05
3.502099053e-05
3.423137166e-05
3.338025667e-05
)


100
(
1.767028137e-05
1.810544888e-05
1.847983618e-05
1.881478106e-05
1.908992774e-05
1.939377703e-05
1.9626006e-05
1.991336281e-05
2.01103174e-05
2.035026388e-05
2.055582738e-05
2.073622699e-05
2.095729582e-05
2.11330811e-05
2.130795162e-05
2.151787781e-05
2.172039118e-05
2.189451347e-05
2.209499135e-05
2.231764065e-05
2.252379943e-05
2.269181822e-05
2.287872617e-05
2.308280727e-05
2.330055411e-05
2.344792597e-05
2.361357004e-05
2.379592428e-05
2.393953303e-05
2.406641963e-05
2.420515662e-05
2.444086151e-05
2.462822573e-05
2.475112062e-05
2.488578231e-05
2.51149459e-05
2.532352793e-05
2.543028967e-05
2.556674683e-05
2.581036573e-05
2.60684309e-05
2.62125207e-05
2.636052309e-05
2.657722711e-05
2.680482629e-05
2.698569824e-05
2.716294238e-05
2.739035249e-05
2.762674931e-05
2.785760637e-05
2.805635062e-05
2.823347282e-05
2.841882609e-05
2.861191981e-05
2.883086444e-05
2.905714387e-05
2.922750572e-05
2.940482095e-05
2.960177626e-05
2.981153715e-05
3.002954026e-05
3.021679332e-05
3.042612873e-05
3.064421984e-05
3.086111146e-05
3.108504403e-05
3.130077641e-05
3.148947222e-05
3.16858389e-05
3.192370149e-05
3.217010848e-05
3.238316763e-05
3.25975074e-05
3.280711705e-05
3.302098756e-05
3.324286894e-05
3.344234695e-05
3.367526014e-05
3.392703355e-05
3.415753811e-05
3.438360026e-05
3.461312754e-05
3.484573566e-05
3.508041849e-05
3.531835128e-05
3.55594208e-05
3.578742894e-05
3.600512174e-05
3.620870738e-05
3.644073611e-05
3.667125682e-05
3.687514946e-05
3.70799391e-05
3.727626985e-05
3.745962074e-05
3.757950662e-05
3.709427313e-05
3.640292666e-05
3.566155764e-05
3.486482429e-05
)


100
(
1.76649364e-05
1.815688965e-05
1.856595509e-05
1.892335726e-05
1.925517233e-05
1.957680895e-05
1.985527523e-05
2.014469042e-05
2.041077271e-05
2.064366785e-05
2.091450733e-05
2.111229222e-05
2.132576628e-05
2.157498238e-05
2.176339059e-05
2.196575122e-05
2.219815377e-05
2.242421676e-05
2.261947692e-05
2.283821385e-05
2.307494233e-05
2.331391009e-05
2.349313278e-05
2.36901013e-05
2.390247238e-05
2.413784564e-05
2.431838122e-05
2.449323873e-05
2.468404419e-05
2.482830252e-05
2.496404396e-05
2.513700153e-05
2.54128383e-05
2.559981732e-05
2.572992079e-05
2.591211507e-05
2.615763847e-05
2.636868473e-05
2.648288507e-05
2.669524782e-05
2.694234496e-05
2.720119842e-05
2.736354117e-05
2.756753565e-05
2.778539236e-05
2.801284069e-05
2.823062203e-05
2.84251677e-05
2.863005479e-05
2.884319968e-05
2.906207645e-05
2.929838514e-05
2.951159551e-05
2.969684821e-05
2.988994794e-05
3.011311378e-05
3.034539516e-05
3.05832536e-05
3.078183439e-05
3.098035656e-05
3.118560045e-05
3.13901024e-05
3.161039176e-05
3.182973868e-05
3.203555644e-05
3.224714358e-05
3.247901148e-05
3.272064628e-05
3.294515584e-05
3.316003625e-05
3.339117949e-05
3.361669163e-05
3.385912346e-05
3.407130843e-05
3.427049962e-05
3.45115639e-05
3.476180449e-05
3.498796424e-05
3.521303213e-05
3.544128639e-05
3.567124974e-05
3.59022248e-05
3.613546753e-05
3.637374848e-05
3.660413191e-05
3.682957549e-05
3.705819541e-05
3.728607249e-05
3.751113087e-05
3.772922206e-05
3.794469579e-05
3.81547563e-05
3.837046919e-05
3.857808557e-05
3.874899889e-05
3.885653474e-05
3.831046122e-05
3.7677164e-05
3.697957384e-05
3.622529142e-05
)


100
(
1.766425494e-05
1.8181032e-05
1.863110925e-05
1.903477579e-05
1.942940618e-05
1.974543316e-05
2.009388465e-05
2.037609544e-05
2.070133516e-05
2.094615185e-05
2.121002388e-05
2.149777926e-05
2.170456351e-05
2.194587734e-05
2.221860396e-05
2.242321675e-05
2.264986376e-05
2.290389793e-05
2.316016535e-05
2.337115609e-05
2.360031566e-05
2.384479554e-05
2.411485142e-05
2.430588791e-05
2.451181225e-05
2.47317952e-05
2.497439131e-05
2.519894948e-05
2.538169932e-05
2.557963556e-05
2.572499417e-05
2.586679314e-05
2.610946022e-05
2.638740849e-05
2.657606618e-05
2.671656421e-05
2.695340735e-05
2.720135096e-05
2.741634713e-05
2.758542802e-05
2.782319885e-05
2.807125343e-05
2.832769624e-05
2.854006151e-05
2.873323269e-05
2.893579094e-05
2.914684354e-05
2.938048624e-05
2.962300013e-05
2.982703038e-05
3.003886158e-05
3.025926041e-05
3.049284704e-05
3.07315362e-05
3.096039749e-05
3.115791908e-05
3.13807632e-05
3.160955443e-05
3.183863628e-05
3.207427466e-05
3.229691315e-05
3.249255363e-05
3.26939957e-05
3.292536041e-05
3.317166833e-05
3.340070824e-05
3.36156551e-05
3.384676458e-05
3.407480074e-05
3.431198358e-05
3.455225552e-05
3.476926105e-05
3.499890316e-05
3.525066421e-05
3.549826956e-05
3.572240078e-05
3.59520244e-05
3.618331141e-05
3.641325188e-05
3.664353701e-05
3.687623742e-05
3.711400072e-05
3.734023573e-05
3.756336992e-05
3.778978738e-05
3.801889094e-05
3.825455545e-05
3.849396308e-05
3.871316642e-05
3.893740687e-05
3.915360334e-05
3.937417118e-05
3.958173614e-05
3.978462882e-05
3.995285756e-05
4.001507187e-05
3.942010881e-05
3.883712798e-05
3.818016157e-05
3.746545301e-05
)


100
(
1.766808523e-05
1.82127992e-05
1.870025149e-05
1.915522831e-05
1.955988812e-05
1.991993234e-05
2.029174427e-05
2.0616311e-05
2.093605862e-05
2.125874821e-05
2.151638036e-05
2.180682364e-05
2.209414719e-05
2.232889274e-05
2.259422642e-05
2.289256854e-05
2.311822868e-05
2.336476887e-05
2.363266896e-05
2.391616688e-05
2.413793747e-05
2.437584179e-05
2.462796455e-05
2.490505192e-05
2.513255668e-05
2.534651423e-05
2.557365749e-05
2.582226766e-05
2.608264818e-05
2.628165401e-05
2.648480232e-05
2.663081418e-05
2.682037521e-05
2.708867518e-05
2.736791786e-05
2.755926799e-05
2.776062675e-05
2.800012906e-05
2.824974203e-05
2.848478697e-05
2.869946216e-05
2.891839468e-05
2.914653345e-05
2.938216619e-05
2.964099743e-05
2.98609546e-05
3.006540372e-05
3.027769678e-05
3.051468231e-05
3.0764625e-05
3.102115152e-05
3.123110262e-05
3.145201251e-05
3.168310819e-05
3.191802226e-05
3.215561959e-05
3.240548338e-05
3.26201814e-05
3.284024665e-05
3.306464651e-05
3.330804462e-05
3.356010302e-05
3.378290843e-05
3.39931977e-05
3.422872583e-05
3.446764276e-05
3.469896834e-05
3.493507613e-05
3.514875078e-05
3.53690032e-05
3.563227554e-05
3.59012003e-05
3.612930312e-05
3.636943414e-05
3.661065044e-05
3.685211787e-05
3.70863932e-05
3.731987953e-05
3.755403349e-05
3.778828844e-05
3.801597656e-05
3.824383348e-05
3.847113426e-05
3.869726075e-05
3.892976715e-05
3.916440383e-05
3.938320141e-05
3.961506856e-05
3.984615189e-05
4.007016967e-05
4.029791755e-05
4.051652642e-05
4.073696742e-05
4.093444406e-05
4.111867808e-05
4.104758819e-05
4.042217214e-05
3.989492807e-05
3.926431927e-05
3.858955822e-05
)


100
(
1.766621783e-05
1.824833932e-05
1.877551843e-05
1.927420395e-05
1.968210063e-05
2.01022072e-05
2.046885297e-05
2.086364109e-05
2.117731066e-05
2.152058697e-05
2.182983386e-05
2.211400346e-05
2.242700789e-05
2.27212389e-05
2.298235721e-05
2.326993524e-05
2.358976274e-05
2.383314564e-05
2.409377864e-05
2.437200402e-05
2.468116203e-05
2.49129159e-05
2.515838699e-05
2.541889961e-05
2.570034657e-05
2.596616604e-05
2.618676493e-05
2.642110601e-05
2.667379679e-05
2.693680326e-05
2.718426002e-05
2.739263142e-05
2.753773481e-05
2.779544899e-05
2.806549858e-05
2.834494102e-05
2.85692778e-05
2.879726993e-05
2.902128942e-05
2.925445155e-05
2.950808683e-05
2.974296467e-05
2.996356329e-05
3.019312793e-05
3.043189541e-05
3.069178369e-05
3.095755619e-05
3.118430056e-05
3.139719831e-05
3.163808724e-05
3.188513016e-05
3.213685388e-05
3.23915336e-05
3.262057227e-05
3.284321992e-05
3.307049046e-05
3.330254711e-05
3.356808403e-05
3.383084467e-05
3.404865241e-05
3.427595223e-05
3.45213782e-05
3.476921881e-05
3.501472208e-05
3.524852981e-05
3.546672722e-05
3.56873146e-05
3.593939556e-05
3.62036016e-05
3.64166824e-05
3.66649529e-05
3.692008569e-05
3.717305494e-05
3.742075106e-05
3.766600215e-05
3.791356863e-05
3.815497287e-05
3.838502733e-05
3.861678058e-05
3.884783835e-05
3.908070013e-05
3.931408269e-05
3.955011412e-05
3.978644711e-05
4.000856051e-05
4.023313081e-05
4.045700089e-05
4.069908256e-05
4.092045281e-05
4.115630475e-05
4.138603467e-05
4.161463184e-05
4.183718011e-05
4.203841501e-05
4.222379609e-05
4.199335288e-05
4.136133269e-05
4.087979985e-05
4.027196839e-05
3.962102287e-05
)


100
(
1.765701141e-05
1.829099722e-05
1.885614797e-05
1.935031607e-05
1.980566778e-05
2.025743974e-05
2.064843179e-05
2.105135176e-05
2.142211672e-05
2.175953027e-05
2.212281062e-05
2.242384881e-05
2.273213199e-05
2.306767411e-05
2.337278295e-05
2.365321317e-05
2.395615889e-05
2.429218662e-05
2.455576991e-05
2.482639055e-05
2.511420502e-05
2.54268023e-05
2.568747504e-05
2.593917607e-05
2.620654803e-05
2.649120336e-05
2.678674705e-05
2.702247317e-05
2.726216247e-05
2.751807485e-05
2.77826427e-05
2.805653925e-05
2.828662149e-05
2.849360917e-05
2.875658932e-05
2.901919656e-05
2.92772893e-05
2.954365036e-05
2.976061951e-05
2.998716933e-05
3.022203217e-05
3.047953982e-05
3.075344375e-05
3.099018559e-05
3.12197507e-05
3.146270633e-05
3.172140486e-05
3.198505851e-05
3.225356765e-05
3.249322561e-05
3.272882899e-05
3.296370021e-05
3.320198944e-05
3.345409214e-05
3.373534636e-05
3.396295164e-05
3.418796176e-05
3.443150929e-05
3.469295836e-05
3.495839925e-05
3.522043604e-05
3.54474422e-05
3.567429839e-05
3.590375188e-05
3.616021776e-05
3.643231262e-05
3.66488997e-05
3.688486671e-05
3.714031326e-05
3.739674364e-05
3.765107432e-05
3.789650919e-05
3.813822991e-05
3.838206528e-05
3.862414232e-05
3.886326089e-05
3.911497742e-05
3.936596791e-05
3.960834785e-05
3.984831071e-05
4.008463786e-05
4.031643434e-05
4.054889723e-05
4.078285219e-05
4.101411328e-05
4.125238633e-05
4.147411245e-05
4.170018713e-05
4.193871908e-05
4.217938294e-05
4.241910445e-05
4.264450272e-05
4.286598716e-05
4.307256558e-05
4.3223046e-05
4.286673586e-05
4.229675668e-05
4.18102059e-05
4.123434549e-05
4.062084057e-05
)


100
(
1.765185451e-05
1.832122291e-05
1.890378586e-05
1.942804928e-05
1.99335003e-05
2.03805526e-05
2.083033981e-05
2.122714388e-05
2.165098628e-05
2.199857528e-05
2.235508274e-05
2.273525708e-05
2.303802982e-05
2.336569274e-05
2.37188335e-05
2.403388229e-05
2.432936808e-05
2.464360959e-05
2.499114775e-05
2.527629786e-05
2.555309254e-05
2.584773822e-05
2.616260733e-05
2.645389593e-05
2.671022629e-05
2.698273869e-05
2.726958865e-05
2.75659842e-05
2.784502828e-05
2.808797861e-05
2.834570451e-05
2.861097026e-05
2.888375286e-05
2.916716673e-05
2.940372191e-05
2.96477326e-05
2.989951685e-05
3.015757061e-05
3.044087549e-05
3.070074104e-05
3.092867823e-05
3.116457164e-05
3.142497322e-05
3.169651513e-05
3.197485906e-05
3.2217164e-05
3.246140063e-05
3.271756428e-05
3.297644183e-05
3.32346157e-05
3.350938336e-05
3.375331587e-05
3.398388289e-05
3.421890107e-05
3.448187714e-05
3.475912435e-05
3.503977847e-05
3.526522343e-05
3.551621095e-05
3.576676762e-05
3.600945782e-05
3.627358568e-05
3.653094275e-05
3.675510036e-05
3.699161944e-05
3.726148202e-05
3.753424322e-05
3.778698346e-05
3.803376265e-05
3.828081108e-05
3.852958544e-05
3.877862629e-05
3.902237016e-05
3.926598568e-05
3.951324262e-05
3.977137193e-05
4.002882725e-05
4.027350671e-05
4.051447541e-05
4.07488091e-05
4.099158225e-05
4.123266409e-05
4.147784172e-05
4.171779449e-05
4.194607049e-05
4.217258566e-05
4.240704505e-05
4.264842446e-05
4.289179561e-05
4.311894161e-05
4.335828495e-05
4.358485801e-05
4.381705499e-05
4.401621961e-05
4.413018862e-05
4.371449761e-05
4.319298201e-05
4.272735198e-05
4.217774594e-05
4.157608285e-05
)


100
(
1.765059837e-05
1.83381634e-05
1.894878492e-05
1.95079333e-05
2.003700001e-05
2.050380036e-05
2.098157223e-05
2.140403636e-05
2.182211632e-05
2.223876284e-05
2.258884904e-05
2.296385512e-05
2.334414286e-05
2.366445768e-05
2.400623861e-05
2.437521238e-05
2.470110838e-05
2.500775575e-05
2.533256354e-05
2.568439632e-05
2.599234037e-05
2.627329349e-05
2.657295483e-05
2.688889267e-05
2.721272616e-05
2.747215448e-05
2.774795478e-05
2.803617839e-05
2.833237421e-05
2.863641698e-05
2.889923777e-05
2.915689272e-05
2.942186284e-05
2.969328525e-05
2.997900679e-05
3.026544544e-05
3.05095407e-05
3.076139804e-05
3.102068386e-05
3.130431469e-05
3.159421785e-05
3.184910341e-05
3.208485557e-05
3.234706661e-05
3.26160567e-05
3.28901908e-05
3.316866971e-05
3.342521068e-05
3.367223221e-05
3.39234314e-05
3.417636666e-05
3.44557519e-05
3.474217865e-05
3.497207436e-05
3.520814971e-05
3.547728115e-05
3.574954884e-05
3.602250063e-05
3.629383465e-05
3.652563159e-05
3.67596678e-05
3.69995612e-05
3.72831155e-05
3.756930653e-05
3.779749668e-05
3.805461939e-05
3.831727375e-05
3.858063098e-05
3.884121012e-05
3.909460092e-05
3.93494464e-05
3.960602638e-05
3.985617123e-05
4.010058432e-05
4.034773211e-05
4.059566262e-05
4.084526182e-05
4.1094089e-05
4.134296719e-05
4.159953254e-05
4.185372367e-05
4.208737792e-05
4.232245959e-05
4.256211647e-05
4.280506549e-05
4.305030765e-05
4.328253757e-05
4.351458731e-05
4.374091616e-05
4.398818835e-05
4.422440794e-05
4.445660793e-05
4.468919376e-05
4.491002546e-05
4.499002479e-05
4.454176976e-05
4.405574495e-05
4.361468935e-05
4.309779696e-05
4.25290524e-05
)


100
(
1.765309266e-05
1.835855348e-05
1.899510821e-05
1.959250899e-05
2.011730439e-05
2.063113888e-05
2.110371909e-05
2.158432388e-05
2.199597669e-05
2.242511558e-05
2.28274865e-05
2.319515196e-05
2.35827664e-05
2.396618863e-05
2.430047653e-05
2.465309361e-05
2.503376493e-05
2.537397683e-05
2.568835203e-05
2.602063459e-05
2.637311692e-05
2.670624578e-05
2.699026398e-05
2.729358889e-05
2.760996608e-05
2.793508275e-05
2.82289343e-05
2.850661409e-05
2.879524338e-05
2.909037435e-05
2.939160842e-05
2.97000685e-05
2.995695641e-05
3.022126389e-05
3.049186409e-05
3.077981481e-05
3.108912979e-05
3.136030447e-05
3.161162916e-05
3.187351348e-05
3.215545628e-05
3.244254684e-05
3.273514995e-05
3.299134703e-05
3.325185222e-05
3.3514356e-05
3.377884455e-05
3.404873262e-05
3.435335366e-05
3.460278216e-05
3.484952695e-05
3.510391656e-05
3.538219845e-05
3.566291e-05
3.594022205e-05
3.618504966e-05
3.644134404e-05
3.669569936e-05
3.694891829e-05
3.724151029e-05
3.749602226e-05
3.772609996e-05
3.79889588e-05
3.826723299e-05
3.854541777e-05
3.881945973e-05
3.907939062e-05
3.933384995e-05
3.958983015e-05
3.984627061e-05
4.009533904e-05
4.03438709e-05
4.060744912e-05
4.086851382e-05
4.112546574e-05
4.138215465e-05
4.163832496e-05
4.188203344e-05
4.213158833e-05
4.237860569e-05
4.262843845e-05
4.287327348e-05
4.312552101e-05
4.337421115e-05
4.360810782e-05
4.385071615e-05
4.409329494e-05
4.433484333e-05
4.457473688e-05
4.479920509e-05
4.505049685e-05
4.528302079e-05
4.550923922e-05
4.572476434e-05
4.576664965e-05
4.533823306e-05
4.487616451e-05
4.446283679e-05
4.397471236e-05
4.344054418e-05
)


100
(
1.764973121e-05
1.838219802e-05
1.904621693e-05
1.965193061e-05
2.019917993e-05
2.074751165e-05
2.122902505e-05
2.171934661e-05
2.217458734e-05
2.259800418e-05
2.303899991e-05
2.343221261e-05
2.381250873e-05
2.421317958e-05
2.460062845e-05
2.494593129e-05
2.530656672e-05
2.569546285e-05
2.605285305e-05
2.637194703e-05
2.67085403e-05
2.706045756e-05
2.742053938e-05
2.770782867e-05
2.801350717e-05
2.832987877e-05
2.865353539e-05
2.89843895e-05
2.926301863e-05
2.955080755e-05
2.984503233e-05
3.014409306e-05
3.046370596e-05
3.075320632e-05
3.101662244e-05
3.128650635e-05
3.157659804e-05
3.188240045e-05
3.219391551e-05
3.24579792e-05
3.272091981e-05
3.300106445e-05
3.328522838e-05
3.357171043e-05
3.386596776e-05
3.413458764e-05
3.439192713e-05
3.465289504e-05
3.492744711e-05
3.522559557e-05
3.552459214e-05
3.576641851e-05
3.602551692e-05
3.629911719e-05
3.657259307e-05
3.68372782e-05
3.71211755e-05
3.736675218e-05
3.76142043e-05
3.788107686e-05
3.816846509e-05
3.845421954e-05
3.869309741e-05
3.896109063e-05
3.923158869e-05
3.950131595e-05
3.976919812e-05
4.003059789e-05
4.029230343e-05
4.055361583e-05
4.081766224e-05
4.109114305e-05
4.134678915e-05
4.160183639e-05
4.185582536e-05
4.210653921e-05
4.235963376e-05
4.261513114e-05
4.28783951e-05
4.314183415e-05
4.33854095e-05
4.362869367e-05
4.386657111e-05
4.41228095e-05
4.437803317e-05
4.464330184e-05
4.488305653e-05
4.511255167e-05
4.535216271e-05
4.559281429e-05
4.583330042e-05
4.609431042e-05
4.630996534e-05
4.653077237e-05
4.649376955e-05
4.608914362e-05
4.566336366e-05
4.526341177e-05
4.479936912e-05
4.429038008e-05
)


100
(
1.76433987e-05
1.841030996e-05
1.909271858e-05
1.970329196e-05
2.028601944e-05
2.083039723e-05
2.135947018e-05
2.184451608e-05
2.234348381e-05
2.27771267e-05
2.321169747e-05
2.366603144e-05
2.404924842e-05
2.443955093e-05
2.485269989e-05
2.524592043e-05
2.559955142e-05
2.59688827e-05
2.635970796e-05
2.673668034e-05
2.705801624e-05
2.73973883e-05
2.774849414e-05
2.810672034e-05
2.842733243e-05
2.873429242e-05
2.905022333e-05
2.937195686e-05
2.969897855e-05
3.00193455e-05
3.030602639e-05
3.059869667e-05
3.089538266e-05
3.121495164e-05
3.154402789e-05
3.181145856e-05
3.208015462e-05
3.237231181e-05
3.267520909e-05
3.298299693e-05
3.329546852e-05
3.356578597e-05
3.383814192e-05
3.411256812e-05
3.438949426e-05
3.469021582e-05
3.501118207e-05
3.526473288e-05
3.552185397e-05
3.580219847e-05
3.609459546e-05
3.638915775e-05
3.667749584e-05
3.693380297e-05
3.718967526e-05
3.744661867e-05
3.772470696e-05
3.803005307e-05
3.828416433e-05
3.852768608e-05
3.880824648e-05
3.9088444e-05
3.936993321e-05
3.96470435e-05
3.992062023e-05
4.018246132e-05
4.044568151e-05
4.070987465e-05
4.09648353e-05
4.122493537e-05
4.149543335e-05
4.176452697e-05
4.20312295e-05
4.229652773e-05
4.256054898e-05
4.283144197e-05
4.308385335e-05
4.333097665e-05
4.358153925e-05
4.383756298e-05
4.409579996e-05
4.436211003e-05
4.460968148e-05
4.485093119e-05
4.511269961e-05
4.536458013e-05
4.561092233e-05
4.58579371e-05
4.609833376e-05
4.63474875e-05
4.658360582e-05
4.682975246e-05
4.707019629e-05
4.727756172e-05
4.722569242e-05
4.679611736e-05
4.639689201e-05
4.601987797e-05
4.557404691e-05
4.509063155e-05
)


100
(
1.764035021e-05
1.842247547e-05
1.912002448e-05
1.975577582e-05
2.037043825e-05
2.091579216e-05
2.147199801e-05
2.197327365e-05
2.246734225e-05
2.296096974e-05
2.339005205e-05
2.383175919e-05
2.429111166e-05
2.467534672e-05
2.507311909e-05
2.549539283e-05
2.589850597e-05
2.625791399e-05
2.663292751e-05
2.702350392e-05
2.742078009e-05
2.774437534e-05
2.808527483e-05
2.84352185e-05
2.879109389e-05
2.914690682e-05