/*--------------------------------*- C++ -*----------------------------------*\
| =========                 |                                                 |
| \\      /  F ield         | OpenFOAM: The Open Source CFD Toolbox           |
|  \\    /   O peration     | Version:  2.3.1                                 |
|   \\  /    A nd           | Web:      www.OpenFOAM.org                      |
|    \\/     M anipulation  |                                                 |
\*---------------------------------------------------------------------------*/
FoamFile
{
    version     2.0;
    format      ascii;
    class       dictionary;
    location    "constant";
    object      OH;
}
// * * * * * * * * * * * * * * * * * * * * * * * * * * * * * * * * * * * * * //

OH_table
100
(

100
(
6.20981572e-05
4.338414967e-05
3.265293232e-05
2.591397272e-05
2.097924228e-05
1.756369518e-05
1.483410682e-05
1.274116789e-05
1.099147226e-05
9.639193896e-06
8.387675562e-06
7.533278819e-06
6.730676757e-06
6.016582297e-06
5.484424885e-06
4.979996666e-06
4.507986445e-06
4.154800904e-06
3.816206405e-06
3.488353022e-06
3.225969432e-06
2.989431894e-06
2.759525777e-06
2.549709421e-06
2.383453e-06
2.221995836e-06
2.064493287e-06
1.923542034e-06
1.803334349e-06
1.686064091e-06
1.571501851e-06
1.475359598e-06
1.390845862e-06
1.308362696e-06
1.227599945e-06
1.152081378e-06
1.085613891e-06
1.020642117e-06
9.572191546e-07
8.984233799e-07
8.475781372e-07
7.980808559e-07
7.497617052e-07
7.051707048e-07
6.667465217e-07
6.292207022e-07
5.924665536e-07
5.565824749e-07
5.249282526e-07
4.938729205e-07
4.63427991e-07
4.343126028e-07
4.088050885e-07
3.837948094e-07
3.593021174e-07
3.366064018e-07
3.159699058e-07
2.961380529e-07
2.777225159e-07
2.604884612e-07
2.435682148e-07
2.279911877e-07
2.137032181e-07
1.995230389e-07
1.854517066e-07
1.726851944e-07
1.61112563e-07
1.490725837e-07
1.377175511e-07
1.277189837e-07
1.180780729e-07
1.080324164e-07
9.936974723e-08
9.159577598e-08
8.290375351e-08
7.559792811e-08
6.920352634e-08
6.185241343e-08
5.61407798e-08
5.043693269e-08
4.487295019e-08
4.082753474e-08
3.569591804e-08
3.230926169e-08
2.824158077e-08
2.551633307e-08
2.226004392e-08
2.000736643e-08
1.746996426e-08
1.504286332e-08
1.281066698e-08
1.076308813e-08
8.975293841e-09
7.148570697e-09
5.628993629e-09
4.229658e-09
3.320901925e-09
2.128149901e-09
8.217280426e-10
6.681376185e-18
)


100
(
6.438306949e-05
4.600834688e-05
3.504166424e-05
2.828218963e-05
2.3258598e-05
1.964085627e-05
1.703420104e-05
1.474853728e-05
1.302365165e-05
1.153009588e-05
1.023508334e-05
9.295758324e-06
8.443312115e-06
7.720409884e-06
7.136197434e-06
6.584875859e-06
6.090906008e-06
5.702447949e-06
5.293458302e-06
4.926881411e-06
4.619856633e-06
4.314830757e-06
4.02832675e-06
3.774970375e-06
3.55770485e-06
3.325672296e-06
3.123982474e-06
2.943383674e-06
2.780948672e-06
2.599715591e-06
2.442629151e-06
2.302891823e-06
2.17488997e-06
2.042324879e-06
1.92477764e-06
1.815509761e-06
1.716400921e-06
1.615229103e-06
1.515353242e-06
1.425365245e-06
1.34352876e-06
1.264485235e-06
1.184263151e-06
1.111133532e-06
1.044089416e-06
9.819195005e-07
9.200242233e-07
8.626356724e-07
8.105390644e-07
7.638522493e-07
7.183397367e-07
6.73507733e-07
6.322608152e-07
5.942055784e-07
5.574508105e-07
5.21176468e-07
4.889566549e-07
4.642464474e-07
4.516398875e-07
4.559038752e-07
4.649921369e-07
4.423938529e-07
4.012914792e-07
3.826624486e-07
3.838613507e-07
3.659520445e-07
3.374205005e-07
3.31210774e-07
3.31801835e-07
3.103154122e-07
2.915131872e-07
2.93703446e-07
2.884442218e-07
2.735808247e-07
2.956378156e-07
3.093940503e-07
2.718532567e-07
2.776849231e-07
2.875340457e-07
2.501950435e-07
2.701389157e-07
2.589636634e-07
2.505471164e-07
2.81833156e-07
2.458912e-07
2.693109441e-07
2.80107106e-07
2.677544121e-07
3.070716298e-07
2.937068457e-07
3.244200257e-07
3.390925014e-07
3.90464118e-07
4.127823007e-07
4.733896448e-07
4.908933783e-07
5.307778936e-07
5.061962869e-07
2.082155459e-07
6.960000977e-08
)


100
(
6.666823693e-05
4.87189574e-05
3.753696256e-05
3.064465333e-05
2.538635493e-05
2.170114804e-05
1.885191107e-05
1.660580257e-05
1.469512009e-05
1.318196037e-05
1.178557257e-05
1.0706226e-05
9.776924559e-06
8.96334087e-06
8.298991326e-06
7.694238013e-06
7.133126492e-06
6.651662256e-06
6.222609171e-06
5.792459807e-06
5.412453997e-06
5.07069019e-06
4.745724365e-06
4.438127925e-06
4.162595742e-06
3.91149818e-06
3.671276955e-06
3.448840078e-06
3.244549155e-06
3.054730865e-06
2.873454704e-06
2.700824821e-06
2.542991127e-06
2.397967671e-06
2.263953792e-06
2.135315831e-06
2.015594541e-06
1.904243979e-06
1.803369903e-06
1.706301966e-06
1.612139465e-06
1.525481972e-06
1.447444518e-06
1.377825353e-06
1.304392185e-06
1.233789448e-06
1.168905926e-06
1.111633335e-06
1.05585356e-06
1.00148346e-06
9.54115505e-07
9.171522343e-07
8.907576269e-07
8.572824219e-07
8.252522935e-07
7.980942573e-07
7.83994849e-07
7.586386454e-07
7.402656984e-07
7.396795094e-07
7.723987061e-07
7.98761613e-07
7.944171139e-07
7.597603654e-07
7.297999859e-07
7.187199382e-07
7.083721147e-07
6.914246655e-07
6.712933179e-07
6.605750062e-07
6.46357291e-07
6.322260754e-07
6.192554849e-07
6.125034375e-07
6.275433198e-07
6.805947462e-07
7.393313242e-07
7.342147006e-07
7.291235706e-07
7.457881565e-07
7.497036156e-07
7.893258904e-07
7.990687438e-07
8.725480125e-07
8.93172961e-07
9.18311054e-07
9.813347241e-07
1.020488575e-06
1.084966345e-06
1.181268724e-06
1.282092048e-06
1.381663509e-06
1.517868181e-06
1.700463662e-06
1.830227309e-06
1.999497401e-06
2.186330613e-06
1.668148168e-06
9.094971847e-07
4.294757918e-07
)


100
(
6.895337985e-05
5.139675699e-05
4.007852444e-05
3.282999905e-05
2.752011338e-05
2.371420464e-05
2.062329171e-05
1.830666657e-05
1.623765388e-05
1.457558517e-05
1.312540333e-05
1.188443959e-05
1.087710413e-05
9.963857059e-06
9.191189844e-06
8.531152574e-06
7.918880862e-06
7.366076151e-06
6.875906499e-06
6.434857595e-06
6.006443301e-06
5.620439067e-06
5.270552625e-06
4.951344488e-06
4.645296528e-06
4.366589181e-06
4.113349516e-06
3.883179163e-06
3.66082178e-06
3.454113381e-06
3.263816323e-06
3.095281355e-06
2.92954711e-06
2.77473558e-06
2.634822873e-06
2.511575594e-06
2.396823949e-06
2.284429814e-06
2.180475591e-06
2.087690626e-06
2.010450836e-06
1.937187898e-06
1.861860073e-06
1.796469572e-06
1.741945886e-06
1.706070621e-06
1.653342534e-06
1.604088369e-06
1.560539291e-06
1.543234396e-06
1.503034282e-06
1.466968515e-06
1.434930185e-06
1.421388232e-06
1.387804688e-06
1.348832308e-06
1.31918207e-06
1.316343706e-06
1.290908029e-06
1.255674517e-06
1.243203414e-06
1.255052034e-06
1.257483527e-06
1.245234571e-06
1.217301954e-06
1.187611942e-06
1.163589188e-06
1.149308465e-06
1.147992657e-06
1.165355205e-06
1.186926444e-06
1.218886832e-06
1.262097201e-06
1.31299882e-06
1.34806131e-06
1.393125022e-06
1.469908002e-06
1.503249733e-06
1.535188379e-06
1.628724409e-06
1.668856177e-06
1.717393952e-06
1.811499989e-06
1.855603283e-06
1.929890084e-06
2.037220923e-06
2.163553249e-06
2.302896533e-06
2.43962479e-06
2.608892397e-06
2.80971222e-06
3.013122219e-06
3.230270182e-06
3.496857754e-06
3.814677478e-06
4.169936105e-06
4.516196657e-06
3.238737601e-06
2.086408554e-06
1.158418813e-06
)


100
(
7.12382293e-05
5.390589444e-05
4.250265131e-05
3.507492931e-05
2.968808602e-05
2.557488563e-05
2.238264562e-05
1.982920845e-05
1.771199744e-05
1.587407476e-05
1.435372879e-05
1.298754321e-05
1.1845821e-05
1.087924853e-05
1.001505649e-05
9.274592198e-06
8.632996741e-06
8.043009481e-06
7.508641625e-06
7.030054186e-06
6.605139979e-06
6.198499541e-06
5.826558225e-06
5.492789336e-06
5.201869939e-06
4.920231879e-06
4.65993273e-06
4.424801395e-06
4.218255162e-06
4.017422902e-06
3.825710019e-06
3.65059834e-06
3.497369064e-06
3.367298723e-06
3.225508774e-06
3.099436047e-06
2.991656282e-06
2.919667916e-06
2.83028854e-06
2.751807103e-06
2.68208472e-06
2.624348436e-06
2.576371342e-06
2.504804737e-06
2.440785466e-06
2.398137748e-06
2.391206947e-06
2.332475464e-06
2.277077663e-06
2.242808229e-06
2.234332888e-06
2.190608178e-06
2.144113344e-06
2.114766607e-06
2.095596148e-06
2.05401623e-06
2.009010883e-06
1.999069948e-06
1.994594158e-06
1.974868323e-06
1.941763275e-06
1.922158948e-06
1.92039882e-06
1.928329642e-06
1.935731373e-06
1.949711469e-06
1.970920407e-06
2.002121327e-06
2.026392774e-06
2.056361621e-06
2.092367247e-06
2.137316252e-06
2.201907179e-06
2.289694544e-06
2.380531144e-06
2.434674573e-06
2.498492001e-06
2.593679074e-06
2.657252599e-06
2.734970218e-06
2.835634148e-06
2.937297642e-06
3.056242038e-06
3.198040515e-06
3.351463167e-06
3.496636945e-06
3.662771625e-06
3.859448403e-06
4.066201563e-06
4.285306008e-06
4.500676594e-06
4.79195524e-06
5.061740255e-06
5.436849064e-06
5.875656607e-06
6.402958923e-06
6.693928187e-06
4.865417388e-06
3.465406247e-06
2.094194969e-06
)


100
(
7.3522644e-05
5.644790949e-05
4.498951132e-05
3.740752677e-05
3.185932438e-05
2.747326112e-05
2.415074514e-05
2.137770359e-05
1.914614993e-05
1.718346801e-05
1.551825277e-05
1.41017454e-05
1.284714382e-05
1.178914206e-05
1.08810226e-05
1.007470115e-05
9.380791703e-06
8.78478399e-06
8.237917094e-06
7.737037243e-06
7.290532477e-06
6.901736144e-06
6.536367839e-06
6.196149217e-06
5.899112927e-06
5.652449724e-06
5.429684666e-06
5.207546723e-06
4.998988142e-06
4.812962993e-06
4.656221817e-06
4.486423163e-06
4.333021905e-06
4.196272198e-06
4.104538364e-06
3.969007364e-06
3.847683988e-06
3.74222258e-06
3.718589645e-06
3.633636827e-06
3.555248694e-06
3.485132549e-06
3.452331281e-06
3.397975223e-06
3.312857932e-06
3.239036054e-06
3.225617396e-06
3.219217149e-06
3.142895299e-06
3.081537633e-06
3.057708079e-06
3.04100177e-06
2.995056731e-06
2.951877952e-06
2.923747539e-06
2.901438246e-06
2.875177785e-06
2.872289433e-06
2.87966558e-06
2.901555402e-06
2.936328127e-06
2.963918305e-06
2.972377918e-06
2.986400375e-06
3.014577997e-06
3.051840302e-06
3.079610758e-06
3.100796921e-06
3.130384651e-06
3.16755383e-06
3.218149191e-06
3.271713299e-06
3.339186142e-06
3.425850095e-06
3.543754167e-06
3.652802449e-06
3.730091703e-06
3.830582529e-06
3.950907309e-06
4.072422331e-06
4.19231227e-06
4.337579689e-06
4.518357728e-06
4.673103337e-06
4.842828504e-06
5.015264733e-06
5.189901783e-06
5.377117825e-06
5.646788079e-06
5.87578655e-06
6.083315226e-06
6.402755238e-06
6.716034621e-06
7.162415775e-06
7.690853485e-06
8.385364321e-06
8.08568627e-06
6.230792995e-06
4.790035639e-06
3.05553288e-06
)


100
(
7.572637617e-05
5.901741368e-05
4.754354e-05
3.981436727e-05
3.395985162e-05
2.944327419e-05
2.589096866e-05
2.299154678e-05
2.057730506e-05
1.85556197e-05
1.67605284e-05
1.52532205e-05
1.394591138e-05
1.280160803e-05
1.183588756e-05
1.100403477e-05
1.02667479e-05
9.639615313e-06
9.110342319e-06
8.624689001e-06
8.170353292e-06
7.770591475e-06
7.431110418e-06
7.127850135e-06
6.829967251e-06
6.584957562e-06
6.39845061e-06
6.221567458e-06
6.027505354e-06
5.839782631e-06
5.681906716e-06
5.563151979e-06
5.39845419e-06
5.248645192e-06
5.133207873e-06
5.054995241e-06
4.90688702e-06
4.7740668e-06
4.697483628e-06
4.67253557e-06
4.573721664e-06
4.47779806e-06
4.41233411e-06
4.372845918e-06
4.303582816e-06
4.203247056e-06
4.164691014e-06
4.146533282e-06
4.13676547e-06
4.066371865e-06
4.036194312e-06
4.017050587e-06
4.012220438e-06
4.006576777e-06
3.992975298e-06
3.9899299e-06
3.996439849e-06
4.016379903e-06
4.038055402e-06
4.055061386e-06
4.082549242e-06
4.122069079e-06
4.170029744e-06
4.224433356e-06
4.250431354e-06
4.282895661e-06
4.327315783e-06
4.382615284e-06
4.458456027e-06
4.517819433e-06
4.57626457e-06
4.648454233e-06
4.738201582e-06
4.817961573e-06
4.897907279e-06
4.998438816e-06
5.100272262e-06
5.216326142e-06
5.327884868e-06
5.454317387e-06
5.596327705e-06
5.738518062e-06
5.900875443e-06
6.068797009e-06
6.237693836e-06
6.408921265e-06
6.601526386e-06
6.8089026e-06
7.106466789e-06
7.392164994e-06
7.600415326e-06
7.918448751e-06
8.354909115e-06
8.934600463e-06
9.701486117e-06
1.055472774e-05
9.469005354e-06
7.412992123e-06
5.921909788e-06
3.962516422e-06
)


100
(
7.7877385e-05
6.160236697e-05
5.015132654e-05
4.221230138e-05
3.614389233e-05
3.149796223e-05
2.770467135e-05
2.470017174e-05
2.211360628e-05
1.997515914e-05
1.812502718e-05
1.651448082e-05
1.51666018e-05
1.39762933e-05
1.294686017e-05
1.208539025e-05
1.134487038e-05
1.069084932e-05
1.015050131e-05
9.696681751e-06
9.289548875e-06
8.889261744e-06
8.543489233e-06
8.255618569e-06
8.022696329e-06
7.7572705e-06
7.551217452e-06
7.409672022e-06
7.256059151e-06
7.077646111e-06
6.892628534e-06
6.792171426e-06
6.655736663e-06
6.470988287e-06
6.302434027e-06
6.215791722e-06
6.116980872e-06
5.945836998e-06
5.804376972e-06
5.749849695e-06
5.710703431e-06
5.598039572e-06
5.490629914e-06
5.431174905e-06
5.382649607e-06
5.312919689e-06
5.253365413e-06
5.23708571e-06
5.238049198e-06
5.249246916e-06
5.249730271e-06
5.237758437e-06
5.235317424e-06
5.242321074e-06
5.274447497e-06
5.315752012e-06
5.314910291e-06
5.319115504e-06
5.336861097e-06
5.364640832e-06
5.404132306e-06
5.427936288e-06
5.472261986e-06
5.530526722e-06
5.595920126e-06
5.67281745e-06
5.743549463e-06
5.794368639e-06
5.852841755e-06
5.94467819e-06
6.043442699e-06
6.11859456e-06
6.19600172e-06
6.274570115e-06
6.357165557e-06
6.441996477e-06
6.517398036e-06
6.616657704e-06
6.729424921e-06
6.844778262e-06
6.978574626e-06
7.125981141e-06
7.283114766e-06
7.457120821e-06
7.660087529e-06
7.899407297e-06
8.157457927e-06
8.4413928e-06
8.800850734e-06
9.16290692e-06
9.552094947e-06
1.012516746e-05
1.081006413e-05
1.169717972e-05
1.286740301e-05
1.391319927e-05
1.155973262e-05
8.8983049e-06
7.050680345e-06
4.839717635e-06
)


100
(
8.00282152e-05
6.414786703e-05
5.273869677e-05
4.462920491e-05
3.843387389e-05
3.357567066e-05
2.963820517e-05
2.64495959e-05
2.378462043e-05
2.150998255e-05
1.96290632e-05
1.795004203e-05
1.652148234e-05
1.534171705e-05
1.42782753e-05
1.337285046e-05
1.262464e-05
1.198215559e-05
1.144038199e-05
1.098229154e-05
1.060551601e-05
1.028435301e-05
9.928518368e-06
9.623714652e-06
9.366262062e-06
9.164734005e-06
8.933101703e-06
8.740895508e-06
8.615637976e-06
8.458469349e-06
8.275755051e-06
8.103312209e-06
8.01924852e-06
7.851330986e-06
7.636871942e-06
7.476944293e-06
7.377088237e-06
7.254381382e-06
7.061677828e-06
6.96199221e-06
6.900336527e-06
6.856011836e-06
6.746221137e-06
6.674495979e-06
6.623411385e-06
6.594812671e-06
6.57895053e-06
6.560840014e-06
6.563094249e-06
6.58085251e-06
6.606630297e-06
6.648544241e-06
6.670350295e-06
6.668495852e-06
6.675679457e-06
6.708030153e-06
6.748489578e-06
6.798249191e-06
6.815468166e-06
6.832930511e-06
6.862536533e-06
6.899003251e-06
6.957501987e-06
7.02049044e-06
7.076367702e-06
7.138996024e-06
7.213853296e-06
7.294029407e-06
7.364746508e-06
7.434677437e-06
7.526571826e-06
7.619338865e-06
7.716334357e-06
7.783711825e-06
7.842823579e-06
7.925769499e-06
8.02074085e-06
8.126037322e-06
8.262290543e-06
8.418842887e-06
8.586442742e-06
8.76596692e-06
8.976781992e-06
9.276043217e-06
9.598701819e-06
9.962896575e-06
1.034900601e-05
1.087735799e-05
1.13045028e-05
1.180765616e-05
1.247874283e-05
1.332719565e-05
1.442775676e-05
1.579813677e-05
1.733369759e-05
1.846926894e-05
1.466880476e-05
1.121733557e-05
8.68720069e-06
5.840858347e-06
)


100
(
8.217853909e-05
6.661851887e-05
5.530107963e-05
4.712515431e-05
4.082499212e-05
3.5732755e-05
3.170657958e-05
2.833291916e-05
2.560221504e-05
2.321933331e-05
2.123542032e-05
1.959794819e-05
1.810331088e-05
1.686238994e-05
1.586307137e-05
1.493601609e-05
1.416418631e-05
1.354355318e-05
1.304095961e-05
1.256176493e-05
1.21654156e-05
1.183802966e-05
1.158694129e-05
1.125113529e-05
1.095953073e-05
1.070687289e-05
1.050031768e-05
1.02998772e-05
1.009367355e-05
9.954490083e-06
9.768645036e-06
9.566239641e-06
9.440118807e-06
9.332794375e-06
9.132317097e-06
8.891955599e-06
8.757264301e-06
8.644054476e-06
8.51455836e-06
8.361943812e-06
8.291509818e-06
8.248897649e-06
8.233181926e-06
8.188707515e-06
8.132475542e-06
8.096141708e-06
8.077802187e-06
8.09436029e-06
8.130124189e-06
8.133418606e-06
8.150608121e-06
8.175469221e-06
8.205624084e-06
8.241236199e-06
8.272390341e-06
8.277238737e-06
8.314288441e-06
8.364836459e-06
8.418319017e-06
8.480196256e-06
8.525485545e-06
8.544450727e-06
8.571230456e-06
8.624745862e-06
8.691605888e-06
8.750494822e-06
8.804908965e-06
8.882131631e-06
8.969493487e-06
9.069638069e-06
9.171032638e-06
9.259800044e-06
9.352860176e-06
9.450606106e-06
9.563182198e-06
9.693474449e-06
9.868662013e-06
1.006998684e-05
1.027748314e-05
1.049645019e-05
1.075686582e-05
1.11004585e-05
1.147777603e-05
1.189400169e-05
1.23465363e-05
1.288609745e-05
1.352789749e-05
1.414071741e-05
1.481755583e-05
1.565638207e-05
1.665379671e-05
1.799421029e-05
1.94500339e-05
2.148899181e-05
2.361681042e-05
2.429169906e-05
1.868909958e-05
1.443140542e-05
1.109915061e-05
7.171486031e-06
)


100
(
8.432809053e-05
6.909662149e-05
5.789895749e-05
4.97079268e-05
4.323304432e-05
3.801675913e-05
3.38519329e-05
3.03840222e-05
2.751423265e-05
2.513199919e-05
2.305564077e-05
2.136356734e-05
1.994542095e-05
1.866352431e-05
1.761687391e-05
1.680625498e-05
1.601733352e-05
1.536872652e-05
1.485310021e-05
1.445551413e-05
1.401918828e-05
1.365421289e-05
1.334223844e-05
1.30960389e-05
1.279539132e-05
1.24940658e-05
1.222528543e-05
1.199536248e-05
1.180666666e-05
1.157211683e-05
1.140574018e-05
1.119788358e-05
1.099940941e-05
1.088034957e-05
1.075635782e-05
1.054101733e-05
1.035143875e-05
1.022156597e-05
1.012541076e-05
1.004116116e-05
9.961970603e-06
9.90596998e-06
9.874947175e-06
9.864018613e-06
9.891300804e-06
9.87461406e-06
9.842912409e-06
9.825666229e-06
9.836780536e-06
9.865389906e-06
9.908953962e-06
9.906867221e-06
9.921429592e-06
9.951807837e-06
9.989961662e-06
1.00387604e-05
1.010811991e-05
1.014242787e-05
1.018836941e-05
1.023697482e-05
1.029191932e-05
1.034826118e-05
1.037681913e-05
1.040064975e-05
1.046411166e-05
1.055049276e-05
1.064363424e-05
1.074919455e-05
1.084455699e-05
1.094875326e-05
1.108381083e-05
1.124037913e-05
1.138893869e-05
1.158654709e-05
1.183552523e-05
1.21180279e-05
1.239349388e-05
1.267952869e-05
1.300831095e-05
1.341104394e-05
1.388346687e-05
1.439906746e-05
1.491094582e-05
1.543842972e-05
1.619616265e-05
1.691896436e-05
1.780116502e-05
1.864857891e-05
1.969208216e-05
2.089036122e-05
2.239339466e-05
2.420399283e-05
2.649347163e-05
2.936918482e-05
3.21519716e-05
3.120851383e-05
2.359886091e-05
1.848167833e-05
1.429035144e-05
9.063860504e-06
)


100
(
8.633476942e-05
7.157762092e-05
6.053633697e-05
5.234521061e-05
4.571086417e-05
4.043680972e-05
3.610043685e-05
3.26192735e-05
2.962049548e-05
2.718467277e-05
2.511683855e-05
2.336435645e-05
2.196543588e-05
2.076972336e-05
1.969541166e-05
1.883394397e-05
1.819689118e-05
1.751855501e-05
1.695503934e-05
1.649631947e-05
1.616578136e-05
1.573599768e-05
1.536626364e-05
1.504591714e-05
1.477936907e-05
1.450815362e-05
1.418134045e-05
1.388915158e-05
1.363155086e-05
1.341576008e-05
1.322604807e-05
1.300510296e-05
1.272704091e-05
1.263128745e-05
1.250692561e-05
1.240050918e-05
1.224043712e-05
1.210530122e-05
1.198341211e-05
1.189497141e-05
1.186105e-05
1.182280948e-05
1.178164328e-05
1.176594311e-05
1.176249307e-05
1.17836359e-05
1.181405463e-05
1.179368131e-05
1.175885194e-05
1.176842802e-05
1.178937787e-05
1.182621731e-05
1.188250714e-05
1.191071046e-05
1.194059051e-05
1.198292857e-05
1.202362347e-05
1.209985703e-05
1.217168765e-05
1.219379476e-05
1.223539231e-05
1.230564055e-05
1.239249815e-05
1.250107213e-05
1.261512675e-05
1.272735492e-05
1.284797628e-05
1.299056624e-05
1.315174002e-05
1.327582513e-05
1.348922193e-05
1.376469857e-05
1.410565891e-05
1.446553718e-05
1.482692367e-05
1.522617721e-05
1.568135357e-05
1.618027196e-05
1.675620179e-05
1.736757469e-05
1.798739336e-05
1.866757448e-05
1.947743491e-05
2.033235607e-05
2.130543197e-05
2.230408603e-05
2.361732084e-05
2.484065746e-05
2.628386025e-05
2.816245426e-05
3.025980774e-05
3.28314236e-05
3.605401956e-05
3.983579112e-05
4.341633479e-05
3.938708731e-05
2.962918839e-05
2.359468781e-05
1.833892116e-05
1.196230605e-05
)


100
(
8.817809143e-05
7.40377804e-05
6.319804992e-05
5.494967392e-05
4.828908622e-05
4.293775594e-05
3.850409918e-05
3.49297939e-05
3.194022847e-05
2.941815246e-05
2.740692173e-05
2.564251214e-05
2.420385148e-05
2.308484507e-05
2.209684096e-05
2.119978883e-05
2.048152907e-05
1.996601479e-05
1.936475551e-05
1.883494735e-05
1.838737224e-05
1.804275158e-05
1.76350228e-05
1.724076171e-05
1.689595476e-05
1.659884451e-05
1.634672828e-05
1.600879422e-05
1.56941318e-05
1.542288222e-05
1.519479526e-05
1.502612074e-05
1.483673787e-05
1.463210678e-05
1.453086084e-05
1.443131072e-05
1.43312982e-05
1.426315467e-05
1.412599102e-05
1.402272955e-05
1.394826513e-05
1.392098657e-05
1.393125649e-05
1.389351562e-05
1.385498116e-05
1.384293121e-05
1.385136814e-05
1.387142689e-05
1.391353797e-05
1.392424077e-05
1.393945725e-05
1.395915322e-05
1.398658526e-05
1.403706484e-05
1.413581078e-05
1.415611965e-05
1.417948147e-05
1.423385767e-05
1.431341715e-05
1.442029957e-05
1.456278384e-05
1.468130242e-05
1.482568348e-05
1.498705487e-05
1.518562219e-05
1.540905876e-05
1.554800595e-05
1.573499942e-05
1.597633417e-05
1.627924564e-05
1.665925871e-05
1.707538964e-05
1.753547398e-05
1.803713784e-05
1.856069258e-05
1.913716665e-05
1.987987137e-05
2.072193447e-05
2.150529147e-05
2.228026062e-05
2.317193304e-05
2.423745011e-05
2.538693233e-05
2.653857212e-05
2.781894857e-05
2.941951509e-05
3.104951085e-05
3.270269392e-05
3.501375233e-05
3.76893714e-05
4.070616106e-05
4.403038555e-05
4.830515661e-05
5.328301561e-05
5.726790716e-05
4.909298105e-05
3.766689186e-05
3.015177755e-05
2.36111346e-05
1.535984296e-05
)


100
(
9.002088146e-05
7.643585686e-05
6.58088057e-05
5.760252097e-05
5.09704996e-05
4.549468571e-05
4.106969076e-05
3.738822226e-05
3.445687616e-05
3.189509212e-05
2.982455114e-05
2.822039646e-05
2.673911444e-05
2.558006916e-05
2.470392848e-05
2.387683179e-05
2.310420406e-05
2.247062428e-05
2.201499457e-05
2.145643051e-05
2.091228689e-05
2.044433449e-05
2.006578252e-05
1.967951608e-05
1.925290266e-05
1.888319182e-05
1.85601535e-05
1.828839837e-05
1.801856224e-05
1.77015885e-05
1.743823838e-05
1.722118828e-05
1.706721017e-05
1.698402842e-05
1.683390569e-05
1.670786259e-05
1.66099477e-05
1.652937039e-05
1.650455276e-05
1.64425672e-05
1.632549498e-05
1.623262891e-05
1.618802419e-05
1.617008739e-05
1.618052309e-05
1.614725296e-05
1.613407743e-05
1.615995689e-05
1.620174839e-05
1.624595694e-05
1.632527536e-05
1.635222114e-05
1.636232678e-05
1.638348994e-05
1.644605017e-05
1.653771752e-05
1.666398241e-05
1.672528645e-05
1.687577156e-05
1.706814895e-05
1.726207884e-05
1.752209965e-05
1.778403476e-05
1.798465314e-05
1.82099292e-05
1.849730099e-05
1.882917445e-05
1.919295783e-05
1.960704879e-05
2.008084051e-05
2.061157555e-05
2.118160479e-05
2.177541536e-05
2.24375029e-05
2.320803737e-05
2.412514722e-05
2.511947249e-05
2.616728285e-05
2.725503347e-05
2.836383145e-05
2.97147071e-05
3.11861468e-05
3.263488972e-05
3.4261993e-05
3.617860083e-05
3.817759647e-05
4.017612984e-05
4.273555806e-05
4.601870666e-05
4.939565227e-05
5.345466236e-05
5.801090761e-05
6.396836613e-05
7.017657186e-05
7.363015828e-05
6.13321463e-05
4.813255043e-05
3.894445119e-05
3.076974366e-05
2.200544502e-05
)


100
(
9.186297857e-05
7.877274525e-05
6.840611211e-05
6.031195032e-05
5.368691276e-05
4.816656111e-05
4.373222116e-05
4.003252627e-05
3.704338249e-05
3.462885553e-05
3.251115426e-05
3.086387458e-05
2.958030108e-05
2.838196048e-05
2.744453338e-05
2.674899964e-05
2.602731691e-05
2.531903864e-05
2.472290305e-05
2.426507467e-05
2.372888061e-05
2.314974791e-05
2.265031645e-05
2.223391879e-05
2.188795997e-05
2.143222954e-05
2.104778187e-05
2.072626903e-05
2.046118869e-05
2.026195567e-05
2.000674791e-05
1.97698419e-05
1.958063595e-05
1.943857857e-05
1.936498761e-05
1.932085938e-05
1.919152522e-05
1.908775071e-05
1.900034769e-05
1.89585978e-05
1.893394722e-05
1.884382763e-05
1.872547225e-05
1.867911048e-05
1.866216296e-05
1.867936191e-05
1.873722936e-05
1.87649662e-05
1.879106526e-05
1.883920927e-05
1.888427773e-05
1.897077454e-05
1.907322501e-05
1.907510449e-05
1.91124275e-05
1.925685346e-05
1.94469209e-05
1.969970003e-05
2.000139238e-05
2.023501546e-05
2.049840701e-05
2.077302681e-05
2.11488271e-05
2.154687973e-05
2.182419496e-05
2.224322519e-05
2.275446582e-05
2.335343148e-05
2.40119124e-05
2.466036909e-05
2.533971644e-05
2.610585147e-05
2.697733674e-05
2.793744664e-05
2.900147049e-05
3.015313658e-05
3.137114676e-05
3.271163336e-05
3.422648014e-05
3.595038815e-05
3.772704146e-05
3.953804085e-05
4.148104614e-05
4.378394249e-05
4.628664014e-05
4.880227877e-05
5.156526916e-05
5.493601661e-05
5.883989322e-05
6.341952907e-05
6.857479018e-05
7.440662993e-05
8.242203885e-05
9.044674789e-05
9.315119789e-05
7.686837194e-05
6.153786124e-05
5.032040788e-05
4.023173094e-05
2.885051572e-05
)


100
(
9.370423165e-05
8.108403714e-05
7.10038986e-05
6.306439265e-05
5.641634701e-05
5.096073769e-05
4.646397465e-05
4.287372681e-05
3.983604159e-05
3.745452798e-05
3.547761736e-05
3.379621209e-05
3.251785171e-05
3.150113574e-05
3.051153955e-05
2.971864102e-05
2.912664525e-05
2.84706307e-05
2.777596375e-05
2.717610166e-05
2.668258312e-05
2.617533324e-05
2.556138685e-05
2.503918724e-05
2.459568378e-05
2.423751569e-05
2.38620052e-05
2.349437252e-05
2.320201754e-05
2.296805056e-05
2.279545012e-05
2.268223272e-05
2.245811508e-05
2.228036588e-05
2.214334066e-05
2.206478292e-05
2.205374059e-05
2.195559859e-05
2.181598098e-05
2.170907191e-05
2.164648164e-05
2.160637106e-05
2.160633587e-05
2.154938203e-05
2.153174503e-05
2.154329582e-05
2.157118314e-05
2.162715973e-05
2.178012679e-05
2.181153179e-05
2.184487591e-05
2.190236413e-05
2.201187708e-05
2.216056759e-05
2.237071607e-05
2.256789697e-05
2.285394511e-05
2.318093294e-05
2.352375341e-05
2.399023461e-05
2.434518719e-05
2.463564042e-05
2.505165554e-05
2.554985898e-05
2.614715657e-05
2.6841948e-05
2.756559629e-05
2.833479602e-05
2.917103576e-05
3.005251634e-05
3.094478556e-05
3.194596737e-05
3.320167036e-05
3.457934005e-05
3.595643858e-05
3.740041938e-05
3.902731559e-05
4.080499027e-05
4.279827474e-05
4.494420692e-05
4.71596052e-05
4.955897249e-05
5.241328647e-05
5.534227027e-05
5.832265574e-05
6.168784718e-05
6.557732844e-05
6.999306368e-05
7.512087365e-05
8.037147061e-05
8.720992103e-05
9.442062661e-05
0.0001042117627
0.0001139750798
0.0001154161204
9.592629829e-05
7.803487986e-05
6.45898254e-05
5.22337364e-05
3.823380552e-05
)


100
(
9.529649966e-05
8.335539778e-05
7.35986281e-05
6.579134234e-05
5.920638507e-05
5.383468635e-05
4.933252029e-05
4.577028997e-05
4.285297701e-05
4.045864998e-05
3.863161118e-05
3.704034598e-05
3.572254525e-05
3.473794005e-05
3.390472481e-05
3.304343571e-05
3.232226385e-05
3.177128316e-05
3.115828441e-05
3.044404964e-05
2.981866692e-05
2.928623481e-05
2.883579535e-05
2.820248022e-05
2.767591209e-05
2.724273956e-05
2.69035126e-05
2.666747698e-05
2.63353513e-05
2.607225562e-05
2.587378197e-05
2.571989608e-05
2.565342178e-05
2.551717105e-05
2.531835611e-05
2.515166648e-05
2.504476658e-05
2.498918476e-05
2.496758441e-05
2.483803697e-05
2.472659252e-05
2.46877929e-05
2.468359534e-05
2.47168658e-05
2.479881365e-05
2.483586156e-05
2.486318686e-05
2.491492572e-05
2.499541622e-05
2.51436376e-05
2.532340616e-05
2.53809719e-05
2.553152377e-05
2.579044489e-05
2.611599906e-05
2.646921096e-05
2.695350643e-05
2.734039616e-05
2.77489614e-05
2.820722917e-05
2.872724035e-05
2.929755484e-05
2.976860433e-05
3.04559996e-05
3.127109542e-05
3.220330559e-05
3.319793676e-05
3.419621135e-05
3.525694978e-05
3.642557068e-05
3.775925682e-05
3.929031433e-05
4.083698238e-05
4.248185122e-05
4.420354935e-05
4.604019633e-05
4.815420706e-05
5.056268572e-05
5.312510258e-05
5.587069122e-05
5.874445479e-05
6.18849077e-05
6.529871507e-05
6.887996885e-05
7.290732841e-05
7.788129241e-05
8.289209087e-05
8.818613927e-05
9.463376276e-05
0.000101590421
0.0001099498571
0.000121766808
0.0001318845999
0.0001437149398
0.0001414002054
0.0001184049154
9.793565008e-05
8.19057641e-05
6.702045911e-05
5.126868366e-05
)


100
(
9.671990846e-05
8.555643934e-05
7.616208833e-05
6.85045467e-05
6.206138312e-05
5.670482044e-05
5.234409463e-05
4.878633445e-05
4.605918589e-05
4.371601598e-05
4.189081485e-05
4.056817482e-05
3.925636767e-05
3.820155894e-05
3.742345771e-05
3.669947724e-05
3.589883129e-05
3.520945591e-05
3.464666785e-05
3.407536145e-05
3.333073405e-05
3.268948264e-05
3.213562772e-05
3.167997183e-05
3.117198132e-05
3.068461713e-05
3.030072965e-05
3.000302921e-05
2.978734411e-05
2.961898838e-05
2.938160426e-05
2.919362095e-05
2.902870095e-05
2.89431157e-05
2.88980355e-05
2.866212601e-05
2.844604466e-05
2.832697348e-05
2.825637202e-05
2.82382136e-05
2.829098716e-05
2.825302315e-05
2.82448359e-05
2.826981979e-05
2.831668513e-05
2.846453302e-05
2.870262753e-05
2.872807071e-05
2.877983307e-05
2.893357083e-05
2.915734272e-05
2.946492172e-05
2.985807421e-05
3.020088138e-05
3.059810941e-05
3.104699032e-05
3.159914067e-05
3.227002389e-05
3.27436875e-05
3.319773302e-05
3.385954614e-05
3.460735255e-05
3.548514641e-05
3.647706378e-05
3.75558793e-05
3.866797782e-05
3.987914072e-05
4.118990027e-05
4.254130689e-05
4.407552732e-05
4.588821661e-05
4.78381212e-05
4.98169725e-05
5.188429301e-05
5.416792103e-05
5.680615151e-05
5.949686695e-05
6.234549321e-05
6.537803127e-05
6.876186103e-05
7.26609754e-05
7.691208141e-05
8.102006406e-05
8.529859322e-05
9.065347627e-05
9.671538057e-05
0.0001031575694
0.0001102503698
0.0001183571103
0.0001272099603
0.0001376328186
0.0001505766815
0.0001648396665
0.000178500013
0.0001734067544
0.0001445972073
0.0001210718689
0.0001024577481
8.480598809e-05
6.634902847e-05
)


100
(
9.814262218e-05
8.765410713e-05
7.865735946e-05
7.122261801e-05
6.495265056e-05
5.964409767e-05
5.542862406e-05
5.196631505e-05
4.928547594e-05
4.723236598e-05
4.542497533e-05
4.406996349e-05
4.310908331e-05
4.201230345e-05
4.112202836e-05
4.0461444e-05
3.98092119e-05
3.902517297e-05
3.83374662e-05
3.775024913e-05
3.723744093e-05
3.648302468e-05
3.584946792e-05
3.532312656e-05
3.490993e-05
3.459848943e-05
3.416614107e-05