/*--------------------------------*- C++ -*----------------------------------*\
| =========                 |                                                 |
| \\      /  F ield         | OpenFOAM: The Open Source CFD Toolbox           |
|  \\    /   O peration     | Version:  2.3.1                                 |
|   \\  /    A nd           | Web:      www.OpenFOAM.org                      |
|    \\/     M anipulation  |                                                 |
\*---------------------------------------------------------------------------*/
FoamFile
{
    version     2.0;
    format      ascii;
    class       dictionary;
    location    "constant";
    object      PM10;
}
// * * * * * * * * * * * * * * * * * * * * * * * * * * * * * * * * * * * * * //

PM10_table
100
(

100
(
-0.08330365524
-0.1182060167
-0.05015254096
-0.02917997323
-0.02560081517
-0.02448772536
-0.01400746983
-0.01725410172
-0.01220485517
-0.01175671598
-0.01286529561
-0.008417879194
-0.009510021493
-0.008869725185
-0.006161638667
-0.006710767387
-0.00722381979
-0.004096439234
-0.004415350111
-0.005004004582
-0.003379379275
-0.00283170354
-0.003097419519
-0.003050215979
-0.001924907861
-0.002084419958
-0.002323146298
-0.002084675397
-0.001228072112
-0.001299466472
-0.001441637147
-0.001266195297
-0.0009013277945
-0.0009843919473
-0.001089741844
-0.001039005287
-0.0006316806665
-0.0004912078626
-0.0005368209867
-0.0005210721519
-0.0003504999869
-0.0002533663383
-0.0002807164159
-0.0002795943862
-0.0002129412285
-0.0001572210959
-0.0001768147192
-0.000196807001
-0.0001206464633
-6.121896188e-05
-4.556214554e-05
-4.773507994e-05
-2.760891972e-05
-1.189452077e-05
-7.884120552e-06
-8.464393257e-06
-4.872785616e-06
-2.009468007e-06
-1.279086658e-06
1.357201398e-07
8.082021081e-07
-2.726674806e-06
-4.54688302e-06
-3.304183945e-06
-5.426610772e-06
-1.431738219e-05
-1.699805761e-05
-1.605603658e-05
-2.338202933e-05
-3.128606015e-05
-3.285540009e-05
-3.48603328e-05
-4.74746116e-05
-5.337306229e-05
-5.706295025e-05
-6.383746248e-05
-7.258389986e-05
-7.13135894e-05
-7.156203855e-05
-7.676568268e-05
-7.527810591e-05
-7.708326084e-05
-7.866079081e-05
-7.870030738e-05
-7.883037686e-05
-7.930488718e-05
-8.122320564e-05
-7.837079763e-05
-8.423889266e-05
-7.965254276e-05
-8.40507592e-05
-8.485815206e-05
-9.653060425e-05
-9.788444481e-05
-0.0001114955929
-0.0001095949643
-0.0001166967664
-0.0001087713368
-7.52813028e-06
2.561514703e-05
)


100
(
-0.163242197
-0.07219696217
-0.03742912506
-0.02153994592
-0.02415326658
-0.01738328827
-0.01485997535
-0.01217138719
-0.01094786867
-0.007891096664
-0.008762005035
-0.006118119057
-0.006011854351
-0.005943014681
-0.004261047273
-0.003941596643
-0.004056829331
-0.003039142975
-0.002345672157
-0.002492342643
-0.002076001722
-0.001607999884
-0.001408322592
-0.001375624569
-0.001140507851
-0.0009355646963
-0.0008980414517
-0.0008278745932
-0.0006550176824
-0.0005121850427
-0.0004434162748
-0.0004074261696
-0.0003557692254
-0.0003066400991
-0.000273362774
-0.0002596767165
-0.0001914744576
-0.0001414402826
-9.698633292e-05
-7.252926798e-05
-5.179060916e-05
-3.691069457e-05
-2.411760982e-05
-1.237271294e-05
-8.621618263e-06
-5.894997145e-06
-3.176301487e-06
-2.981423587e-07
9.509583421e-07
5.910456857e-07
-8.935702623e-07
-4.489086251e-06
-1.386028564e-05
-1.718749074e-05
-1.944920358e-05
-2.349733727e-05
-3.507135268e-05
-3.533708364e-05
-3.529551707e-05
-3.889439394e-05
-5.336289567e-05
-5.457058389e-05
-6.561089178e-05
-7.552099443e-05
-7.527709756e-05
-7.512039323e-05
-8.620771916e-05
-9.67830648e-05
-9.287380694e-05
-9.823515262e-05
-0.0001081888622
-0.0001129677213
-0.0001120884224
-0.0001198302657
-0.0001314115373
-0.0001384062598
-0.0001476780637
-0.0001558147323
-0.0001604511513
-0.0001624854011
-0.0001641974728
-0.0001686536065
-0.0001735231865
-0.0001805260445
-0.0001833435595
-0.0001850894221
-0.0001921640958
-0.0001929469699
-0.0002009543083
-0.0002154026273
-0.0002261131286
-0.0002337413721
-0.0002502328826
-0.0002813716429
-0.0002914333994
-0.0003135644765
-0.0003433971633
-0.000337369074
-0.0001392082999
-0.00541575067
)


100
(
-0.1817888691
-0.04341942375
-0.02327069382
-0.02062405882
-0.01852940121
-0.009527391203
-0.01134717981
-0.005914060875
-0.006492749201
-0.00411482396
-0.003706605929
-0.003152899186
-0.002024462255
-0.002137231549
-0.001764385921
-0.001124356657
-0.0009981728804
-0.0009093244316
-0.0005739634217
-0.0003414615599
-0.0003164972242
-0.0002163630524
-0.0001105533859
-4.135907924e-05
-1.637637928e-05
8.524370178e-06
2.625672417e-05
4.082135699e-05
6.689391234e-05
5.611232421e-05
4.417308867e-05
2.616516309e-05
4.145679936e-05
2.421113316e-05
8.212470607e-06
-8.405664785e-06
-5.24456139e-06
-8.2769365e-06
-3.863687321e-05
-7.031093903e-05
-0.0001008142165
-0.0001148188547
-0.000131884546
-0.0001509717882
-0.0001689124944
-0.000194384791
-0.0002001868699
-0.0002052547263
-0.0002123947191
-0.0002476872252
-0.0002423822638
-0.0002503993569
-0.000263731712
-0.0003021106429
-0.0003045992798
-0.0002975928076
-0.0003024608837
-0.0003384126099
-0.0003346052452
-0.0003172317685
-0.0003266089785
-0.0003388509086
-0.0003328262486
-0.0003471372768
-0.0003584827382
-0.0003432282603
-0.0003338634463
-0.0003458865718
-0.0003550707751
-0.000355860521
-0.0003649525815
-0.0003825345801
-0.0003889661471
-0.0004015970921
-0.0004088046242
-0.0004157668795
-0.000441485679
-0.000460067519
-0.0004686493875
-0.0005001874136
-0.0004966778748
-0.0005060758072
-0.0005218546065
-0.00051981775
-0.0005464763528
-0.0005590077781
-0.000586667245
-0.0006267238469
-0.0006386697398
-0.0006851025301
-0.00073469757
-0.0007753200884
-0.0007941484531
-0.0008561583063
-0.000945054894
-0.001020739391
-0.001271563309
-0.00149980634
-0.005602186983
-0.006509181456
)


100
(
-0.1225147765
-0.05170568184
-0.02604376992
-0.02124502495
-0.01059977548
-0.007199559601
-0.005526910542
-0.00365487118
-0.002448332106
-0.001981166959
-0.0008910878793
-0.0008029166593
-0.0004311190018
-0.000174418334
-9.13946206e-05
6.038709461e-05
0.0001543143999
0.000233599369
0.0003205593624
0.0002903153021
0.0002407504968
0.0002930155923
0.0002923484089
0.0002065389923
0.000117245111
0.0001543613205
0.0001175541873
3.672717953e-05
-4.154472846e-05
-2.752180029e-05
-3.856266705e-05
-0.0001216541306
-0.0001995908003
-0.0002511381234
-0.0002294366663
-0.0002669258396
-0.0003063972436
-0.0003782245527
-0.000339779111
-0.0003461531824
-0.0003923623231
-0.0004510614055
-0.000505320854
-0.0004748919595
-0.0004882613461
-0.0005365209076
-0.0006313184154
-0.0006027973591
-0.0005776450743
-0.0006122196732
-0.0006936783988
-0.0006752003176
-0.0006302622106
-0.0006585698817
-0.0007205659567
-0.0007191255527
-0.0006645690193
-0.000693588149
-0.0007426383137
-0.0007385263139
-0.0006983055226
-0.0007058413465
-0.0007159885959
-0.0007164981744
-0.0007283235388
-0.0007428130431
-0.0007475463221
-0.000752403998
-0.0007602586367
-0.0007701259609
-0.0007841937177
-0.0008089764952
-0.0008373712286
-0.0008757037194
-0.000923211108
-0.0009113585197
-0.0009090431175
-0.0009864254738
-0.0009665062555
-0.0009842798927
-0.001057633596
-0.001049393356
-0.001127358848
-0.001171825123
-0.001214261568
-0.001258308252
-0.001277337953
-0.001367652347
-0.001457849377
-0.001571150474
-0.001597952329
-0.001664505194
-0.001773734548
-0.001811121105
-0.001965736046
-0.002199446076
-0.002931301121
-0.005652546779
-0.02439627185
-0.02209552322
)


100
(
-0.09297373958
-0.06034900076
-0.02879758471
-0.013282534
-0.005842559144
-0.005154881916
-0.001783725584
-0.001278012823
-4.73314242e-05
0.0003095347958
0.0007014788225
0.0007875380598
0.000998380436
0.0008899852545
0.0008199821915
0.0009745513803
0.0008812310484
0.0006740986807
0.000685348492
0.0008062259001
0.0005653510127
0.0003533813737
0.0003368867683
0.000371244061
0.0001779297047
3.590822857e-06
-4.837975275e-05
-2.30266705e-05
-0.0001451676921
-0.0002556809141
-0.0003373634461
-0.0002694256202
-0.0003436214777
-0.0004425908106
-0.0006009761362
-0.000545956799
-0.0005265442313
-0.0005731627245
-0.0007763786333
-0.0007400039616
-0.0006840860704
-0.0006732725647
-0.0008254373377
-0.0009013447012
-0.0008562172501
-0.0007755818232
-0.0009111792041
-0.001052500159
-0.001011425495
-0.0009200398021
-0.001001537277
-0.001103613983
-0.001093817049
-0.0010349071
-0.001071864875
-0.00114035625
-0.001146385399
-0.001105845321
-0.0011325746
-0.001186739317
-0.001210315387
-0.001204158359
-0.001217968743
-0.001236366168
-0.001257875637
-0.001285445766
-0.001305334457
-0.001324771633
-0.001341139307
-0.001346904713
-0.001344527803
-0.001354058287
-0.001364554588
-0.001371490221
-0.001442567229
-0.00155641054
-0.001482088468
-0.001548859412
-0.001659723702
-0.001647340972
-0.001748717238
-0.001824617181
-0.001842790128
-0.001981161731
-0.002103206477
-0.002227875446
-0.002287840634
-0.002324903553
-0.002476594622
-0.00262952836
-0.002756581898
-0.002860215731
-0.002927719441
-0.003149599232
-0.003257725247
-0.003827437289
-0.005420647277
-0.01815554845
-0.0366732764
-0.01540332561
)


100
(
-0.1122484792
-0.04017816077
-0.01989687707
-0.007867698527
-0.003814028768
-0.001433130615
0.0005875708237
0.001363173429
0.002054583403
0.002013101308
0.002535127698
0.002117949937
0.002003575887
0.002170243963
0.00167126354
0.001468420307
0.00165686174
0.001398508169
0.001009303032
0.0009265536353
0.001073561095
0.000776212726
0.0004634986942
0.0003096316995
0.0004041020119
0.0001756929337
-6.768666164e-05
-0.0001286685138
-2.906208209e-05
-0.0001113586004
-0.0003095357765
-0.0005104801508
-0.0004317011068
-0.000367616715
-0.0005696162068
-0.0008278111552
-0.0007684359298
-0.0006110066342
-0.0007756402085
-0.001052712983
-0.001025050558
-0.0009292935227
-0.0009125772614
-0.001120488629
-0.001203592105
-0.001096711704
-0.001022062927
-0.001204972811
-0.001370452852
-0.001302543291
-0.001241270314
-0.00134044833
-0.001451288709
-0.001462550853
-0.00142488923
-0.00146224536
-0.001527734137
-0.00154862631
-0.0015479387
-0.00155693739
-0.001594198771
-0.001640219464
-0.001690786343
-0.00173241987
-0.001760197575
-0.001788235321
-0.001819942789
-0.001860453083
-0.001908967948
-0.001953427665
-0.00197881052
-0.001991059591
-0.002012560799
-0.002014550452
-0.001971727361
-0.00208002108
-0.002232504944
-0.002232380954
-0.002334050672
-0.002418688543
-0.00252442852
-0.002660081833
-0.002761250287
-0.002858087662
-0.002982466929
-0.003104921791
-0.003288477669
-0.003350256812
-0.003607906037
-0.003800986546
-0.003886274644
-0.004068723266
-0.004253463507
-0.004490781481
-0.004694399742
-0.005896952105
-0.009480379884
-0.03911788796
-0.03933655765
0.0111813574
)


100
(
-0.1510491715
-0.02960031638
-0.0136299053
-0.005129110463
-0.001660312385
0.00150726829
0.003265203824
0.003375574516
0.00439756615
0.003916119379
0.003803242791
0.004031563659
0.003076296295
0.003038391924
0.003033529376
0.002309388771
0.00202198975
0.002237875505
0.001916316638
0.00139899367
0.001159579287
0.001300097813
0.001027504569
0.0006090881029
0.0002474049889
0.0003512942994
0.0002559437701
-2.784357227e-05
-6.66802514e-05
3.014129952e-05
0.0001108978169
-0.0003873887882
-0.0005979257523
-0.0005095812095
-0.0002777243846
-0.0007010712687
-0.0009844113978
-0.0008969195541
-0.0005747000953
-0.0009036870781
-0.00123367265
-0.001207692963
-0.001005060407
-0.001088585192
-0.001340006627
-0.001421445568
-0.001282198651
-0.001228468668
-0.00144743915
-0.001596178883
-0.001573654253
-0.001526733518
-0.001600855286
-0.001688300487
-0.001746321679
-0.001784893998
-0.001796889942
-0.001813447156
-0.001860251758
-0.001909420982
-0.001939171811
-0.001936639809
-0.001972377944
-0.002037513421
-0.002121257314
-0.002193584158
-0.002264289866
-0.002321187778
-0.002397171595
-0.002479491044
-0.002570631489
-0.002623545625
-0.002664638144
-0.002724161551
-0.002807793781
-0.00277074207
-0.002905526147
-0.003002925312
-0.003120442331
-0.003183087125
-0.003304142322
-0.003413438536
-0.00356155186
-0.003695074513
-0.003866462611
-0.004063167535
-0.004204838327
-0.00428419502
-0.004417052654
-0.00484824213
-0.005094551515
-0.005207993008
-0.005473878256
-0.005713241094
-0.006148936931
-0.008362765147
-0.01615619845
-0.06604863144
-0.03204015424
0.07367921291
)


100
(
-0.1243368541
-0.02302579175
-0.01065638673
-0.003417431009
0.001508495718
0.004211119291
0.005566618796
0.005999556747
0.005955538175
0.006577144125
0.005005680078
0.005289274834
0.004961498311
0.00375640967
0.003865472513
0.003696549662
0.002825712853
0.002431933645
0.002661797829
0.002299907647
0.00163311209
0.00115025283
0.001296629029
0.001190053163
0.0007413177484
0.000294300489
0.0002961889449
0.0001832865801
-0.0001328589723
-0.0001290739565
6.965170574e-05
0.000190322111
-0.0005380534267
-0.0007423656221
-0.0005161601834
-0.0003463615245
-0.0008796973424
-0.00117920712
-0.0009049711211
-0.0007073226979
-0.001079269965
-0.001451115649
-0.001344438548
-0.001231902068
-0.001344487062
-0.001612744358
-0.001656834056
-0.001558287683
-0.001487059404
-0.001661527354
-0.00173573386
-0.001828734838
-0.001854336731
-0.001848009463
-0.001895208485
-0.001998927781
-0.002109143004
-0.002165701504
-0.002172812709
-0.002215366202
-0.002278011052
-0.002365363133
-0.002433970283
-0.002477124848
-0.002529846414
-0.002608896477
-0.002737469043
-0.002844688337
-0.00291592501
-0.002976541786
-0.003057345438
-0.003206129834
-0.00332339277
-0.003420169938
-0.003537794784
-0.003661631054
-0.00372494451
-0.003815709623
-0.003978699283
-0.004093170664
-0.0042020848
-0.004364344083
-0.004469695837
-0.004700680182
-0.004874957824
-0.005075021239
-0.005295515142
-0.005468552858
-0.005536299043
-0.005872408058
-0.006254389539
-0.006448742362
-0.006827217291
-0.007086649405
-0.007625463382
-0.01123737136
-0.02764058025
-0.09258653221
-0.01045815939
0.1520806851
)


100
(
-0.08638683844
-0.02699812309
-0.01040862711
-0.0008214389925
0.00408960758
0.007436922088
0.007231568624
0.009226221091
0.007289123319
0.007989868329
0.007441847015
0.005806357981
0.006379212295
0.00550169879
0.004178541157
0.004400797638
0.004111806586
0.003091239428
0.002436332767
0.002619346242
0.002409185653
0.001727980095
0.001033322477
0.00121198627
0.001379524663
0.0008705886812
0.0003648951934
0.0001212240573
-5.966958297e-05
-0.0003857129442
-0.0003463985706
0.000231472777
-5.484448501e-05
-0.0008345542632
-0.0010262427
-0.0005339252839
-0.0006260666366
-0.001210400064
-0.001472020278
-0.001154416819
-0.00104157181
-0.001420018765
-0.001753285169
-0.001710281675
-0.001609987719
-0.001677653788
-0.001831397896
-0.001916608033
-0.001973476608
-0.001917714418
-0.001917631031
-0.002012503059
-0.002172891868
-0.002311909562
-0.002355970547
-0.002316535719
-0.002410009971
-0.002544684361
-0.002682095495
-0.002791595394
-0.002855749221
-0.002927115863
-0.003018899031
-0.003160511441
-0.003284635359
-0.003332234631
-0.003338378888
-0.003430599583
-0.003581942851
-0.003764082348
-0.003880011044
-0.003993474552
-0.004171079303
-0.004338186482
-0.004473941643
-0.004630187244
-0.004818167049
-0.004978387676
-0.005136097132
-0.005349394283
-0.005438418277
-0.005667547563
-0.00584840209
-0.006017805005
-0.006235942897
-0.006465084191
-0.006710622359
-0.00692228791
-0.007119591919
-0.00743492798
-0.007812611871
-0.008153814142
-0.008335249298
-0.008843044269
-0.01018564453
-0.01484951714
-0.04445145035
-0.1175594337
0.02418014253
0.2710476323
)


100
(
-0.06732487028
-0.02878648361
-0.008355897901
0.001918343553
0.006926719686
0.009555429907
0.009693242821
0.01038230419
0.01025878232
0.008623272951
0.00956141852
0.007783118456
0.006590036694
0.00707846417
0.005767117235
0.00423633339
0.004419439235
0.004101967645
0.003050330423
0.002244186134
0.00249964704
0.002557516877
0.001809592515
0.001054346861
0.0009643720668
0.001241349772
0.0008906984945
0.0003326423547
-0.0001565890483
-0.000456421455
-0.0007863427044
-0.0005725747306
2.551684941e-05
-0.0004668814291
-0.001294063106
-0.001273215934
-0.0009670599688
-0.001098856435
-0.001708823265
-0.001823794745
-0.001660821483
-0.001518321308
-0.001821040436
-0.001971934315
-0.002139030282
-0.002131435442
-0.002082976973
-0.00216416606
-0.002323953168
-0.00250883298
-0.002657790916
-0.002550810983
-0.002556456759
-0.002712547403
-0.002884009055
-0.003031527973
-0.00318236589
-0.003215201585
-0.003325794005
-0.003465765852
-0.003693619928
-0.003861075503
-0.003903141679
-0.003935483639
-0.004060046533
-0.00421561248
-0.004387270809
-0.004505837672
-0.004595669149
-0.004759169043
-0.005010078782
-0.00518597379
-0.005313882902
-0.005488963463
-0.005774062951
-0.006012244423
-0.006272639973
-0.006548439229
-0.006677058289
-0.006918171189
-0.007192660345
-0.00740404003
-0.007717807317
-0.007856120421
-0.008145630165
-0.008372317086
-0.008757443945
-0.009077207989
-0.009397337954
-0.009743156867
-0.01010153078
-0.0105004435
-0.01080587381
-0.01125370974
-0.01327051704
-0.02107205234
-0.06896553339
-0.1428909738
0.07614428419
0.3869771734
)


100
(
-0.06839953425
-0.02387913555
-0.005469948227
0.004381139819
0.01028051784
0.01078600492
0.01340983506
0.01114506209
0.01307127152
0.01063604245
0.009969948158
0.01058204893
0.008028335855
0.007073562305
0.007401677284
0.005738715131
0.004139354201
0.004398745982
0.004324227525
0.003269437636
0.002151865055
0.002385227595
0.002777366836
0.001938390161
0.001135082041
0.0007031921753
0.001010064714
0.0009787516972
0.0003675063323
-0.0001764598767
-0.0008896564108
-0.001216886629
-0.0005378373388
-0.0003432194671
-0.0009076686564
-0.001744205586
-0.001616614579
-0.001458670502
-0.001532351539
-0.001939817517
-0.002123889058
-0.002109096589
-0.001977609833
-0.002020710908
-0.002211505257
-0.002504997598
-0.002745413229
-0.002723415766
-0.002617957614
-0.002784221187
-0.003014472335
-0.003221754703
-0.003302494981
-0.003356633405
-0.003427451973
-0.003595223642
-0.0037923286
-0.004103428363
-0.004314478565
-0.004315647715
-0.004338231499
-0.004556261176
-0.004777995137
-0.004936972805
-0.005094141347
-0.005222387997
-0.005384039602
-0.005671764435
-0.005916055884
-0.005999988121
-0.006089011983
-0.006333695657
-0.006705844339
-0.006946919403
-0.007239590218
-0.007536403991
-0.007703236167
-0.008003662663
-0.008443576467
-0.008748409033
-0.009119581843
-0.009373675868
-0.00963587215
-0.009973165213
-0.01033239719
-0.01067197979
-0.01101634379
-0.0114704616
-0.01192556927
-0.01244854127
-0.01293751828
-0.01331575269
-0.01353223072
-0.01432453653
-0.01721576195
-0.02957022606
-0.1045540485
-0.167470345
0.1230026208
0.5043091148
)


100
(
-0.08584398001
-0.02036392625
-0.002597358333
0.007133632181
0.01206907707
0.01312097775
0.01540998904
0.01437318396
0.01383885175
0.01441144586
0.01107681172
0.01131171644
0.0109977293
0.008277961998
0.007463640415
0.00799437362
0.006302724429
0.004602905918
0.004748901003
0.004968045337
0.003788361349
0.002622719798
0.002525566811
0.002976780564
0.002431222814
0.001563164907
0.0007900798019
0.001023290457
0.001344946615
0.0007544101329
0.0001380616474
-0.0009607310367
-0.001225368514
-0.0006818761933
-0.0005081997906
-0.001082514037
-0.001536728926
-0.001741094461
-0.001543028482
-0.001505515039
-0.001711699173
-0.002038347411
-0.002382782518
-0.002393344934
-0.002183789305
-0.002275451721
-0.002604644801
-0.002934364819
-0.003132858919
-0.003097073517
-0.00300568112
-0.003286397843
-0.003527563561
-0.003779083396
-0.004123958674
-0.004183040193
-0.004098258812
-0.004263912549
-0.0045912992
-0.0049234219
-0.00503180954
-0.005054520083
-0.005274111202
-0.005514056397
-0.005829200513
-0.006214105881
-0.006263541155
-0.006316675776
-0.006588801032
-0.006906342655
-0.007292152271
-0.00752219505
-0.00783212152
-0.008160983082
-0.008330382577
-0.008558604127
-0.008975852651
-0.009287848699
-0.009776111686
-0.01021853513
-0.01043060551
-0.01092714653
-0.01134130229
-0.01185142452
-0.01208833865
-0.01251977401
-0.01298698715
-0.01334027772
-0.01378957357
-0.01461668067
-0.0151238067
-0.01531482445
-0.01559028566
-0.01633145672
-0.02260434228
-0.04302702104
-0.1519583304
-0.1935446997
0.2027931214
0.6640071698
)


100
(
-0.08050602253
-0.01883532497
-0.001404158877
0.009627408268
0.01317541621
0.01746611422
0.01644764727
0.01923889065
0.01526561094
0.01634916124
0.01520524765
0.01185126518
0.01257254722
0.01168280058
0.009055966576
0.008505482292
0.009249815098
0.007459593396
0.005585761419
0.005484845019
0.006201878851
0.004843477637
0.003594235501
0.003076511035
0.003586415776
0.003495639923
0.00251402146
0.001691158174
0.001406292462
0.001766664729
0.001671174614
0.0009924142015
-0.0003868047616
-0.0006647101136
-0.0003507026385
-5.43567809e-06
-0.0003118728666
-0.0006143640889
-0.001174717771
-0.001385589755
-0.001126064146
-0.001136405334
-0.001534250757
-0.001975422033
-0.002344317229
-0.002185348595
-0.001993624242
-0.002202227533
-0.002553913395
-0.002851863721
-0.003205945803
-0.00330279771
-0.003280686064
-0.003323812109
-0.003648280657
-0.004095182781
-0.0044338905
-0.004255014578
-0.004195019675
-0.004501143677
-0.004893530013
-0.005219620229
-0.005504936603
-0.005616874348
-0.005670323765
-0.00606490948
-0.006491902783
-0.006567347072
-0.00680374743
-0.007175272505
-0.007582951067
-0.007968405124
-0.008122774165
-0.008287536421
-0.008599346965
-0.009139442436
-0.009656212088
-0.01008547624
-0.01015465629
-0.01051760911
-0.01113879212
-0.0116505935
-0.01219002971
-0.01238464312
-0.01306360242
-0.01361297545
-0.01393900543
-0.0145664755
-0.01545117672
-0.01564697519
-0.01688417153
-0.01664742115
-0.01773003098
-0.01916917686
-0.02745411027
-0.07332830141
-0.2032811452
-0.2086104645
0.2921643621
0.8896668052
)


100
(
-0.06352668422
-0.02186879366
-0.001003943704
0.01041394218
0.01561105823
0.02043073734
0.01910746055
0.0207507355
0.0202919391
0.01739381578
0.01890247749
0.01595046131
0.01338837414
0.01423656674
0.01312269598
0.01030471812
0.009797309814
0.01077475329
0.008981313814
0.006999029082
0.006547207628
0.007358399867
0.0063488899
0.005009676297
0.003875043715
0.004457330211
0.004921666191
0.003931882577
0.003048853842
0.002343081538
0.002453799246
0.002802857322
0.00217897649
0.001186252567
0.0008020574304
0.0004593157532
0.0007048640757
0.0009800587932
0.0005094068756
-0.0001734093108
-0.0008052743859
-0.0007456713248
-0.0002715234415
-0.0005773111371
-0.0010715205
-0.001476222754
-0.001707148903
-0.001751318652
-0.001629379918
-0.001821178473
-0.002114458152
-0.002664066108
-0.003215023227
-0.003014277297
-0.002594218029
-0.002961539691
-0.003481382239
-0.00382486429
-0.004146463823
-0.004079821342
-0.004044805109
-0.004277303198
-0.004863638587
-0.005433361761
-0.005326213942
-0.005250035109
-0.005811674645
-0.006392186127
-0.006719517325
-0.007035227097
-0.00709380472
-0.007264888976
-0.007452401988
-0.007910232614
-0.008400921936
-0.008985591585
-0.009332037606
-0.009618707126
-0.009823990285
-0.01040041913
-0.01113165498
-0.01153900537
-0.01180351586
-0.01244119063
-0.01313802697
-0.01362236696
-0.01423158495
-0.01486818891
-0.0152852684
-0.01606468968
-0.0166136868
-0.01577347429
-0.0185300256
-0.02193367183
-0.0325128816
-0.116339442
-0.2511304287
-0.2295581152
0.453263514
1.175559722
)


100
(
-0.05291584803
-0.02252970073
-0.0002466090264
0.01130658536
0.01954673411
0.02089543888
0.02427165236
0.02146181584
0.02476981972
0.02114053778
0.01965869408
0.02104077684
0.01705261359
0.01499855297
0.01602523942
0.01470590879
0.01172531929
0.01099432393
0.01222731773
0.01064130294
0.008569639225
0.007545909914
0.008453377118
0.008019310587
0.006572204105
0.005412913447
0.005268376877
0.0058035781
0.005618889854
0.004597536963
0.003836056831
0.002942066277
0.003219796294
0.00358334644
0.002917607227
0.002204935598
0.001283478826
0.001127633749
0.001754162845
0.001803605227
0.00100694065
0.0002798326473
-0.0001751193322
7.815639951e-05
0.0003988257125
9.54365796e-06
-0.0004482200721
-0.0008235991723
-0.001680113041
-0.001558565821
-0.00108143632
-0.001128890976
-0.001858583139
-0.002574693146
-0.002851242053
-0.002432770311
-0.002200330053
-0.002691760062
-0.002946402214
-0.00388445374
-0.004086406796
-0.003653320404
-0.003668729368
-0.004390725639
-0.004968117961
-0.005368650658
-0.005603817807
-0.006034394983
-0.006226264519
-0.006389928877
-0.006484920507
-0.006567726612
-0.007242937775
-0.007833822172
-0.008388711887
-0.008494935087
-0.008678044654
-0.009089587013
-0.009937518203
-0.01055988487
-0.0108045154
-0.01099032132
-0.01168471879
-0.01269130072
-0.01301192982
-0.01355194821
-0.01456756741
-0.01542158854
-0.01583106024
-0.01606442559
-0.01739280835
-0.01654167535
-0.01656539249
-0.02048368682
-0.03752966433
-0.1594345009
-0.2875111237
-0.2631523464
0.5845590435
1.539179828
)


100
(
-0.0564662614
-0.02109869329
0.000501468544
0.01320555794
0.02159239882
0.0222159343
0.02682578807
0.02522650544
0.02521048119
0.02669431466
0.02154166238
0.02150122341
0.02215251483
0.01811464374
0.01635078082
0.01768047574
0.01628658042
0.0131548401
0.01206051357
0.01341503395
0.01230013236
0.01014193542
0.008338903462
0.009267886046
0.009877416985
0.008133373357
0.006964317281
0.005853867151
0.006419946458
0.006865062802
0.005932658383
0.00501335549
0.003858792414
0.003504049845
0.004074501731
0.004444098811
0.003490073146
0.002485619336
0.00150290023
0.001984907758
0.002627715684
0.002189956596
0.001362937247
0.0009393156308
0.0003282770925
0.0002987742574
0.0005575839539
0.0004937944266
-2.085239601e-05
-0.00095913195
-0.001828019536
-0.001073888873
-0.0004924195914
-0.001262214176
-0.00196712128
-0.002246746197
-0.002746277292
-0.00253498661
-0.00195887014
-0.002514929016
-0.003648860585
-0.004515449936
-0.003849085695
-0.003645114778
-0.004600142491
-0.005239061247
-0.005618667268
-0.005670710799
-0.005780196455
-0.005975650059
-0.006307426337
-0.007135183734
-0.007795133527
-0.00813609484
-0.008258732669
-0.008437971605
-0.00892516489
-0.009785721581
-0.01063953775
-0.01093789793
-0.01099298136
-0.01183974363
-0.01268688318
-0.01304256081
-0.01351865761
-0.01577316841
-0.01646305516
-0.01631526492
-0.01783720803
-0.01845277784
-0.02003778174
-0.02622058765
-0.02064177499
-0.02545750664
-0.04088122415
-0.2020557302
-0.3183116796
-0.2995392636
0.7165861694
1.850323375
)


100
(
-0.06623073895
-0.01929406946
0.001345782396
0.01535179887
0.02120592424
0.02655148337
0.02678928792
0.0307029259
0.02607506095
0.02783695324
0.02702379183
0.02200283854
0.0231816051
0.02330416751
0.01912324096
0.01745949134
0.0190737619
0.01773283538
0.0146451238
0.01293304052
0.01436033032
0.01401663825
0.01171918231
0.01002744371
0.009851895317
0.010609554
0.009771138355
0.008531281092
0.00737223921
0.006450150631
0.006945768472
0.007505020775
0.006456888492
0.005126007426
0.003661445262
0.00423546084
0.00533942351
0.004795652421
0.00363881558
0.002669782151
0.002047623136
0.002542655937
0.003006030603
0.00243343731
0.001909322979
0.001015808708
-0.0001802282113
0.0002094962765
0.001379738592
0.0006571334149
-0.00040855255
-0.001353309583
-0.001485815045
-0.001040648862
-0.0007448447079
-0.001253608333
-0.001986824783
-0.003304633616
-0.003358872901
-0.002062037119
-0.002647954588
-0.003857487445
-0.004650113534
-0.005077093251
-0.005576071119
-0.005420932715
-0.005478670507
-0.005670398116
-0.005730896854
-0.006092149644
-0.00701309711
-0.00797867254
-0.00829158938
-0.008604103281
-0.008834237979
-0.009653657938
-0.01054050349
-0.01116476601
-0.01130848516
-0.01168913226
-0.01225738353
-0.01396046075
-0.01451593735
-0.01464192944
-0.01606396596
-0.01688961609
-0.01807226025
-0.0190099499
-0.01872184285
-0.02095751686
-0.02028373291
-0.02543395429
-0.02751539187
-0.03144888936
-0.05728605608
-0.24922548
-0.3498279806
-0.3122819888
0.831390165
2.018468125
)


100
(
-0.06165727
-0.02036264065
0.00157724331
0.01561181687
0.02156249758
0.02960770676
0.02825007837
0.03147796894
0.03151719283
0.02773906154
0.03018845851
0.0279340231
0.02328994831
0.0249963649
0.02479465868
0.02052102028
0.01854163962
0.02049665787
0.01959515562
0.0164909054
0.01387593685
0.01530465296
0.01633515309
0.0136360478
0.01195548277
0.01048428554
0.01126606233
0.011873809
0.01006855596
0.008979810318
0.006899070174
0.007258609135
0.008393330923
0.008236247707
0.006614197812
0.005113766189
0.004311147136
0.005512948151
0.006196135869
0.005127613904
0.004121406088
0.003540685725
0.002302408618
0.002739627761
0.003483529911
0.003349026993
0.002077366956
0.000660746621
-0.0001194155181
0.001144585075
0.001612822747
0.0003712414395
-0.0002803018949
-0.0009988037518
-0.001597598683
-0.001200783022
-0.000240637071
-0.001692595082
-0.003332396685
-0.003932078916
-0.003073033788
-0.003090948367
-0.004393797774
-0.005039912252
-0.005195547366
-0.005330231656
-0.005474049708
-0.005712322871
-0.006528321334
-0.007803572246
-0.008505245098
-0.008245193375
-0.008370989334
-0.008695740684
-0.009547121446
-0.01058605994
-0.01169939274
-0.01244757017
-0.01294151336
-0.01335170858
-0.01437048602
-0.01465523324
-0.01589309559
-0.01733332924
-0.01888748435
-0.01781144501
-0.01883717986
-0.02167429547
-0.02417181588
-0.02334711977
-0.02448010061
-0.02125546959
-0.02588792157
-0.03484856785
-0.06498223406
-0.3054677883
-0.384417671
-0.3180235107
0.9075292296
2.215222619
)


100
(
-0.0532128155
-0.022890881
0.001238909362
0.01514608567
0.02466223937
0.02902568518
0.03323504035
0.03134650505
0.03583450966
0.03232173276
0.03065501795
0.03349273368
0.02938939272
0.0252458035
0.02724668847
0.02691061593
0.02254408572
0.02010899247
0.02224287743
0.02210073296
0.01872293713
0.0164617993
0.01654224745
0.01768707488
0.01626321034
0.01450042958
0.01279923065
0.01182697624
0.01267819644
0.01267063988
0.01127065092
0.009230475345
0.007752470987
0.009137162498
0.01069453851
0.008721713468
0.00709434095
0.006011009256
0.00592015242
0.006610699299
0.007321863972
0.006209357371
0.005586216931
0.003672350077
0.002764284148
0.003917134279
0.005566161633
0.003725669305
0.002123268555
0.001209470328
0.001046805654
0.001760753289
0.00224650867
0.001851772758
0.0001335940523
-0.001895312734
-0.001113674967
0.0003454215169
-0.0009575707237
-0.002732101804
-0.003423993495
-0.003890221571