/*--------------------------------*- C++ -*----------------------------------*\
| =========                 |                                                 |
| \\      /  F ield         | OpenFOAM: The Open Source CFD Toolbox           |
|  \\    /   O peration     | Version:  2.3.1                                 |
|   \\  /    A nd           | Web:      www.OpenFOAM.org                      |
|    \\/     M anipulation  |                                                 |
\*---------------------------------------------------------------------------*/
FoamFile
{
    version     2.0;
    format      ascii;
    class       dictionary;
    location    "constant";
    object      PM14;
}
// * * * * * * * * * * * * * * * * * * * * * * * * * * * * * * * * * * * * * //

PM14_table
100
(

100
(
0.02203435368
0.0062462952
0.002006108894
0.0009107318915
0.0008003338381
0.0004395109739
0.000261100961
0.0002130683074
0.0001564169993
9.553934551e-05
0.0001184938729
4.519550636e-05
3.932079844e-05
4.24867456e-05
2.106636656e-05
1.900686892e-05
2.411757103e-05
1.177473417e-05
1.085334382e-05
1.3961033e-05
9.135092438e-06
6.968091868e-06
7.611340524e-06
8.001824894e-06
4.541499359e-06
4.448856342e-06
5.15158277e-06
4.826285411e-06
2.944864871e-06
3.069408719e-06
3.633212206e-06
2.951698938e-06
1.936993488e-06
2.000420178e-06
2.270257663e-06
2.291492422e-06
1.467112335e-06
1.24442402e-06
1.441255449e-06
1.448382876e-06
9.560047205e-07
7.329343575e-07
8.486643163e-07
8.432821698e-07
5.828114065e-07
4.300350345e-07
4.903770764e-07
5.709337515e-07
3.549330725e-07
2.047039878e-07
1.816424397e-07
2.188118345e-07
1.330389834e-07
6.488148867e-08
5.170355556e-08
6.232716711e-08
3.927342501e-08
2.353903028e-08
3.667982796e-08
6.184126568e-08
4.010904252e-08
-6.706849858e-08
-6.266497818e-08
-3.77361036e-08
-6.346579171e-08
-1.284995489e-07
-1.097656762e-07
-1.004630189e-07
-1.394543427e-07
-1.450818661e-07
-1.264225958e-07
-1.325571633e-07
-1.503145026e-07
-1.441209276e-07
-1.945698287e-07
-2.429833528e-07
-1.753078729e-07
-1.770919172e-07
-1.979877258e-07
-1.310163617e-07
-1.565756989e-07
-1.346435535e-07
-1.086330243e-07
-1.398535138e-07
-9.920691653e-08
-1.008983355e-07
-1.37084845e-07
-7.768306249e-08
-1.21343237e-07
-7.882093941e-08
-9.062085054e-08
-7.530019275e-08
-1.055810471e-07
-1.028784471e-07
-1.277213268e-07
-1.131294679e-07
-1.224642833e-07
-1.132938164e-07
-5.233508854e-09
8.043493657e-09
)


100
(
0.03268764547
0.004125808313
0.001587159289
0.0008697969691
0.0008382795281
0.0004355219864
0.0003376664168
0.0002301695714
0.0001912151757
0.0001168780002
0.0001226757359
6.577615286e-05
5.538074089e-05
5.299861846e-05
3.371659505e-05
2.947179757e-05
3.078043536e-05
2.113782327e-05
1.685241034e-05
1.824299211e-05
1.456837238e-05
1.125571613e-05
1.032216781e-05
1.020285309e-05
7.8737399e-06
6.500275158e-06
6.450625329e-06
6.042972298e-06
4.751471087e-06
3.908262206e-06
3.689442819e-06
3.321646002e-06
2.75721546e-06
2.387489515e-06
2.261525752e-06
2.255933185e-06
1.750568486e-06
1.418002998e-06
1.150430548e-06
1.010342396e-06
7.95167009e-07
6.513991618e-07
5.409325661e-07
3.859398094e-07
3.208583459e-07
2.768048047e-07
2.471330354e-07
2.137482822e-07
8.272518901e-08
2.384400749e-08
-2.284395986e-08
-8.364249434e-08
-2.076879556e-07
-2.220917024e-07
-2.264835895e-07
-2.4767772e-07
-3.342684145e-07
-3.030285678e-07
-2.787152257e-07
-2.863138886e-07
-3.879043705e-07
-4.025166221e-07
-4.438902145e-07
-4.310297296e-07
-3.893000918e-07
-3.78632236e-07
-3.962837753e-07
-3.92931903e-07
-3.594525411e-07
-3.606657048e-07
-3.514057456e-07
-3.338043048e-07
-3.120543977e-07
-2.789462698e-07
-2.77489908e-07
-4.044223532e-07
-5.127532407e-07
-4.60180581e-07
-4.787690766e-07
-4.357064428e-07
-4.022754568e-07
-5.143449539e-07
-3.922130271e-07
-5.178803875e-07
-5.009630293e-07
-3.983243028e-07
-4.63621162e-07
-4.237681799e-07
-4.123583119e-07
-4.981001775e-07
-5.400245415e-07
-5.64051426e-07
-6.213133689e-07
-8.839296341e-07
-8.286443354e-07
-8.904571016e-07
-1.023147747e-06
-7.880962002e-07
-2.156292648e-07
-3.650405425e-06
)


100
(
0.03345726775
0.00351496258
0.00159277682
0.001265252176
0.0009948606087
0.0005058728269
0.0004875508412
0.0002694732699
0.0002562508324
0.0001638104817
0.0001376337475
0.0001069411465
6.8663956e-05
6.606526132e-05
5.395043646e-05
3.734446493e-05
3.449736996e-05
3.26655855e-05
2.32367073e-05
1.714991625e-05
1.790717267e-05
1.458453e-05
1.058880976e-05
8.245810451e-06
8.992071876e-06
6.544439514e-06
4.78027411e-06
3.785095175e-06
4.456939389e-06
2.929725014e-06
1.778166752e-06
8.340083991e-07
1.137483414e-06
5.997866952e-07
1.830163893e-07
-1.686100374e-07
-9.458379368e-08
-1.361195465e-07
-5.830986982e-07
-9.696695024e-07
-1.277464862e-06
-1.362727153e-06
-1.49350389e-06
-1.656463085e-06
-1.796263481e-06
-2.029877647e-06
-2.032847221e-06
-2.044026582e-06
-2.042011619e-06
-2.309251324e-06
-2.167407804e-06
-2.186547734e-06
-2.221607146e-06
-2.438866918e-06
-2.340829386e-06
-2.217415721e-06
-2.172961525e-06
-2.318118793e-06
-2.130456662e-06
-1.828867288e-06
-1.671076222e-06
-1.70183279e-06
-1.742295717e-06
-1.741162087e-06
-1.576097827e-06
-1.406891382e-06
-1.327193479e-06
-1.263783407e-06
-1.220653629e-06
-1.291268037e-06
-1.410820208e-06
-1.566172472e-06
-1.795902355e-06
-2.038667134e-06
-1.745764076e-06
-1.711288078e-06
-2.55254394e-06
-2.364747977e-06
-1.955927233e-06
-2.616976854e-06
-2.329792925e-06
-2.237214342e-06
-2.375579079e-06
-2.100199085e-06
-2.27449174e-06
-2.324213769e-06
-2.476626281e-06
-2.893524124e-06
-2.894212282e-06
-3.440506434e-06
-4.012439747e-06
-4.241161729e-06
-4.643339985e-06
-4.905932211e-06
-6.01826629e-06
-6.792297766e-06
-8.059957993e-06
-7.015110505e-06
-1.541714119e-05
-1.7188302e-05
)


100
(
0.02277537431
0.004631003538
0.002256908265
0.001807491745
0.0009833310117
0.0007020597403
0.0005182619331
0.0003797078775
0.000275180044
0.0002329413197
0.0001446157473
0.0001320177025
9.487122939e-05
6.600376461e-05
6.357913342e-05
4.944367137e-05
3.351456807e-05
3.037961998e-05
2.942717602e-05
1.99025998e-05
1.299166127e-05
1.310501737e-05
1.120719603e-05
6.881690787e-06
3.484484042e-06
4.177854762e-06
2.960746056e-06
8.604577364e-07
-9.127879609e-07
-5.664289765e-07
-7.483218017e-07
-2.229788084e-06
-3.472129333e-06
-4.20889387e-06
-3.689186942e-06
-4.183926732e-06
-4.696097203e-06
-5.757706762e-06
-5.058092288e-06
-5.106967e-06
-5.711259403e-06
-6.380445403e-06
-6.917208646e-06
-6.271028275e-06
-6.292794073e-06
-6.700616096e-06
-7.684493073e-06
-7.049474212e-06
-6.586472934e-06
-6.737004039e-06
-7.300036721e-06
-6.753433724e-06
-6.066164214e-06
-6.050341778e-06
-6.210879328e-06
-5.820325602e-06
-5.123734192e-06
-5.173960188e-06
-5.297793626e-06
-4.964328261e-06
-4.272050036e-06
-3.919626916e-06
-3.895546244e-06
-4.130855647e-06
-4.412566387e-06
-4.640705236e-06
-4.77836191e-06
-4.78822669e-06
-4.72613016e-06
-4.733868202e-06
-4.746583044e-06
-4.743342721e-06
-5.128038439e-06
-6.750189241e-06
-8.279622682e-06
-6.800999444e-06
-6.224467966e-06
-7.996616668e-06
-7.037798285e-06
-6.569041906e-06
-7.441672585e-06
-6.996563522e-06
-8.547586565e-06
-9.589826046e-06
-9.789711223e-06
-1.008889536e-05
-9.926074152e-06
-1.133579222e-05
-1.310224351e-05
-1.685915931e-05
-1.671915964e-05
-1.682035543e-05
-2.004292816e-05
-2.070825813e-05
-2.386299604e-05
-2.894759333e-05
-3.495219931e-05
-4.395271557e-05
-0.0001447567782
-0.0001797672984
)


100
(
0.0173636214
0.005725500813
0.00303856124
0.001781003068
0.001052532923
0.0009832384031
0.0005510681269
0.0005235247705
0.0003139776297
0.0002717844524
0.0002002566653
0.0001390937294
0.0001300783388
8.601259486e-05
6.310785928e-05
6.149005318e-05
4.648489477e-05
3.06791356e-05
2.731643859e-05
2.848345874e-05
1.8180439e-05
1.049631537e-05
9.255721701e-06
9.488839378e-06
4.329514735e-06
8.54394389e-08
-1.13975433e-06
-5.347075576e-07
-3.310590314e-06
-5.699818345e-06
-7.397261548e-06
-5.746398054e-06
-7.172781845e-06
-9.006956639e-06
-1.207245858e-05
-1.058765957e-05
-9.978296144e-06
-1.057810935e-05
-1.423487727e-05
-1.313031011e-05
-1.195568511e-05
-1.149773875e-05
-1.361744054e-05
-1.410187837e-05
-1.273875128e-05
-1.096129126e-05
-1.227246111e-05
-1.341618775e-05
-1.212502484e-05
-1.047075316e-05
-1.085814515e-05
-1.128255249e-05
-1.062753403e-05
-9.706971157e-06
-9.747150013e-06
-9.944168331e-06
-9.599619218e-06
-9.28005633e-06
-9.924173859e-06
-1.097578443e-05
-1.161647598e-05
-1.160544494e-05
-1.154152302e-05
-1.158590515e-05
-1.163806861e-05
-1.173073648e-05
-1.197370737e-05
-1.217685249e-05
-1.200652936e-05
-1.168910596e-05
-1.168670693e-05
-1.193108495e-05
-1.173367873e-05
-1.174665525e-05
-1.444437236e-05
-1.773488664e-05
-1.486627177e-05
-1.49388924e-05
-1.734708344e-05
-1.81489272e-05
-2.097280789e-05
-2.209601071e-05
-2.114665414e-05
-2.392746102e-05
-2.734034218e-05
-3.111049762e-05
-3.165359756e-05
-3.195331535e-05
-3.889301079e-05
-4.288987696e-05
-4.702214343e-05
-5.197636189e-05
-5.360997544e-05
-6.302818028e-05
-6.82627112e-05
-8.446380113e-05
-0.0001018999945
-0.0002196264097
-0.0004144098031
-0.0004509694784
)


100
(
0.01499940259
0.004770299162
0.00288132942
0.001782227023
0.001438677488
0.001053667055
0.0007259777306
0.000567643719
0.0004464321075
0.0002980243989
0.0002827458967
0.0001841327407
0.0001439403484
0.0001300770005
8.660398067e-05
6.717367432e-05
6.714823172e-05
5.17344548e-05
3.502461303e-05
3.024984317e-05
3.279821477e-05
2.266080593e-05
1.312016216e-05
8.520171348e-06
1.065997127e-05
4.556394882e-06
-1.781722221e-06
-3.463477616e-06
-7.87166343e-07
-2.988360949e-06
-8.148899273e-06
-1.322684609e-05
-1.083761959e-05
-8.969837167e-06
-1.35301449e-05
-1.911914436e-05
-1.690338355e-05
-1.28063905e-05
-1.559272458e-05
-2.030960452e-05
-1.8630666e-05
-1.621861515e-05
-1.527054983e-05
-1.792736699e-05
-1.820510543e-05
-1.568096454e-05
-1.392856887e-05
-1.583463964e-05
-1.74640551e-05
-1.584440544e-05
-1.471035733e-05
-1.560071711e-05
-1.6793806e-05
-1.721908331e-05
-1.731638548e-05
-1.843455958e-05
-1.960254609e-05
-1.983567754e-05
-1.97868395e-05
-2.014565381e-05
-2.112437455e-05
-2.186020277e-05
-2.210818378e-05
-2.228552522e-05
-2.225569841e-05
-2.197090612e-05
-2.205071556e-05
-2.335827284e-05
-2.532280925e-05
-2.666636428e-05
-2.743447917e-05
-2.765546314e-05
-2.751702175e-05
-2.667408834e-05
-2.489648631e-05
-2.8214565e-05
-3.475544187e-05
-3.608670149e-05
-3.837483526e-05
-3.97752263e-05
-4.193909233e-05
-4.642709055e-05
-5.091715622e-05
-5.497755327e-05
-5.811771668e-05
-6.249586337e-05
-7.186791955e-05
-7.323630926e-05
-9.098482227e-05
-0.0001042388211
-0.0001011020488
-0.0001096949465
-0.0001219810456
-0.000138213472
-0.0001570537271
-0.0001961294718
-0.0002531814777
-0.0006420617891
-0.0007735991762
-0.0008002566387
)


100
(
0.01335475913
0.004121860768
0.002744490062
0.002129941784
0.001934063942
0.001112061452
0.001015141068
0.0006165707245
0.0005842226838
0.0003984075001
0.0003189650979
0.000279047627
0.0001850570031
0.0001603417736
0.0001418474094
9.932031456e-05
8.095975627e-05
8.336862019e-05
6.831820383e-05
4.880905984e-05
3.960356661e-05
4.268850831e-05
3.287683396e-05
1.920423977e-05
7.705656784e-06
1.049122371e-05
7.484033512e-06
-8.269786958e-07
-2.022047447e-06
9.188776913e-07
3.291854176e-06
-1.121566661e-05
-1.657326565e-05
-1.345916242e-05
-6.968780021e-06
-1.703666658e-05
-2.286704556e-05
-1.969179491e-05
-1.180937642e-05
-1.782722612e-05
-2.312418989e-05
-2.131350394e-05
-1.685832485e-05
-1.762538157e-05
-2.103580678e-05
-2.159771893e-05
-1.90181617e-05
-1.8218896e-05
-2.197405933e-05
-2.496699822e-05
-2.535975257e-05
-2.52502397e-05
-2.704423833e-05
-2.890483875e-05
-3.02024947e-05
-3.115566381e-05
-3.150440978e-05
-3.168947261e-05
-3.161615761e-05
-3.111691701e-05
-3.0972141e-05
-3.079321073e-05
-3.130485287e-05
-3.274152685e-05
-3.582384394e-05
-3.904947434e-05
-4.116673266e-05
-4.262689609e-05
-4.486371162e-05
-4.686865085e-05
-4.885145892e-05
-5.012764871e-05
-5.096493497e-05
-5.408043833e-05
-5.911967129e-05
-5.880029464e-05
-6.356228817e-05
-6.721111512e-05
-7.052920852e-05
-7.324972201e-05
-7.980737791e-05
-8.530702607e-05
-9.181780189e-05
-9.980932123e-05
-0.0001111113948
-0.0001209631096
-0.0001309483977
-0.0001364587692
-0.000148394376
-0.0001802318251
-0.0001979327507
-0.0002090613364
-0.0002342302078
-0.0002618628347
-0.0003094966328
-0.0004017557548
-0.0005635300993
-0.001470290562
-0.001309086833
-0.001081957934
)


100
(
0.01085728762
0.003941815632
0.003023729379
0.002800227271
0.001955341503
0.001383092112
0.001131900675
0.0008273168704
0.0006465685302
0.0005726899666
0.0003768879038
0.0003445688904
0.0002843718184
0.0001984563981
0.0001865762344
0.0001657062886
0.0001214218995
0.0001004024756
0.0001054720816
8.931439279e-05
6.3017854e-05
4.412419548e-05
4.804639431e-05
4.287246129e-05
2.619475276e-05
1.013838081e-05
9.638740909e-06
5.716495472e-06
-4.144307242e-06
-4.069828286e-06
2.181861965e-06
5.726053274e-06
-1.567114891e-05
-2.03652235e-05
-1.328987293e-05
-8.414753524e-06
-2.06423882e-05
-2.651124688e-05
-1.910220724e-05
-1.422953715e-05
-2.112481434e-05
-2.784189514e-05
-2.492756046e-05
-2.25704025e-05
-2.467488038e-05
-3.014221744e-05
-3.173471362e-05
-3.089395524e-05
-3.062429413e-05
-3.565670312e-05
-3.828561593e-05
-4.094051846e-05
-4.137797617e-05
-4.076493891e-05
-4.10667587e-05
-4.220438603e-05
-4.331521676e-05
-4.405812387e-05
-4.406351643e-05
-4.458095944e-05
-4.602287562e-05
-4.945864783e-05
-5.335795283e-05
-5.604672267e-05
-5.893217767e-05
-6.288321805e-05
-6.676684272e-05
-6.864138725e-05
-6.998121488e-05
-7.170428319e-05
-7.539105053e-05
-8.35639272e-05
-9.047688852e-05
-9.502398011e-05
-0.0001015820082
-0.0001063879011
-0.0001076962657
-0.0001127056568
-0.000122624082
-0.0001306530816
-0.0001393210989
-0.0001505648345
-0.0001587655207
-0.0001763199503
-0.0001922403281
-0.0002132256206
-0.0002302007621
-0.0002552294592
-0.0002573172578
-0.0002840717689
-0.0003219608163
-0.0003530880807
-0.0004047416111
-0.0004540755965
-0.0005180942781
-0.0007381220918
-0.00125131324
-0.002780578036
-0.002028068309
-0.002106316574
)


100
(
0.008885509069
0.004773946668
0.003779040953
0.003082810927
0.001974515591
0.001824535749
0.001187858325
0.001121483179
0.0007229908826
0.000664809891
0.0005380102267
0.0003857477309
0.0003803764908
0.000303462074
0.0002210708413
0.000219149705
0.0001957713582
0.0001437063651
0.0001116743863
0.0001160112436
0.0001042125982
7.38444458e-05
4.375568001e-05
4.919649752e-05
5.372077728e-05
3.285591911e-05
1.315248337e-05
4.072639897e-06
-1.884029345e-06
-1.200978532e-05
-1.082351012e-05
7.01286419e-06
-1.61143183e-06
-2.363619819e-05
-2.74793445e-05
-1.333375356e-05
-1.503003384e-05
-2.848103963e-05
-3.388935457e-05
-2.572155942e-05
-2.316187843e-05
-3.21701491e-05
-4.098500749e-05
-4.103360293e-05
-3.963527419e-05
-4.242588062e-05
-4.73939415e-05
-5.042075354e-05
-5.23562675e-05
-5.073985856e-05
-5.072979465e-05
-5.274606428e-05
-5.559099055e-05
-5.757152072e-05
-5.787969917e-05
-5.644598315e-05
-5.907329882e-05
-6.364234685e-05
-7.009828425e-05
-7.659111303e-05
-8.068522122e-05
-8.434728839e-05
-8.87730984e-05
-9.338149372e-05
-9.582179301e-05
-9.708634697e-05
-9.849854232e-05
-0.0001030020713
-0.0001115708289
-0.0001232550121
-0.0001315765296
-0.0001400758831
-0.0001505526943
-0.0001558624773
-0.0001606043093
-0.0001703742137
-0.0001842720881
-0.0001980661838
-0.0002120038148
-0.0002287595723
-0.0002394210905
-0.0002618979538
-0.0002801463361
-0.0003018836607
-0.0003274915579
-0.0003599532819
-0.0003906064485
-0.0004177702884
-0.00044985544
-0.0004896269034
-0.0005405365152
-0.0006004653748
-0.0006444236369
-0.0007532127332
-0.0008909410146
-0.00123447355
-0.002501026606
-0.004580779427
-0.00290813856
-0.002417319587
)


100
(
0.007824049204
0.005284819118
0.004068977166
0.002982915924
0.002360466728
0.001998209917
0.001417628581
0.001202634437
0.0009754146863
0.0007249394015
0.0007070482985
0.0005342105681
0.0004293025813
0.0004276617831
0.0003327609611
0.0002398817129
0.0002390588937
0.0002149117704
0.0001567739644
0.0001133366135
0.0001210107496
0.0001192435391
8.240593558e-05
4.685988704e-05
4.094894789e-05
4.999466041e-05
3.432289489e-05
1.209608732e-05
-5.288848349e-06
-1.446496817e-05
-2.437575798e-05
-1.733100478e-05
7.548884598e-07
-1.356814029e-05
-3.706503688e-05
-3.502621189e-05
-2.577960068e-05
-2.911925502e-05
-4.619831838e-05
-5.019861192e-05
-4.692133899e-05
-4.424461451e-05
-5.519442807e-05
-6.162000836e-05
-6.859001238e-05
-6.866243342e-05
-6.679210671e-05
-6.856382067e-05
-7.198379007e-05
-7.525114461e-05
-7.811166837e-05
-7.416402565e-05
-7.454469393e-05
-7.955041463e-05
-8.59007832e-05
-9.299827854e-05
-0.0001019990827
-0.0001063540153
-0.0001140938542
-0.0001228057833
-0.0001327156246
-0.0001380778388
-0.0001385962767
-0.0001395468045
-0.0001445243491
-0.0001532861855
-0.000167428156
-0.0001805814069
-0.0001913385691
-0.0002048415918
-0.0002176701995
-0.000224678142
-0.0002330091241
-0.000247010553
-0.0002692900796
-0.0002925398659
-0.0003151116634
-0.0003393398292
-0.0003561361489
-0.0003829673882
-0.0004149112943
-0.0004483663395
-0.0004868146576
-0.0005046908247
-0.0005585896948
-0.0005877538686
-0.0006612181492
-0.0006966235667
-0.0007574288497
-0.0008212460588
-0.0008871698057
-0.0009796062476
-0.001078442481
-0.00121932852
-0.001463820133
-0.002087129979
-0.004631018053
-0.006975738038
-0.003211708901
-0.002025205398
)


100
(
0.006375927455
0.004825938365
0.003882761878
0.003020935571
0.002972832873
0.002031038067
0.001849341544
0.001273780921
0.001253909847
0.0009183486494
0.0007899250213
0.0007704549339
0.000566161391
0.0004816235761
0.000475971447
0.0003575683188
0.0002547912457
0.0002594641336
0.0002444901066
0.0001792525745
0.0001152125284
0.0001212647174
0.0001339985559
9.043895979e-05
5.10507648e-05
3.030025382e-05
4.111758793e-05
3.774840477e-05
1.335849662e-05
-5.957403911e-06
-2.858145046e-05
-3.900210385e-05
-1.663903629e-05
-1.061875388e-05
-2.858621471e-05
-5.637002068e-05
-5.244653157e-05
-4.815722104e-05
-5.174629688e-05
-6.754740938e-05
-7.609970002e-05
-7.704479707e-05
-7.293755106e-05
-7.513582027e-05
-8.217026246e-05
-9.196703277e-05
-9.906526881e-05
-9.638569564e-05
-9.102373144e-05
-9.586028028e-05
-0.0001029562267
-0.0001111064473
-0.000117707976
-0.0001245865041
-0.0001324778955
-0.0001443863229
-0.0001561583272
-0.0001709249341
-0.0001793917774
-0.00017886283
-0.0001806967473
-0.0001911818602
-0.000203779515
-0.0002182502721
-0.0002354180748
-0.0002507118807
-0.0002672134563
-0.0002870591498
-0.000301159863
-0.0003056505731
-0.0003145201803
-0.0003341612379
-0.0003696615057
-0.0003994936217
-0.0004293705533
-0.0004634678855
-0.0004915112804
-0.0005269248222
-0.0005781248163
-0.0006231616261
-0.0006706943251
-0.0007132925326
-0.0007741242398
-0.00081749625
-0.0008859391881
-0.0009468853006
-0.001046396379
-0.001131948654
-0.001214935945
-0.001330119791
-0.001434121102
-0.00153955412
-0.001681048762
-0.001901909089
-0.002334552202
-0.003348931345
-0.007931081824
-0.009433061355
-0.00325501876
-0.0001696964893
)


100
(
0.004398762106
0.004400874164
0.003719649728
0.003681131172
0.003157511746
0.00230567351
0.002100995755
0.001635546749
0.001392830884
0.001295317501
0.0009479408221
0.0009065275268
0.0008358676581
0.0006204622547
0.0005427843974
0.0005507755635
0.0004205322588
0.0003016516322
0.0002960836217
0.0002928235081
0.0002143435237
0.0001431686214
0.0001307609463
0.0001453263986
0.0001137537015
7.037123848e-05
3.443836936e-05
4.253834409e-05
5.310643581e-05
2.832544621e-05
4.940430747e-06
-3.445744472e-05
-4.400679031e-05
-2.475934351e-05
-1.905102244e-05
-4.226216635e-05
-6.202446056e-05
-7.252281007e-05
-6.4946601e-05
-6.391020333e-05
-7.287978541e-05
-8.633596671e-05
-9.959534807e-05
-9.802078684e-05
-8.785140936e-05
-9.05560371e-05
-0.0001027206116
-0.0001154561685
-0.0001250314097
-0.0001265085783
-0.0001264188058
-0.0001431123911
-0.0001590690458
-0.0001757113384
-0.000197010217
-0.0002015012149
-0.0001979465257
-0.000205741803
-0.0002202866203
-0.0002371909315
-0.0002495789314
-0.0002604478964
-0.0002842339457
-0.0003094264933
-0.0003376399047
-0.0003672239031
-0.0003709028247
-0.0003752803076
-0.0003930076728
-0.0004182591208
-0.0004580882516
-0.000490383761
-0.0005321417327
-0.000580083233
-0.0006087100838
-0.0006374230257
-0.0007008737022
-0.0007668443149
-0.0008341962347
-0.0008935518598
-0.0009402520771
-0.001022314424
-0.001111189214
-0.001205311739
-0.001258611908
-0.001375046454
-0.001487693311
-0.001603582137
-0.001732488597
-0.001933136634
-0.002089927434
-0.00219327683
-0.002356617637
-0.002584921259
-0.003596858945
-0.00538968168
-0.01246785955
-0.01281473294
-0.0005129129318
0.004632130501
)


100
(
0.003586426043
0.004344694172
0.004272378796
0.004412251005
0.003187031956
0.002956406551
0.002265765019
0.002222062215
0.001623017909
0.001583534943
0.001382298046
0.001052613015
0.001054679376
0.0009428322363
0.0007218736316
0.000654069862
0.0006692718481
0.000518904982
0.0003775991109
0.0003513017198
0.0003707790448
0.0002763534807
0.0001963827713
0.0001605187547
0.0001769178961
0.0001650948695
0.0001156509846
7.642496306e-05
6.267136575e-05
7.681097589e-05
7.12782282e-05
4.157718371e-05
-1.664525075e-05
-2.989549965e-05
-1.613918615e-05
-2.559243582e-07
-1.503634237e-05
-3.001191105e-05
-5.785576662e-05
-6.762101072e-05
-5.373898015e-05
-5.305603706e-05
-7.013006434e-05
-8.820074276e-05
-0.0001035417566
-9.621695252e-05
-8.874220127e-05
-0.0001005795442
-0.0001210753874
-0.0001407937332
-0.0001655239885
-0.0001753076811
-0.0001770355148
-0.0001805571016
-0.0001981497526
-0.0002209783827
-0.0002406816838
-0.0002327268875
-0.0002362268585
-0.0002635739332
-0.0002985409854
-0.0003331761423
-0.0003631275552
-0.0003761914922
-0.0003815978298
-0.0004087206139
-0.0004406916374
-0.0004563285607
-0.0004903418525
-0.0005376656629
-0.0005901735179
-0.0006402947757
-0.0006642359364
-0.0006963481209
-0.0007526248179
-0.0008322168644
-0.0009053960884
-0.0009866405029
-0.001033683684
-0.001096164342
-0.001207039913
-0.00131749968
-0.001418740195
-0.001501445623
-0.001642712269
-0.00178372562
-0.00186001681
-0.002045471617
-0.002298026637
-0.002431495257
-0.002758299252
-0.002909985016
-0.003216657284
-0.003550173989
-0.004957439044
-0.009676606776
-0.01836773077
-0.01617618787
-0.0009520837784
0.0116164297
)


100
(
0.003757915248
0.004844723673
0.004970320173
0.004333251841
0.003564321411
0.003449310667
0.002667193246
0.002520790419
0.002242124576
0.001837832915
0.001861825599
0.001518096571
0.00124643627
0.001255216657
0.001112167439
0.0008568178337
0.0007787160999
0.0007986030696
0.0006350937584
0.0004769942417
0.0004232587621
0.0004431444493
0.0003635951533
0.0002753636363
0.0002069953272
0.0002282856473
0.0002444601277
0.0001940716591
0.0001512031329
0.0001185070872
0.0001253437116
0.0001434123291
0.0001128746947
6.279726195e-05
4.3377019e-05
2.524823329e-05
3.859800499e-05
5.314537699e-05
2.737269548e-05
-9.179627078e-06
-4.193396273e-05
-3.801990347e-05
-1.356128996e-05
-2.874974187e-05
-5.365362796e-05
-7.539996748e-05
-9.036944237e-05
-9.623590449e-05
-9.258925927e-05
-0.0001069053217
-0.0001266841012
-0.0001612125767
-0.0001949075319
-0.0001811315088
-0.000155090882
-0.0001796064445
-0.0002161476286
-0.0002469490769
-0.0002816890092
-0.0002884428968
-0.0002953575034
-0.0003181015466
-0.0003648757396
-0.0004098939533
-0.0004011898374
-0.000402149348
-0.0004601289016
-0.000529175547
-0.0005836712634
-0.0006317556753
-0.0006512814592
-0.0006850575409
-0.0007252650424
-0.0007959684651
-0.0008761753187
-0.0009711514778
-0.001030410578
-0.001085977313
-0.001160656533
-0.001291899666
-0.001426375288
-0.001525210697
-0.001605858883
-0.001768932272
-0.001943720957
-0.002061102369
-0.002202549638
-0.002389381517
-0.002562235759
-0.002841049063
-0.003030141881
-0.003370033109
-0.003869148271
-0.00463783402
-0.0065466683
-0.01606668987
-0.02503560336
-0.02014839058
0.01428062025
0.03998884366
)


100
(
0.003861361111
0.004991900528
0.004916927786
0.00428582861
0.004335273957
0.003581051363
0.003435232369
0.002768343832
0.00289870137
0.002383459161
0.002134743659
0.002155173951
0.001705026128
0.001455697642
0.001463882386
0.001282347917
0.0009934011831
0.000885476392
0.0009129826147
0.0007545019566
0.0005837951422
0.0004924281514
0.0005176922144
0.0004693302326
0.0003749674448
0.000305375296
0.0002946966188
0.0003225339674
0.0003151171723
0.0002643438437
0.0002265841931
0.0001788090271
0.000196182468
0.0002178193664
0.0001776795217
0.0001337359285
7.738570456e-05
6.662397218e-05
0.0001008467861
0.0001016990732
5.629607578e-05
1.560503671e-05
-9.887729677e-06
4.483291513e-06
2.347035577e-05
5.806614393e-07
-2.820657656e-05
-5.323607171e-05
-0.0001116069593
-0.0001039080851
-7.195168801e-05
-7.491084887e-05
-0.0001234006309
-0.0001721828853
-0.0001950343405
-0.0001717380605
-0.0001620201341
-0.0002076490255
-0.0002349226042
-0.0003188799128
-0.0003376428457
-0.0003001678818
-0.0003019706397
-0.0003667461423
-0.0004269638501
-0.0004809419289
-0.0005230147576
-0.0005838609903
-0.0006230161827
-0.0006581829695
-0.0006816210212
-0.000707352059
-0.0008161102823
-0.000923651802
-0.00101826352
-0.001053800734
-0.00110921086
-0.001199572421
-0.001358805229
-0.001503811108
-0.001579969743
-0.001656839515
-0.001854577777
-0.002075547211
-0.002172483887
-0.002323690133
-0.002606266367
-0.002852376422
-0.003027414595
-0.003176648591
-0.003466571497
-0.003613794083
-0.003870856676
-0.004721321327
-0.008247439424
-0.02326251003
-0.03223651884
-0.02714325181
0.01449123304
0.03404075769
)


100
(
0.002648504844
0.004664961642
0.004729801459
0.004712853921
0.00478880764
0.003857017112
0.003947270773
0.003402575805
0.003198300775
0.00318785233
0.002536410872
0.002424431517
0.002362680445
0.001878901876
0.001629092834
0.001643139756
0.00143432296
0.001117376317
0.0009741669218
0.001005828191
0.0008755428174
0.0006970276862
0.0005600193541
0.0005956179774
0.0006156381268
0.0005056869767
0.000436095655
0.0003757299905
0.0004163900917
0.000450833798
0.0003975098218
0.0003411181259
0.0002662318984
0.000240204399
0.0002731037672
0.0002905346866
0.0002245823986
0.0001570451362
9.410645774e-05
0.0001225782101
0.0001617343282
0.0001368623106
8.765152251e-05
6.252271217e-05
2.278454835e-05
2.136697906e-05
4.057460145e-05
3.62972318e-05
-1.535705693e-06
-7.043136847e-05
-0.0001345413068
-7.872566804e-05
-3.652071191e-05
-9.659685595e-05
-0.0001568349638
-0.0001864882545
-0.0002387056865
-0.0002257721224
-0.0001764848716
-0.0002281864172
-0.0003314349741
-0.0004142381299
-0.0003553257484
-0.0003462084837
-0.0004560988303
-0.0005429793305
-0.0006057117112
-0.00062541247
-0.0006503761225
-0.0006939789281
-0.0007622036343
-0.0008964821025
-0.001007760462
-0.001083992061
-0.001129871193
-0.001180931401
-0.001293316096
-0.001478547048
-0.00165487574
-0.001748411027
-0.001823876313
-0.002031486487
-0.002260221042
-0.002364077359
-0.002507591723
-0.003072342362
-0.003326187044
-0.003380735896
-0.003858936488
-0.004120164423
-0.004571889342
-0.005533371467
-0.00525128199
-0.006524047937
-0.009727458557
-0.0310374745
-0.04034949032
-0.03522935978
0.01866830966
0.05431655403
)


100
(
0.0008213447626
0.004283116597
0.004730587216
0.005388602994
0.004745856552
0.004640712284
0.004153446016
0.004316969232
0.003567443128
0.003607814835
0.003362928433
0.002705308362
0.0026937897
0.00255132428
0.002022082714
0.001758442032
0.001780350675
0.001562635902
0.001240901614
0.001051543784
0.001093816663
0.001020123477
0.0008373225018
0.0007124822495
0.0006946165903
0.000742126948
0.0006906285937
0.0006158054937
0.0005445363744
0.0004859350381
0.0005233358537
0.000562253402
0.0004824828735
0.0003793875435
0.0002680836758
0.0003004735872
0.0003672188811
0.0003257900215
0.0002470517581
0.0001833247834
0.0001446455715
0.0001842493336
0.000223978683
0.0001872538799
0.0001506707377
8.1859689e-05
-1.477878188e-05
1.705479206e-05
0.0001108383449
5.288232553e-05
-3.316200032e-05
-0.0001125344406
-0.0001284540822
-9.348132807e-05
-6.940403917e-05
-0.0001204662225
-0.0001947335021
-0.000329230816
-0.0003343048524
-0.0002037500264
-0.0002652460049
-0.0003968209408
-0.0004961144351
-0.0005630035784
-0.000640065343
-0.0006389203893
-0.0006642120142
-0.0007067064622
-0.000730728118
-0.0007999740012
-0.0009607180178
-0.001138236455
-0.00121022344
-0.001279051957
-0.001354806647
-0.001543193374
-0.001735598424
-0.001884641071
-0.001949833934
-0.002076173742
-0.002284479528
-0.002698526799
-0.002842639088
-0.002911301328
-0.003292871383
-0.003608996169
-0.004005560857
-0.004332508528
-0.004420390478
-0.005152893588
-0.005265936042
-0.006375714358
-0.007410427032
-0.008818578863
-0.01468182225
-0.04030022598
-0.04905013918
-0.03870868597
0.03667330515
0.08789698226
)


100
(
0.0006595820935
0.004283449484
0.005190152734
0.00551683459
0.004845732869
0.005297812957
0.004576142321
0.004724778088
0.00452778621
0.003918962734
0.004040935116
0.003605187176
0.002941674305
0.002949992668
0.002741723879
0.002177993617
0.001870491555
0.001913634822
0.001728495144
0.001404533348
0.001156829154
0.001218015873
0.001260216911
0.001055353305
0.0009356795366
0.0008405778021
0.0009097939251
0.0009646283585
0.0008301527407
0.00074405864
0.0005784529225
0.0005977370155
0.000673399275
0.000645938107
0.0005112286665
0.0003901402319
0.0003267547173
0.0004125473241
0.0004669782948
0.000396823737
0.0003304966799
0.0002938993658
0.0001990564303
0.0002399306763
0.0003068571793
0.0002949214274
0.0001834895989
5.854087003e-05
-1.068839187e-05
0.000102692431
0.0001481179742
3.552807669e-05
-2.78610932e-05
-0.0001036397547
-0.0001710607255
-0.0001299075426
-2.590184414e-05
-0.0001833248235
-0.000363552233
-0.0004366319855
-0.0003485099531
-0.0003624315257
-0.0005372276632
-0.0006381720822
-0.0006769053775
-0.0007075170829
-0.000741856177
-0.0007986770091
-0.0009484444916
-0.001174432199
-0.00131522374
-0.001306621643
-0.001360213159
-0.001444980363
-0.001636852761
-0.001891111943
-0.002155307256
-0.002333097548
-0.002497490969
-0.002660487991
-0.002950195519
-0.003083218432
-0.003396611185