/*--------------------------------*- C++ -*----------------------------------*\
| =========                 |                                                 |
| \\      /  F ield         | OpenFOAM: The Open Source CFD Toolbox           |
|  \\    /   O peration     | Version:  2.3.1                                 |
|   \\  /    A nd           | Web:      www.OpenFOAM.org                      |
|    \\/     M anipulation  |                                                 |
\*---------------------------------------------------------------------------*/
FoamFile
{
    version     2.0;
    format      ascii;
    class       dictionary;
    location    "constant";
    object      PM15;
}
// * * * * * * * * * * * * * * * * * * * * * * * * * * * * * * * * * * * * * //

PM15_table
100
(

100
(
-181.4515772
78.78509604
41.9357764
28.74416064
26.08362004
24.27770983
18.13659536
19.14021583
16.2635823
15.71327128
15.80896099
13.27692801
13.33696948
12.66597377
11.12997346
11.16288587
11.14730023
9.408109126
9.48470424
9.661327454
8.631547829
8.215039482
8.307211536
8.170552733
7.291550281
7.344001928
7.430630424
7.167692733
6.390003506
6.435645783
6.511141042
6.269190818
5.84050307
5.874374983
5.924348498
5.821480528
5.314499361
5.099284863
5.147346608
5.085532374
4.770138064
4.557845007
4.589560337
4.551981742
4.369155348
4.206564655
4.228702265
4.254749033
4.020870812
3.79312573
3.705943194
3.703216354
3.566563389
3.431380962
3.366250865
3.347344619
3.277195429
3.208786993
3.180557853
3.152868645
3.089406431
2.934137693
2.862176732
2.871671657
2.814915758
2.659148584
2.595922732
2.618203516
2.499470036
2.393670558
2.359074725
2.330551396
2.197550217
2.141362902
2.144780654
2.070446972
1.950869175
1.945817744
1.888739057
1.770681359
1.771141404
1.682597502
1.616305095
1.610853228
1.485992106
1.475721723
1.414587372
1.349795171
1.327475854
1.258708755
1.234582555
1.187063496
1.167943788
1.131862119
1.1211886
1.092520489
1.088008181
1.142563459
1.511970002
2.099384817
)


100
(
-185.9190213
62.06449563
36.61943758
26.42577699
26.69909812
21.91026799
19.74649939
17.7778594
16.7255842
14.72517796
14.81761474
12.94763462
12.51803969
12.17577603
10.9259007
10.52180698
10.42089721
9.610609973
8.957830081
8.99933072
8.583739194
8.079134599
7.814403096
7.723456037
7.391183601
7.073757544
6.967724093
6.82203578
6.531788639
6.254984647
6.097197185
5.988275499
5.829456867
5.674796307
5.561856086
5.500047684
5.292597293
5.113652505
4.927174978
4.805479019
4.678737849
4.562736371
4.447402961
4.309632719
4.238790575
4.171980161
4.107529221
4.036752451
3.907882836
3.816117884
3.727459555
3.627939886
3.479076309
3.422694486
3.37419433
3.313247972
3.189725817
3.169770816
3.147893175
3.106277752
3.002268906
2.985278086
2.895372782
2.807866161
2.775242467
2.748538574
2.645229014
2.549335154
2.547752145
2.474100832
2.378469354
2.312515233
2.287462909
2.198721668
2.123250033
2.116413315
2.083421327
1.994413677
1.95580403
1.903417015
1.842004409
1.828119626
1.732479461
1.742149682
1.690815941
1.618039924
1.612383984
1.554142006
1.517038529
1.491366191
1.45445939
1.423502743
1.392634702
1.373427302
1.34522823
1.324346338
1.268860442
1.132821862
1.385213793
6.661704858
)


100
(
-72.08615132
49.33521216
30.66005268
28.62047045
25.9915164
19.42797146
20.49795038
15.98198475
16.40022232
14.22760858
13.5168978
12.89646375
11.40287452
11.38028081
10.86963729
9.838833476
9.589571526
9.522578226
8.801563948
8.182698847
8.253275482
7.939105522
7.473716121
7.127862232
7.179600145
6.847674334
6.554278758
6.344333439
6.393536394
6.097654785
5.83576982
5.588227191
5.576685271
5.418355375
5.270654943
5.132940556
5.087107689
5.007979888
4.826049584
4.658851483
4.510734467
4.422206458
4.326127035
4.228588216
4.140972107
4.024866072
3.974065715
3.919767669
3.869120242
3.739283289
3.713818997
3.637459291
3.554381743
3.407741775
3.36425812
3.336253675
3.267541584
3.099046701
3.055015363
3.054335803
2.962229958
2.904179196
2.915907439
2.80382209
2.706533821
2.72279313
2.724141414
2.576534835
2.524679933
2.524212712
2.482653444
2.396178653
2.390675516
2.359852704
2.250471175
2.199448046
2.244696664
2.176731896
2.101310829
2.130793157
2.052705968
2.039246502
2.009494139
1.934598889
1.980598777
1.908573864
1.890792974
1.904151373
1.853566677
1.854848009
1.828779467
1.825165835
1.791111906
1.778446912
1.757012928
1.727515504
1.525335657
1.160329937
-1.961785229
-3.188757988
)


100
(
16.85572789
57.02862003
34.57667106
31.58247025
22.66087428
20.31236234
18.46632155
16.76009654
15.08319696
14.76978713
12.58731551
12.58490767
11.6344789
10.61822883
10.63947156
10.05208648
9.182467613
8.991166744
8.958960962
8.315562891
7.762488584
7.736182577
7.548730303
7.118930818
6.731494738
6.718469082
6.535314854
6.260866541
6.011769653
5.973895835
5.874689909
5.621436852
5.390034925
5.217776174
5.211734202
5.089005504
4.973131857
4.794073228
4.829172007
4.760870452
4.609029387
4.44170177
4.303585557
4.332366564
4.25563805
4.115331779
3.870405137
3.903678595
3.909269732
3.795268625
3.589940881
3.590904602
3.635321004
3.507525913
3.316992614
3.272263441
3.362728277
3.211947266
3.019272601
2.951607023
2.991936751
2.875272382
2.820435128
2.81745269
2.768653267
2.696654616
2.703317245
2.699443807
2.625193544
2.588244205
2.567638193
2.553678448
2.504200521
2.514165424
2.507276255
2.404288177
2.335805043
2.3840554
2.334066613
2.264320515
2.278114891
2.218565841
2.232984711
2.193915686
2.177525914
2.173179177
2.120200584
2.117554801
2.11447912
2.111013777
2.088738352
2.055691852
2.0594908
2.017370969
1.995344534
1.946365908
1.497931335
0.003674181477
-4.203581546
-4.013860315
)


100
(
44.0867898
64.0974308
38.45884599
27.48269132
21.07186937
21.79589751
17.08691103
17.65277878
14.60539006
14.3714278
13.22368259
11.95047491
11.99613862
10.84488014
10.14063418
10.15621131
9.562963732
8.811462512
8.612279401
8.654369844
8.059442465
7.550025084
7.409085232
7.361724389
6.956570948
6.595027591
6.434439228
6.39620354
6.160282842
5.948330285
5.774381018
5.82107579
5.643689548
5.429730411
5.135106788
5.174165514
5.149166812
5.040558683
4.676309859
4.699332833
4.735779166
4.688451141
4.395768925
4.232386946
4.264728125
4.36186179
4.063565152
3.761391934
3.806840156
3.92567412
3.725406403
3.505557055
3.483268981
3.552639548
3.423719539
3.236513915
3.208029363
3.274810709
3.195164613
3.05018562
2.991792958
3.000652475
2.943503539
2.899387887
2.859448977
2.812679375
2.780292389
2.774562731
2.748309447
2.729889337
2.682366816
2.66283701
2.62808204
2.606585405
2.614047346
2.632481381
2.527445269
2.50081912
2.513289853
2.457921645
2.458395056
2.435733683
2.366573426
2.380141915
2.368350949
2.364258799
2.352661406
2.325564796
2.294175182
2.28322822
2.299018898
2.263328689
2.238496114
2.232491205
2.187347846
2.083976628
1.406018161
-1.879703043
-4.242020048
-2.888494451
)


100
(
35.70435691
51.69025975
33.41063528
24.57533417
22.8778425
20.37722367
17.79674587
16.65257071
15.677807
13.75131917
13.96510328
12.29395972
11.59212465
11.44939287
10.4016154
9.863457819
9.879978326
9.332114556
8.658503462
8.409944013
8.45900967
7.989360889
7.510366236
7.237032289
7.273984101
6.936577304
6.581271266
6.438150147
6.484116531
6.333881289
6.055354865
5.760698641
5.803008117
5.819678171
5.505694147
5.133607886
5.154361078
5.296293574
5.037147525
4.632045231
4.629544983
4.69653976
4.654061427
4.325560592
4.163115762
4.288211336
4.358653106
4.036700994
3.741897198
3.835923989
3.890874965
3.712125812
3.516498038
3.487660229
3.541058461
3.45992487
3.349752773
3.337550081
3.33641796
3.328310247
3.266777684
3.195687392
3.133003902
3.073477121
3.050832129
2.99809355
2.929624599
2.914881638
2.871710457
2.857236647
2.833890476
2.800094114
2.764082496
2.736573685
2.690725182
2.693302328
2.736646074
2.691271727
2.669074322
2.638583283
2.622629001
2.645662782
2.599278409
2.554836258
2.54717711
2.516002924
2.507426722
2.506416642
2.502800111
2.457922205
2.443580351
2.4525403
2.420447315
2.413038987
2.363910811
2.095699154
1.086508145
-3.091628786
-3.72862927
-2.572333071
)


100
(
14.85716677
42.9976653
29.45076654
24.90661438
24.79944846
19.07580156
19.23850824
15.87519156
16.23915938
14.30701566
13.49569109
13.20524638
11.70336366
11.34242358
11.0614944
10.1548114
9.696250245
9.716956612
9.247676664
8.631812242
8.294264072
8.326406249
7.988737489
7.51832656
7.107591491
7.141700656
6.983334912
6.63463827
6.512712576
6.523674854
6.535317541
6.004680127
5.737423175
5.76626346
5.915284758
5.440033855
5.093201718
5.131311677
5.41879621
5.024657352
4.634306404
4.619555934
4.769319643
4.636799737
4.310306319
4.18911885
4.32833433
4.360286572
4.053134154
3.854919459
3.894178723
3.946890182
3.855364809
3.74379531
3.665051639
3.608798642
3.598210474
3.595253198
3.528789466
3.46690763
3.439420267
3.445604578
3.38003741
3.286118441
3.227569726
3.208017197
3.160404904
3.136108726
3.112744123
3.040453768
2.998398412
2.98104295
2.938921278
2.893683987
2.89672373
2.847187436
2.863677274
2.848555788
2.825759578
2.823286498
2.782989153
2.755504241
2.777605145
2.746005694
2.726942456
2.702324673
2.673943064
2.646428763
2.654276796
2.646104505
2.60570137
2.593788031
2.583207411
2.570609195
2.532290863
2.108537818
0.4838908271
-3.513963815
-3.265139906
0.8535947804
)


100
(
23.02871042
38.53013533
28.90150327
27.15200057
22.73138138
19.68440795
18.62323776
16.77541156
15.62415056
15.40202844
13.31602167
13.15132112
12.51135848
11.25024646
11.09213242
10.75994074
9.966060531
9.523299069
9.531035751
9.152920256
8.557357196
8.104151747
8.131181195
7.964444817
7.525281934
7.095949093
7.030031551
6.866424223
6.514830185
6.434365021
6.521683818
6.556737936
5.911387791
5.681208166
5.810981306
5.881045743
5.377263974
5.052132914
5.267833911
5.377613456
5.012655064
4.640271003
4.687581643
4.742499006
4.607086212
4.314522798
4.287960577
4.359404088
4.417411514
4.220186061
4.140780581
4.059327655
4.047500685
4.051029439
3.997663814
3.869079107
3.743798118
3.679198296
3.67074344
3.626211753
3.557778005
3.530115409
3.521845983
3.514393644
3.46756354
3.4321188
3.362266581
3.282298214
3.289171944
3.27204472
3.189660647
3.139314047
3.106715623
3.086634402
3.086106062
3.036468246
2.981825428
2.996322814
2.96219132
2.9302345
2.932234717
2.914494215
2.901925931
2.887455873
2.877584984
2.863886579
2.843407351
2.810916667
2.785538054
2.793565845
2.779387819
2.750511024
2.733349829
2.712068237
2.680265715
2.123021404
-0.3187227341
-3.713654631
-2.631736639
-1.533049993
)


100
(
34.29239032
41.71940643
31.26533686
26.59660083
21.01158375
21.10261629
17.58502532
17.88364416
15.18263592
15.11943438
14.19436096
12.66399379
12.75287001
11.9288046
10.85763069
10.80098898
10.46683231
9.729125586
9.232863872
9.235526651
8.998394342
8.460561395
7.917663615
7.946133081
7.961506402
7.536276042
7.127104246
6.901532056
6.705388842
6.37392762
6.324877041
6.674860822
6.412250771
5.801014146
5.60244389
5.892286418
5.776000608
5.288035169
5.046746803
5.260844198
5.288588046
4.96971782
4.667901066
4.678324428
4.738561322
4.660967176
4.541171543
4.480779716
4.436225948
4.470695424
4.433121671
4.326099224
4.187948365
4.068651664
4.047885111
4.104019285
4.000760608
3.883318005
3.797417435
3.742523567
3.71483257
3.685126237
3.680297552
3.622368518
3.546574616
3.535806462
3.539451973
3.457268043
3.380726949
3.369823079
3.363193871
3.351273527
3.313727941
3.215810445
3.176997905
3.194449797
3.131105012
3.098054796
3.104000219
3.088465145
3.06112427
3.036212977
3.030376041
3.023615175
3.007356274
3.001057194
2.978156859
2.947974743
2.924156505
2.912331366
2.911086709
2.892368845
2.886960106
2.852761555
2.806940703
2.129294211
-1.240785689
-4.001111991
-2.592001909
-0.6483122341
)


100
(
38.83621865
42.56724422
30.5985181
24.02679521
21.54668259
20.44833447
17.79614124
17.04455857
16.03614733
14.48521036
14.6146431
13.24427606
12.29298861
12.33023751
11.43747587
10.45933576
10.41193104
10.13038841
9.496624881
8.952716101
8.978855713
8.901979466
8.39194695
7.879151736
7.747555686
7.820040912
7.529969455
7.138518872
6.789861003
6.528784735
6.207707434
6.305729194
6.618407799
6.259425853
5.674826137
5.637620809
5.777411719
5.651263566
5.194111997
5.106629924
5.180097857
5.258358033
5.047278438
4.911937897
4.776748068
4.775202973
4.790554685
4.733348916
4.607976745
4.47682887
4.379394709
4.422956885
4.396210888
4.281241546
4.150412228
4.096010064
4.05647505
4.081645948
4.028869844
3.965938285
3.861506574
3.745056537
3.742975689
3.765104999
3.688263272
3.598527202
3.583331498
3.578071054
3.577572024
3.56023506
3.479183011
3.387129603
3.422298206
3.382147398
3.294674252
3.266422668
3.276000022
3.249445313
3.215151222
3.191281237
3.183078479
3.162278776
3.141503551
3.13841194
3.124862654
3.097833904
3.100884717
3.071480825
3.05078205
3.034845993
3.013772238
2.993561721
2.981533057
2.966028847
2.850751391
2.032890702
-2.453052924
-4.261649831
-1.754524319
0.3132167798
)


100
(
36.312256
37.58683144
27.54646603
22.46883607
22.83986508
19.05608175
18.84024969
16.1748715
16.52328668
14.75090665
14.05701524
14.03667588
12.5530199
11.89851403
11.90146353
11.00466156
10.11005424
10.10503705
9.953190759
9.379356434
8.753638856
8.766072912
8.853700411
8.354664027
7.874042691
7.576420511
7.650459098
7.55301943
7.175218166
6.844340077
6.366884861
6.074391814
6.444947849
6.482701882
6.133252493
5.607167314
5.630521639
5.6706103
5.606024581
5.362976531
5.265499094
5.260797106
5.336334461
5.270286583
5.113152518
4.912179636
4.74381578
4.750373721
4.812693066
4.700969861
4.567786747
4.448550362
4.384216893
4.391136092
4.385615983
4.306514345
4.250262818
4.131405949
4.047991005
4.080791792
4.074613276
3.953291777
3.821620408
3.78495086
3.806964852
3.79863707
3.764009407
3.694915706
3.595974177
3.655410613
3.653746573
3.545014446
3.476150515
3.475818998
3.465373496
3.411923045
3.371003973
3.358938991
3.344560418
3.319005662
3.295884079
3.281258607
3.247719378
3.218401729
3.220547683
3.19881051
3.191336922
3.182718533
3.166749584
3.143129408
3.118419348
3.106067003
3.076713151
3.060369144
2.802422668
1.698795509
-3.736093948
-4.301649089
-2.248353986
-1.393563845
)


100
(
28.66574922
33.31404079
24.94756551
23.68178687
21.9070154
18.87539318
18.5159792
16.78024526
15.88034499
15.64227919
13.88313604
13.69914803
13.34175084
12.04686692
11.55727965
11.61135797
10.80318823
9.97401692
9.915065646
9.900585444
9.344241408
8.770765226
8.636148046
8.72866197
8.407842928
7.951857421
7.529225811
7.548300703
7.609411512
7.280116312
6.968089459
6.358043415
6.16920339
6.390279646
6.405172954
6.094500692
5.847330272
5.716751226
5.788859559
5.786083814
5.6789914
5.494813406
5.308329488
5.275679939
5.344305667
5.263636623
5.074413347
4.884437203
4.782881708
4.792642674
4.808481989
4.726509008
4.645156124
4.548422908
4.413114368
4.417269907
4.470545468
4.399174153
4.255079464
4.125088629
4.080924039
4.126159475
4.103990206
4.036454938
3.954381079
3.861542156
3.895855614
3.907317726
3.775063453
3.673750407
3.705299872
3.722727513
3.671412987
3.644198866
3.6208844
3.604370644
3.551554202
3.499769413
3.475472225
3.452168491
3.418371259
3.402188535
3.382220094
3.346828889
3.319666788
3.303393427
3.300338257
3.28841464
3.258581591
3.237267457
3.211393095
3.199626818
3.182006047
3.150688207
2.763390968
0.9462268826
-4.435657882
-4.647030033
-1.877254286
-0.5987259387
)


100
(
26.97712102
31.33993625
25.63626101
24.78188316
20.40103968
19.97008261
17.68727973
17.85125434
15.56604943
15.55347957
14.78389706
13.32623081
13.38305644
12.86832733
11.74497634
11.3864846
11.4994322
10.76042239
9.970046758
9.818647951
9.969413981
9.413956459
8.876731485
8.593370513
8.678651385
8.553996401
8.107915768
7.714985544
7.513321119
7.567508553
7.467733697
7.147588549
6.528291429
6.379819083
6.468329992
6.566533798
6.415731709
6.252213899
5.976796759
5.843658245
5.899183605
5.862545197
5.67755143
5.483698536
5.324141594
5.350640952
5.389462432
5.272782852
5.09675124
5.009391932
4.89704359
4.883493932
4.927443057
4.900243471
4.751320263
4.56898533
4.43486346
4.526005076
4.530298282
4.425558186
4.352615181
4.261496166
4.219235463
4.272030734
4.271118619
4.108835751
3.957098737
3.96016507
3.994492833
3.899512975
3.870002734
3.850233192
3.837657961
3.818892643
3.789330279
3.760790111
3.724142999
3.680614151
3.635510866
3.612198807
3.578973823
3.545293404
3.516813066
3.489784375
3.477101819
3.456189892
3.408388501
3.409909786
3.377187247
3.374951914
3.352888052
3.338431444
3.321196733
3.280932171
2.749802857
-0.4450366043
-4.816229799
-4.636232015
-1.462802392
-0.2388723727
)


100
(
29.48734014
32.40327353
26.74780024
22.84429276
20.23744625
20.07122844
17.68620345
17.35908448
16.53088142
15.13384288
15.27725442
14.13108011
13.11475426
13.15382777
12.61081975
11.57334851
11.26044261
11.41849147
10.76404219
10.03656787
9.780435059
9.926113902
9.530222536
9.02494018
8.572794234
8.649887435
8.695478573
8.294914678
7.92465401
7.598173382
7.543186345
7.572935444
7.343827707
6.986310559
6.833177234
6.667279686
6.678031068
6.692713601
6.467694579
6.198398741
5.944695087
5.916926781
6.014865448
5.877528348
5.691469281
5.533814975
5.42580255
5.417695163
5.452947819
5.388110074
5.301049092
5.112071859
4.931044984
4.969960851
5.084173696
4.937522218
4.759678117
4.635558926
4.597799992
4.648053371
4.702458415
4.652063278
4.458022718
4.283910809
4.359921208
4.386984623
4.248149145
4.157978146
4.121241682
4.110433212
4.078111438
4.022774053
3.973060458
3.957204051
3.935210262
3.906715248
3.877242629
3.849363167
3.810695764
3.76787628
3.727823939
3.713750298
3.687002916
3.653603523
3.608514127
3.586656548
3.568621296
3.547406606
3.538491819
3.517960846
3.515230526
3.494716803
3.482747005
3.386617079
2.750206795
-1.890922406
-5.217743612
-4.548711771
-0.6858093667
1.125529163
)


100
(
30.77458991
31.73899967
25.06384733
21.24431587
21.17036018
18.9306701
18.58081621
16.65168674
17.06656071
15.57278713
14.85837124
14.95921188
13.64920757
12.87501559
12.94453407
12.40450824
11.44919903
11.10221231
11.30065099
10.77145981
10.10079798
9.704316415
9.842829315
9.626033664
9.146376859
8.734681773
8.586251615
8.622238623
8.472819238
8.098560344
7.805585389
7.510760281
7.545529698
7.582821518
7.333213879
7.06822765
6.745804794
6.637312585
6.728707718
6.668037416
6.399907789
6.152892008
5.984487577
5.99543634
6.004412902
5.886817541
5.773955138
5.681199242
5.489149556
5.475629521
5.532365115
5.462926212
5.267130862
5.07453486
5.009339848
5.070783818
5.107880356
4.991659928
4.943742307
4.785006467
4.716193576
4.801008821
4.773226398
4.576130133
4.426100548
4.41524088
4.427102429
4.406056842
4.349444674
4.296898785
4.273441722
4.243697509
4.175448607
4.113132097
4.073654119
4.04470124
4.019390762
3.999816733
3.979670201
3.945140153
3.891381792
3.84608749
3.822359646
3.807041508
3.786282461
3.722900719
3.690297836
3.678515783
3.679688902
3.671422922
3.636257912
3.605721282
3.605728834
3.503035263
2.808302151
-2.995875192
-5.547954781
-4.900929941
-0.7133184889
0.3235449815
)


100
(
28.4606764
29.19280263
23.11707278
21.18978478
20.96423266
18.29391499
18.42038762
16.95602963
16.37039429
16.34534914
14.76628097
14.47262429
14.3668084
13.20600317
12.58850448
12.70994844
12.21037359
11.33003049
10.92888827
11.12770081
10.75681995
10.13235425
9.579877627
9.697263722
9.724044729
9.222228407
8.844091676
8.476234524
8.496342634
8.529035237
8.257425445
7.980359936
7.620953991
7.452823856
7.501529999
7.511143009
7.218048689
6.919688828
6.631241489
6.664029322
6.729733557
6.567976055
6.318685755
6.174838192
6.036774272
6.016057666
6.05905765
5.988290388
5.83708045
5.62308675
5.432592293
5.520087038
5.572603206
5.388452716
5.218085789
5.195728167
5.125778804
5.181189814
5.219853067
5.071907251
4.866819982
4.708333571
4.816624625
4.837561744
4.694844018
4.63624494
4.585926577
4.55502356
4.524453917
4.471619446
4.417708823
4.368889615
4.350189187
4.29481375
4.24727768
4.213403821
4.173691512
4.137618135
4.085103375
4.044759676
4.051120587
4.020635255
4.007020709
3.928258736
3.880048013
3.858117969
3.827690082
3.807213898
3.768471242
3.777068268
3.775559482
3.75048675
3.716588591
3.614652589
3.036867912
-3.595467261
-5.808662371
-5.303356349
-0.5883833686
0.8674985682
)


100
(
24.44193241
26.67924363
21.97185645
21.74184601
19.49042883
18.87604957
17.46360649
17.58993946
15.84999221
15.9182
15.42697557
14.0427929
14.05956651
13.86493828
12.80474815
12.27429661
12.43105185
11.99614442
11.21914154
10.72698082
10.91330445
10.72455372
10.13347777
9.663833894
9.51096383
9.546655738
9.267254207
8.907300642
8.618386124
8.375564172
8.397045349
8.402356375
8.085323894
7.736530494
7.361532281
7.399147471
7.54021521
7.354920689
7.056888135
6.800813801
6.60333682
6.617177319
6.6609409
6.539723274
6.437801773
6.234371653
5.959871174
5.979608442
6.111182969
5.94760555
5.740112756
5.555686904
5.479909755
5.526002175
5.56239437
5.488335784
5.37335403
5.158436304
5.127362875
5.245246248
5.135188347
4.934387648
4.845655176
4.83591173
4.831561827
4.826515113
4.777590845
4.713770098
4.684791153
4.649406443
4.578673134
4.503041518
4.454552391
4.417968938
4.370333892
4.318175663
4.323350233
4.29818107
4.266607125
4.202793921
4.150401905
4.095978755
4.098870828
4.106573797
4.038265175
3.9910099
3.954285542
3.937119348
3.909618722
3.863669104
3.884647885
3.879262938
3.852828652
3.665380412
2.82289517
-3.993712093
-6.014642694
-5.278746243
0.07909768124
1.405975854
)


100
(
23.72239378
26.07501251
22.28112806
20.88281879
18.51507326
18.93723784
17.01266423
16.94769551
16.38205457
15.24116128
15.42947963
14.71985996
13.58076098
13.69639515
13.46594905
12.50251298
11.9647194
12.15255243
11.84155511
11.14102428
10.53492567
10.68670398
10.75599125
10.1414044
9.71444396
9.31978106
9.348720984
9.397558312
9.030135084
8.740784881
8.279765172
8.246756078
8.338296514
8.203174926
7.845024298
7.507687538
7.295850931
7.427447526
7.449403288
7.192896302
6.946521192
6.815143008
6.610416342
6.660717014
6.702845637
6.616556071
6.360306748
6.096239774
5.929250776
6.056690062
6.059928743
5.843475558
5.763433933
5.660109263
5.57600722
5.583923374
5.6550599
5.447475327
5.235568553
5.13384195
5.187824334
5.199508272
5.062159364
5.013404
4.954955849
4.925345995
4.895832362
4.838923607
4.771822998
4.711939291
4.690360164
4.681760407
4.628749532
4.589057118
4.543172895
4.47328779
4.404066803
4.350584488
4.335263261
4.354115531
4.322462034
4.258741374
4.174670436
4.151132529
4.16180454
4.172687591
4.115223346
4.051783759
4.013749288
3.990693837
3.946182058
3.956107924
3.935215357
3.754006042
2.820151751
-5.240782032
-6.23557886
-5.154526883
0.3840548208
0.6550064097
)


100
(
24.68385388
26.15741736
22.02155885
19.45147032
18.85487355
17.83571464
17.45922627
16.14372014
16.5439516
15.50976243
14.88384068
15.11168663
14.1766263
13.25572819
13.39929732
13.1685342
12.29283886
11.72580675
11.89627575
11.76105843
11.11692095
10.60107423
10.48060184
10.53275307
10.17586758
9.779311466
9.453160822
9.239136936
9.254331934
9.142509497
8.83051068
8.433400035
8.120907856
8.224915107
8.342461016
7.97100545
7.647363628
7.415668018
7.326244644
7.334663048
7.402427721
7.224091967
7.060713465
6.747248555
6.56527515
6.656679529
6.802055034
6.501350627
6.245260335
6.071064044
5.995536423
6.085382113
6.147859498
6.068424777
5.817275021
5.543935471
5.596936148
5.697504072
5.531480394
5.338883745
5.27848238
5.245313214
5.211463882
5.158114736
5.126777129
5.063140836
5.037412315
4.997295327
4.922401367
4.854347778
4.809497291
4.771909557
4.727034001
4.675964565
4.637631448
4.640778877
4.581367059
4.523708668
4.479337185
4.439665084
4.365846729
4.361214581
4.324376674
4.264358841
4.232189397
4.207363109
4.197124186
4.172495112
4.131206377
4.122344394
4.079049917
4.077934805
4.053012238
3.850513143
2.561905928
-5.871581853
-6.384041884
-4.825030276
1.033737653
0.579153992
)


100
(
25.15091928
24.79917688
20.57380625
18.6986252
19.01119999
16.88178201
17.26275019
16.20125981
15.83601223
15.99570171
14.82585018
14.49747936
14.71776144
13.71226313
12.93332444
13.11757403
12.91261513
12.15705948
11.51733788
11.69076911
11.77612879
11.10396981
10.64739083
10.28766066
10.32240171
10.35142688
9.939755248
9.577798271
9.083932129
9.097766282
9.274173916
8.947745886
8.575446781
8.197544852
8.127120648
8.220744892
8.152376351
7.789683229
7.611580857
7.446550502
7.361294511
7.366949465
7.42944056
7.186832807
6.894808698
6.592013273
6.627737171
6.716468142
6.670859221
6.421133074
6.375207253
6.200775125
6.134214663
6.213348281
6.212429275
5.934171247
5.666740462
5.615009746
5.648484001
5.652801998
5.548206534
5.474604062
5.414889509
5.37343722
5.323656764
5.250149935
5.161302762
5.081691938
5.018898784
5.014715737
4.978507054
4.938607932
4.898385183
4.846265857
4.788909106
4.728330852
4.673362386
4.624083509
4.646386176
4.639042029
4.566045925
4.484351743
4.431915058
4.438182258
4.43064351
4.3547325
4.312260917
4.293280784
4.272222901
4.234614199
4.232128018
4.195622098
4.184679633
3.934091935
2.496156761
-5.582808688
-6.333456566
-4.644714712
1.149439772
0.4383924475
)


100
(
23.41064147
23.29244459
19.34583112
18.82094752
17.84925996
17.10994915
16.43716763
16.55235859
15.38242762
15.4426221
15.29927302
14.23197274
14.11872065
14.27211354
13.37087985
12.62063335
12.83962961
12.73188962
12.06920226
11.51763599
11.44713443
11.53067819
11.11046759
10.69263555
10.31948487
10.21448567
10.23477401
10.03402234
9.676322065
9.217198404
8.981597581
9.149173271
9.121585183
8.714188037
8.384035972
8.124258933
8.100370704
8.133682531
8.058746246
7.909442273
7.667934552
7.306280772
7.27369574
7.417288063
7.339770504
7.036658039
6.775964189
6.639222219
6.67690888
6.778052056
6.793474874
6.625284263
6.316958424
6.069101335
6.247558783
6.30224273
6.04613645
5.869001876
5.803908004
5.762320673
5.705265478
5.631484261
5.609337033
5.58186399
5.541119483
5.481766521
5.387122803
5.313887513
5.252498845
5.195275094
5.132319824
5.075056221
4.981343474
4.975484541
4.978588455
4.927601033
4.879554614
4.833625416
4.735094862
4.667909929
4.714623239
4.67430525
4.623353247
4.59292377
4.545220412
4.528722576
4.498935061
4.464065445
4.441391264
4.400139687
4.386947205
4.367006485
4.341662258
4.103903587
2.184970615
-5.10401076
-5.996266452
-4.543482491
2.385749752
2.248470423
)


100
(
21.89921564
22.2897699
19.2126357
18.6445374
16.92356111
17.25899983
15.81101653
15.9340643
15.67620204
14.76105674
15.04136688
14.7281264
13.77367321
13.80285192
13.90355883
13.09502655
12.38576298
12.54973999
12.64897622
11.97516495
11.51184193
11.22549084
11.2837762
11.20310254
10.82095657
10.43741811
10.02011137
10.06544404
10.21340351
9.773916577
9.362575642
8.937008306
9.014232006
9.106381648
8.862968115
8.528470249
8.349833392
8.086287913
8.138510552
8.161628439
8.073187692
7.804374889
7.499494167
7.212441926
7.354396334
7.394699243
7.168627504
7.008641384
7.002503298
6.75615528
6.760476021
6.886487712
6.711079796
6.422638848
6.17668676
6.223191415
6.250474565
6.238543203
6.134572428
6.03236242
5.955660808
5.901408694
5.837879385
5.757615326
5.655698445
5.559186034
5.488346391
5.490058865
5.491532373
5.432723635
5.379650267
5.320591232
5.255527281
5.160143289
5.084392968
5.035838239
5.010178274
5.037164583
4.972825555
4.861392991
4.810149696
4.776206184
4.791182625
4.753463784
4.666323675
4.635777472
4.617492248
4.59588741
4.580012
4.549266572
4.517702178
4.500128834
4.48147674
4.319664739
2.053939742
-4.488180425
-5.437531758
-4.784263617
2.173048276
1.169722705
)


100
(
22.28660523
22.08598564
19.13486502
17.55154243
16.81806716
16.3196621
15.9355332
15.20542252
15.52148004
14.98133052
14.43933387
14.70358865
14.22610727
13.40049931
13.4698451
13.58544704
12.8626594
12.29316153
12.26322798
12.37384586
11.91015771
11.49549933
11.06151127
11.10735752
11.16716738
10.85620663
10.48585441
9.970275329
9.896128153
10.09617975
9.89423484
9.474607763
9.146725797
8.860474302
8.934806557
8.965779942
8.771912485
8.630854083
8.320546118
8.003709531
8.06936767
8.257551657
7.933006808
7.644684766
7.412358135
7.27366857
7.347250699
7.48029857
7.362554601
7.161212161
6.834329818
6.686378183
6.874893402
6.821401594
6.50696067
6.394357819
6.346368222
6.309372224
6.251976038
6.216218272
6.185083728
6.164084242
6.103480874
6.017979357
5.906449188
5.82436029
5.754011903
5.686699568
5.613093449
5.541059218
5.451967223
5.4480707
5.499591228
5.442257552
5.343766124
5.304259428
5.228601772
5.092888491
5.031557679
5.051013071
4.983229374
4.961160355
4.937890292
4.867745687
4.865078946
4.846773094
4.818308507
4.777013449
4.766878969
4.735139216
4.729055121
4.688332715
4.654951348
4.605086501
2.46208275
-3.469477229
-4.579974701
-5.131681379
3.501603495
3.986670533
)


100
(
22.51039497
21.53377492
18.19437164
16.7342156
16.82296147
15.50109294
15.73343899
15.01431685
14.8414355
15.15497828
14.36545657
14.02207039
14.33051427
13.77173907
13.07771253
13.11844915
13.31249097
12.65887215
12.18418662
11.96962617
12.06506304
11.85278775
11.50553097
11.19627636
10.87100393
10.93682812
10.93029651
10.52081027
10.09989379
9.718658517
9.894792088
9.996843036
9.56337874
9.257402591
9.034773996
8.86375581
8.943639761
9.02602209
8.746425859
8.436987791
8.069245347
7.971504939
8.146582808
8.119541995
7.764176806
7.600118606
7.490495913
7.424691233
7.411452793
7.5703054
7.26134746
6.966789861
6.716301945
6.787360108
6.820092888
6.707982984
6.630964033
6.528145105
6.465092924
6.416200223
6.340850168
6.254149355
6.15359892
6.044580796
6.024904116
6.028062328
6.031900803
5.952849251
5.877465368
5.795915554
5.71686474
5.619861027
5.528580558
5.477296027
5.480797761
5.511418051
5.515116073
5.384042195
5.2675085
5.211506817
5.190830022
5.220180348
5.160580393
5.083580974
5.050631468
5.028569123
4.998482995
4.992538564
4.943168379
4.911128236
4.891509592
4.876010041
4.861405043
4.806913603
3.333752208
-1.868205285
-3.336912317
-4.914633709
5.061036544
5.339012055
)


100
(
20.19324093
20.4299047
17.25035895
16.61869839
16.04300561
15.34090973
14.97468572
15.03251487
14.31507408
14.40302121
14.5272688
13.8067136
13.60249177
13.91672555
13.3780396
12.79285708
12.74807878
12.91220792
12.46096064
12.06111057
11.65303604
11.74154471
11.88903462
11.49081201
11.1521043