/*--------------------------------*- C++ -*----------------------------------*\
| =========                 |                                                 |
| \\      /  F ield         | OpenFOAM: The Open Source CFD Toolbox           |
|  \\    /   O peration     | Version:  2.3.1                                 |
|   \\  /    A nd           | Web:      www.OpenFOAM.org                      |
|    \\/     M anipulation  |                                                 |
\*---------------------------------------------------------------------------*/
FoamFile
{
    version     2.0;
    format      ascii;
    class       dictionary;
    location    "constant";
    object      PM23;
}
// * * * * * * * * * * * * * * * * * * * * * * * * * * * * * * * * * * * * * //

PM23_table
100
(

100
(
-160.369628
-49.32669387
-19.37920641
-8.692995018
-6.149264944
-3.170908704
-1.460049862
-0.5189683437
0.09439262791
0.910571347
0.9375527188
1.576607107
1.796404726
1.794181699
1.986534184
2.134694334
2.139077521
2.097616684
2.226100951
2.272745345
2.187667938
2.194715182
2.260723378
2.264030684
2.145051955
2.215475487
2.258659038
2.215079325
2.041338763
2.08384406
2.116309808
2.085170928
1.997388303
2.034185658
2.060480249
2.032962478
1.87889761
1.814429366
1.835025649
1.820593801
1.726406842
1.661641441
1.677334556
1.67141372
1.621208323
1.572958351
1.585613415
1.597026241
1.507595735
1.421643257
1.388083048
1.386322856
1.336746625
1.287802702
1.26444535
1.259330069
1.237428355
1.21531342
1.207059607
1.196804893
1.171084833
1.111424677
1.080576948
1.079622902
1.055402835
0.993578321
0.9655776232
0.9676288215
0.9203949743
0.8760648326
0.8577460375
0.8417847898
0.7887291718
0.7634766211
0.7612334926
0.7313181783
0.680413204
0.6738129655
0.6499378904
0.5999785553
0.5967625177
0.5600253678
0.5311049183
0.5269354559
0.4758685802
0.4694463495
0.443914984
0.4169264561
0.4066788079
0.3786539479
0.3679542884
0.3486950928
0.3405315174
0.3258211018
0.3212292523
0.309544844
0.3077422679
0.3267913177
0.3984432972
0.4541365353
)


100
(
-247.9081481
-35.2838496
-15.89831784
-7.898775627
-6.057707782
-2.915115845
-1.629120362
-0.5470903094
0.0639084867
0.7367057817
0.9243171016
1.418672497
1.611692284
1.720462767
1.866891375
1.949302613
2.000267216
2.068201449
2.046819862
2.104537323
2.130037487
2.106781649
2.095336708
2.121715504
2.124788388
2.094735761
2.096827
2.090058893
2.051322352
1.99872611
1.968727127
1.97023482
1.959701398
1.938386579
1.919243245
1.911758265
1.856562605
1.805315408
1.748545874
1.714237543
1.68153483
1.649948724
1.616235576
1.575807952
1.561553636
1.546580796
1.530250325
1.509814717
1.463946411
1.429625176
1.395841283
1.358633358
1.304841074
1.284332457
1.267166472
1.245947285
1.203864075
1.198119453
1.192267519
1.177707166
1.13967655
1.132988277
1.09998248
1.06451427
1.048099334
1.035027915
0.99363728
0.9527348719
0.9471373941
0.916281894
0.8753416699
0.8454105703
0.8313666379
0.7937028375
0.7607024827
0.7574986796
0.7436943355
0.704545996
0.6866627369
0.6629000819
0.6358841953
0.6281683675
0.5875196114
0.5903435385
0.5673426144
0.5360294436
0.5321235751
0.5066460416
0.4903891332
0.478935758
0.4626938218
0.4485622877
0.4354692977
0.4271899016
0.4151076434
0.4063299752
0.3844089103
0.3537708359
0.4151108448
-6.544719669
)


100
(
-266.7523384
-30.56295086
-14.51013779
-9.540773997
-6.573541612
-3.240879308
-2.210858782
-0.8985473747
-0.2798430478
0.3675558064
0.6702490238
1.088500784
1.274616462
1.465955507
1.642215033
1.678345396
1.747065108
1.876805607
1.878585362
1.837883352
1.937376272
1.956974434
1.920451715
1.891052466
1.965389845
1.941455388
1.911352715
1.891929005
1.942460047
1.891229193
1.840222398
1.791264886
1.81596085
1.796409488
1.776373732
1.754417045
1.75698853
1.743083909
1.691050604
1.642525679
1.601125188
1.579582081
1.554267828
1.528040997
1.505898726
1.474448865
1.464088741
1.452573421
1.441862104
1.401966628
1.394112376
1.366289896
1.336120781
1.285351442
1.270371114
1.260177558
1.234790088
1.174264879
1.157947672
1.1575583
1.124254349
1.104311298
1.110628931
1.070460169
1.032426214
1.037359884
1.036263393
0.9774493611
0.9539880417
0.9531020321
0.9360192278
0.9005665421
0.8971351294
0.8835265993
0.8345237309
0.8104962653
0.8323579902
0.8037812506
0.7699230271
0.7837483694
0.7482563195
0.7421099091
0.7285760141
0.694067877
0.7166307016
0.6839226535
0.6768343397
0.6849958472
0.6600439037
0.6634750656
0.6531310039
0.65276197
0.6349090318
0.6318867403
0.6235121995
0.6105590469
0.5280536783
0.4208120747
-1.123194799
-2.027302027
)


100
(
-188.7718921
-37.56750819
-17.60495734
-11.76606855
-6.411907822
-4.010630609
-2.515381317
-1.36581542
-0.6054860039
0.02072424086
0.4043793839
0.7852509006
1.07046272
1.209237164
1.421157768
1.54393563
1.559038978
1.648762778
1.764894926
1.755701144
1.73338877
1.807486647
1.840942272
1.808639182
1.772268477
1.822114574
1.826633329
1.801926411
1.775191592
1.799159296
1.800144609
1.753784573
1.711276837
1.684718512
1.707469898
1.694821001
1.683237633
1.647102173
1.671478126
1.657362376
1.616255249
1.571869514
1.53639178
1.553565763
1.534899911
1.495386264
1.420112365
1.436746823
1.444832851
1.413379384
1.349140295
1.352879517
1.369287566
1.325086142
1.259334098
1.245044948
1.276842446
1.221625868
1.149980704
1.123767345
1.136162255
1.093427975
1.073535636
1.074693703
1.059877719
1.035898564
1.041091803
1.041724467
1.012904797
0.997847284
0.9911563794
0.9869333176
0.9696254849
0.9780600423
0.9769732495
0.9262629691
0.8944410827
0.9196669711
0.8962541769
0.865194414
0.8741521652
0.8461209603
0.8555426985
0.8384853467
0.8326429302
0.8315554215
0.8074862908
0.8112997734
0.8125894849
0.8137815873
0.8021568989
0.7885957943
0.7912557223
0.7665231527
0.7581386934
0.7330776747
0.5496928254
0.001491818863
-4.723119977
-6.91365706
)


100
(
-146.0726497
-44.57686403
-21.06369526
-11.35592287
-6.631237783
-5.027972262
-2.833690262
-1.945456482
-0.9411543126
-0.341379916
0.1542717731
0.4991958575
0.8421420474
1.041663032
1.187218377
1.37925797
1.472247893
1.497638615
1.579066894
1.693404964
1.687921321
1.674478644
1.719510398
1.777628147
1.750711058
1.720108979
1.726828331
1.761203802
1.746849614
1.734780092
1.723122852
1.763920692
1.740149321
1.70704067
1.647085017
1.681330193
1.696729257
1.690324861
1.600461114
1.622218917
1.64252136
1.637278488
1.556095803
1.514074232
1.532370631
1.570351427
1.478681908
1.382874484
1.40209387
1.446806043
1.385667872
1.316145525
1.311833452
1.337074632
1.293965755
1.231235657
1.224202709
1.250357435
1.22294286
1.170972865
1.150251793
1.153901957
1.133238682
1.117450774
1.104437036
1.089839432
1.081237129
1.08333167
1.077497372
1.071675036
1.054309563
1.047279529
1.034000146
1.027765987
1.04114567
1.053660795
1.000717405
0.9906989098
1.001742772
0.9754033242
0.9784492065
0.9705615604
0.9383180347
0.9474722792
0.9480460433
0.9503670979
0.9451947511
0.9332067265
0.9217616646
0.9182517087
0.9297764604
0.9119468778
0.89810869
0.8961267187
0.8658088872
0.8124113399
0.5444744769
-0.9786521408
-6.519330373
-7.689572363
)


100
(
-145.2998138
-38.44180647
-19.72220963
-11.1261759
-7.935080733
-5.399619708
-3.471256219
-2.327033115
-1.414883353
-0.674448767
-0.1722196417
0.2563227368
0.5690513104
0.8612563706
1.032149597
1.174572272
1.34883963
1.43685219
1.47040531
1.539139397
1.649217022
1.663499534
1.657258692
1.674471071
1.749355876
1.736122249
1.705200825
1.711748082
1.761864778
1.769878748
1.746716398
1.706506993
1.745491384
1.776318818
1.720171997
1.641216603
1.668718387
1.73129209
1.680608597
1.580666633
1.594752929
1.623844855
1.620841327
1.530343257
1.489922015
1.538204259
1.566700674
1.467688994
1.375176166
1.410709729
1.433810528
1.379712741
1.319328445
1.31467377
1.337501016
1.314726124
1.282888435
1.286289988
1.292703375
1.293442622
1.272745838
1.247459941
1.224328887
1.202234472
1.193060255
1.173122369
1.148347996
1.145154826
1.134332417
1.132864819
1.126612184
1.11580053
1.103513991
1.090837814
1.072629333
1.085915105
1.114845701
1.096610432
1.088079487
1.079114093
1.078985943
1.093081088
1.074214524
1.054868994
1.050849423
1.038301872
1.03942939
1.039490939
1.045713762
1.022321713
1.014803218
1.021718435
1.005986327
1.001951893
0.9661007121
0.8324219593
0.4383523364
-2.222514006
-7.353435291
-7.876986972
)


100
(
-157.1152287
-34.28868554
-18.6601631
-12.27116977
-9.523929634
-5.719902923
-4.371060797
-2.694859939
-1.934873088
-1.063378306
-0.5004936428
-0.03297512379
0.3283070676
0.6160031919
0.8733280956
1.030986846
1.167153332
1.33150008
1.423612182
1.46528129
1.520310462
1.624892443
1.659544354
1.656867015
1.648356254
1.724404091
1.750711179
1.718277033
1.723584633
1.758702823
1.806634486
1.722886134
1.692265951
1.725976597
1.793269195
1.69496997
1.624869944
1.655836508
1.759682874
1.669780228
1.574520728
1.584404699
1.639935905
1.610476136
1.522988882
1.497235934
1.550987657
1.567719313
1.475064217
1.41713839
1.438224807
1.463896337
1.440533414
1.409394718
1.388294349
1.374481107
1.377383879
1.384393733
1.369242115
1.35431277
1.349867445
1.354285708
1.330065621
1.2950953
1.275300493
1.271804699
1.258041322
1.25144593
1.245782085
1.222753056
1.209621851
1.203894801
1.18885197
1.174512741
1.178578083
1.162632839
1.177935555
1.18167078
1.179296753
1.179379833
1.166830257
1.160524357
1.174040392
1.163693347
1.157681887
1.148078502
1.133360258
1.119393358
1.126146024
1.134986105
1.11591302
1.106909475
1.101291096
1.09144065
1.064496756
0.8545286486
0.2030972491
-3.41564806
-7.703708521
-7.103806416
)


100
(
-132.6337052
-33.0683381
-19.62253291
-14.50988578
-9.65750334
-6.576947238
-4.878729087
-3.344426764
-2.326962884
-1.571113708
-0.8295206204
-0.3600852849
0.06716053448
0.3783013607
0.6476627563
0.8805208317
1.030354965
1.159969175
1.314861699
1.410946835
1.455337447
1.49155112
1.590473079
1.649657805
1.653170672
1.645066933
1.703777608
1.729995327
1.692289839
1.699841846
1.746500775
1.800133534
1.690082929
1.668341499
1.727266092
1.773740505
1.670449669
1.607376824
1.688884713
1.739671418
1.658020506
1.56837958
1.597645535
1.625127414
1.597610059
1.523958817
1.532237259
1.568335742
1.596474513
1.541208241
1.525122092
1.508562239
1.51389375
1.522104575
1.508271115
1.467358406
1.426645085
1.407354067
1.409151721
1.400536476
1.386081856
1.387572734
1.39567182
1.400221319
1.386897573
1.377202734
1.355907961
1.330561845
1.33550324
1.32975191
1.299411862
1.282196775
1.273649823
1.269903986
1.274552461
1.260944467
1.244196897
1.254527977
1.248701282
1.240732665
1.245599946
1.245309803
1.245633273
1.246661118
1.246299141
1.244044163
1.23606617
1.218426367
1.206009004
1.218024045
1.215739097
1.200586527
1.192691472
1.17588776
1.150124368
0.8800577213
-0.1405037374
-4.264913048
-7.839670935
-7.966388688
)


100
(
-104.1947884
-38.15498329
-22.70254741
-15.4483461
-9.803419288
-7.842407933
-5.241398443
-4.156920932
-2.71683455
-1.991168851
-1.256835418
-0.6671642983
-0.2500642133
0.1372018679
0.4145877409
0.6667826038
0.8807614816
1.023902284
1.138280789
1.281429315
1.385986679
1.43604624
1.454633803
1.547168287
1.63061269
1.634486279
1.635135918
1.666110069
1.690067565
1.655515261
1.664445754
1.770121642
1.752194536
1.651182736
1.63567394
1.736922528
1.735149036
1.638174339
1.598944106
1.679746965
1.70683282
1.637410379
1.568762714
1.588218701
1.620608097
1.613989197
1.597675284
1.599221417
1.600694786
1.622313566
1.617111661
1.58887614
1.551661945
1.520581994
1.521300273
1.545921583
1.51510596
1.478576978
1.454274638
1.442670608
1.442249039
1.442983475
1.454479542
1.446516868
1.427459249
1.427262558
1.430123252
1.402687704
1.380060627
1.383775691
1.387797332
1.386606812
1.375342402
1.340832588
1.328236625
1.338097173
1.319795629
1.313165413
1.32278167
1.324321736
1.317473107
1.314004875
1.317568312
1.32180566
1.323041959
1.326941454
1.321167836
1.307139911
1.294632894
1.295126162
1.299311482
1.288268451
1.277845315
1.259755871
1.229527184
0.9025766433
-0.5805076472
-4.948824164
-7.9264631
-7.641151487
)


100
(
-88.7162196
-41.17910223
-23.83454593
-15.12409859
-10.94241328
-8.452463424
-5.939054933
-4.572696658
-3.359986507
-2.343857866
-1.7206865
-1.035155484
-0.5510802761
-0.1662444768
0.186909292
0.4381699239
0.6695983476
0.8673356685
1.007763647
1.108543216
1.241923462
1.354777483
1.404882151
1.427765417
1.487839007
1.573133141
1.597982566
1.607210382
1.620397138
1.63697894
1.60867201
1.64776961
1.742038493
1.702756255
1.606958947
1.631625883
1.692892524
1.690439942
1.602933011
1.608486101
1.651470078
1.693395331
1.654150207
1.635563435
1.612325931
1.627056159
1.647959081
1.648533462
1.629018971
1.604077616
1.583777105
1.60526743
1.60325236
1.574493709
1.543304798
1.537912664
1.537211197
1.555454665
1.544473375
1.52939955
1.500410083
1.46696476
1.47318861
1.488861581
1.470575251
1.447662568
1.451458972
1.458653098
1.466306709
1.468525615
1.446524743
1.416468036
1.430591295
1.417678384
1.389184388
1.38427723
1.394823967
1.392172096
1.384379483
1.3815009
1.384632206
1.383338537
1.383153302
1.386476492
1.389082246
1.385132187
1.394995816
1.384362939
1.374856015
1.369669528
1.360756328
1.352622351
1.336410495
1.322121546
1.251208064
0.8765757541
-1.248221797
-5.73716668
-7.782707773
-7.286389679
)


100
(
-85.27874572
-38.47427798
-22.97947756
-15.26231191
-12.63206366
-8.710596517
-7.008390754
-4.939082244
-4.034288292
-2.828706533
-2.075149073
-1.493912032
-0.8783043383
-0.4594970345
-0.1049471133
0.2185677908
0.4469327464
0.6590092975
0.8485683765
0.9867825438
1.071282218
1.192829308
1.315704837
1.363609829
1.393524761
1.425495115
1.505772126
1.559808273
1.575302516
1.60134809
1.578178885
1.555447823
1.659320619
1.695423459
1.657896023
1.574498882
1.614145504
1.65105381
1.666306651
1.638753914
1.645328572
1.669974792
1.710918125
1.709288939
1.681422604
1.639509761
1.604437851
1.620604816
1.654630663
1.637591841
1.614308488
1.59269304
1.585464992
1.599964374
1.610998028
1.599579539
1.597543492
1.573082856
1.555191314
1.571677776
1.572714885
1.535599833
1.497300723
1.494062519
1.512983023
1.521113689
1.52015027
1.507807319
1.482782673
1.511259059
1.516987095
1.484049748
1.465763011
1.47197193
1.473903383
1.459016411
1.446895886
1.446473716
1.448723866
1.447818126
1.447337328
1.447720878
1.440687226
1.434112152
1.441061891
1.439696025
1.445839795
1.448436857
1.443071256
1.435128329
1.424664516
1.412662082
1.387650202
1.36840151
1.228877072
0.733954957
-2.195993911
-6.716667854
-7.804599126
-7.687957938
)


100
(
-90.53060811
-36.20992438
-22.23631656
-17.24422392
-13.2124818
-9.447698595
-7.682342318
-5.735154188
-4.464403721
-3.510486428
-2.463675451
-1.862078455
-1.296416973
-0.7642595915
-0.3935720113
-0.07027034862
0.2294411237
0.4411520459
0.6335946649
0.8175244931
0.9534217453
1.043535581
1.143965345
1.259630361
1.326569771
1.36425192
1.37997539
1.449791221
1.527260414
1.551800736
1.584837632
1.544122088
1.552692506
1.6286807
1.659975742
1.629879122
1.614667507
1.617479318
1.665940766
1.696789599
1.704602891
1.690883535
1.668095555
1.679695172
1.71423125
1.706020753
1.66906218
1.631948741
1.618269007
1.637887834
1.661499364
1.656609788
1.652796457
1.642572941
1.615745436
1.630068858
1.658370522
1.646773854
1.612066964
1.579340499
1.572982707
1.59626953
1.598114892
1.586807982
1.572191218
1.55172819
1.57131393
1.582001746
1.545158026
1.5208576
1.545534669
1.564221551
1.555821353
1.554223955
1.550784526
1.548215845
1.533082961
1.51855069
1.515809505
1.51465959
1.508866956
1.509649113
1.508467937
1.501082329
1.494488964
1.494895368
1.501421527
1.504255411
1.496348043
1.492152163
1.481221105
1.468138914
1.446680724
1.41142541
1.222653295
0.4122555382
-3.268743086
-7.678167708
-7.508056418
-7.263887767
)


100
(
-84.83049079
-36.20666531
-24.29211777
-19.40313274
-13.36180041
-10.89093503
-8.135695981
-6.816765635
-4.961629666
-4.058387508
-3.085905369
-2.210192276
-1.693091161
-1.161961838
-0.6934157003
-0.3614168052
-0.0656612495
0.2163623925
0.4185189374
0.595258678
0.7791210251
0.9142138075
1.012740602
1.098708063
1.209239128
1.296019486
1.338983612
1.368253589
1.405184775
1.480578903
1.542104971
1.579914526
1.543768209
1.563115896
1.619313322
1.674342741
1.679713654
1.684834044
1.656786694
1.655643901
1.699315172
1.721595576
1.708498981
1.690264683
1.672334943
1.699083027
1.72686602
1.712674391
1.684744785
1.683568741
1.674649114
1.693371561
1.726536341
1.73601158
1.707648464
1.665823329
1.634847402
1.674698192
1.687873506
1.668212711
1.660574008
1.646657336
1.646229521
1.674527857
1.683292805
1.637558117
1.593321924
1.602319305
1.62467474
1.605362295
1.610616361
1.617470222
1.62255358
1.62463991
1.624128278
1.624659253
1.619832368
1.608506764
1.59344856
1.588373634
1.584260481
1.581044873
1.577034934
1.571640852
1.572853856
1.571862183
1.558645899
1.569221926
1.566551399
1.567653042
1.561265194
1.550013669
1.532302816
1.491500243
1.232969052
-0.2015485765
-4.142384352
-8.395951505
-7.463289501
-7.148295769
)


100
(
-74.33858856
-39.60933711
-26.99356305
-19.25873629
-14.28921487
-11.95650575
-8.9237577
-7.402866459
-5.892522446
-4.524743696
-3.736775034
-2.778352958
-2.056863215
-1.580594881
-1.088745537
-0.6624602174
-0.3578964888
-0.08583510109
0.1817303137
0.3823397437
0.5493105423
0.724808617
0.8674324776
0.9757220679
1.049182882
1.158554159
1.261686784
1.311686377
1.353170997
1.380961201
1.441750715
1.52126078
1.566676684
1.582249039
1.615876959
1.627721143
1.668077185
1.707325967
1.697187865
1.675647082
1.650477975
1.673831902
1.728000655
1.726006876
1.713561346
1.705710958
1.705243481
1.728537299
1.762508116
1.768046855
1.769181185
1.740732997
1.708693577
1.737959714
1.78686137
1.756957878
1.719156259
1.698220264
1.704225575
1.738971636
1.773616617
1.773352889
1.72423905
1.677567142
1.712205799
1.730973236
1.696185613
1.678671703
1.679118048
1.686847721
1.685717498
1.676045623
1.668983085
1.675455326
1.682086336
1.686585537
1.686969133
1.683147691
1.673662133
1.664915252
1.658241809
1.660028262
1.656240514
1.651746006
1.642835171
1.639987912
1.639168385
1.641423992
1.648041437
1.645548854
1.644596323
1.645267405
1.623375846
1.563189544
1.247508258
-0.8987098247
-4.837818797
-8.626749429
-6.777818834
-5.72630212
)


100
(
-67.45180624
-40.71838738
-26.97021449
-19.18161586
-16.06727205
-12.2955719
-10.22893543
-7.870814464
-6.81322657
-5.240938143
-4.199848866
-3.472831488
-2.569354347
-1.948738488
-1.517564052
-1.060197615
-0.6633956887
-0.3757545188
-0.1245606192
0.1302064131
0.3333915213
0.4935417711
0.6604097952
0.8078573163
0.9239838219
1.013043205
1.101780772
1.201965574
1.281748919
1.330274601
1.377147889
1.4075882
1.48687392
1.567537945
1.596449844
1.613213022
1.602646132
1.621684204
1.676435743
1.70018607
1.68195559
1.666045727
1.660534128
1.695354721
1.731092877
1.737769648
1.748073508
1.762728899
1.74256571
1.764272029
1.799745783
1.800605094
1.769512968
1.738481099
1.739207941
1.776009487
1.805676506
1.791009336
1.800638009
1.774065953
1.771047068
1.811579411
1.814389996
1.76499201
1.730958656
1.743102796
1.763491745
1.770819557
1.763487409
1.754817447
1.754809184
1.754538037
1.744214799
1.737016487
1.735928994
1.737372302
1.740078575
1.745573508
1.749805004
1.746666684
1.732456365
1.722680347
1.725106942
1.728625873
1.725321398
1.709577942
1.707185816
1.709834906
1.718714436
1.723530185
1.706216566
1.699659157
1.690617881
1.622981521
1.285717638
-1.490415007
-5.215484973
-8.740199233
-6.859953446
-6.639293366
)


100
(
-66.83244886
-39.32587954
-26.39642166
-20.38049932
-17.14592452
-12.86546511
-11.09904749
-8.780474668
-7.294258296
-6.167164059
-4.735972524
-3.914642809
-3.214257142
-2.423080096
-1.878924797
-1.492730685
-1.066568654
-0.6885454364
-0.4113623616
-0.1777201903
0.06376349436
0.2710926788
0.4269513902
0.5865413576
0.7401097206
0.8582924855
0.9621620592
1.038512406
1.141025123
1.240622274
1.303219414
1.36080491
1.392615497
1.437655946
1.509206682
1.572837266
1.584640242
1.588057303
1.577533541
1.622777834
1.672850879
1.677765198
1.666472694
1.677284338
1.684999396
1.717649831
1.762986852
1.780101372
1.778892424
1.757321863
1.731009598
1.774969655
1.808485396
1.780744842
1.761409206
1.78519429
1.790881834
1.828887784
1.8593118
1.83511364
1.794472885
1.763942764
1.815174562
1.838788574
1.811897777
1.812615663
1.81318781
1.815685827
1.815813939
1.809806277
1.805124687
1.803179172
1.811308605
1.804881932
1.798426139
1.796251379
1.796434562
1.801419941
1.797021596
1.790641787
1.800241831
1.800550482
1.809680472
1.786499622
1.773489229
1.778251124
1.774977776
1.770983765
1.764665115
1.778223389
1.78101454
1.749945073
1.747741884
1.679992412
1.399278614
-1.854425558
-5.353109986
-8.777785034
-6.819958438
-6.387018923
)


100
(
-68.71641977
-37.803249
-26.53646938
-22.24696738
-17.15811942
-14.27371914
-11.49084957
-9.964823691
-7.807535645
-6.73782765
-5.564169208
-4.346277492
-3.689271674
-3.038907784
-2.329726595
-1.840664743
-1.493534119
-1.097741838
-0.7341624489
-0.4613719971
-0.2430770817
-0.01699746256
0.1941730418
0.3617277735
0.5087296587
0.6556381618
0.7854231524
0.900503369
1.001408502
1.082120621
1.177234573
1.267194282
1.319506619
1.359156842
1.375119536
1.441970663
1.520327057
1.546591289
1.554721147
1.562458374
1.568183933
1.612492908
1.663392559
1.682285951
1.708263297
1.708926289
1.681343965
1.717199753
1.777813251
1.768452644
1.750910936
1.733927263
1.738302844
1.774801414
1.812130106
1.822418753
1.823583625
1.790244231
1.801357456
1.853178287
1.839271202
1.804057345
1.802854625
1.82304896
1.841765836
1.857964629
1.857247672
1.849967778
1.854413768
1.85891263
1.853769823
1.846060331
1.8436157
1.841696815
1.836474993
1.831866686
1.850439395
1.858957637
1.861699905
1.848583239
1.840938418
1.833654837
1.847412932
1.859927908
1.84323071
1.833731574
1.826411798
1.824464783
1.823539686
1.814716012
1.833873482
1.818601635
1.801553671
1.706413026
1.304025844
-2.125392554
-5.528661341
-8.862840678
-6.286559762
-5.729792014
)


100
(
-65.22637781
-38.82598883
-28.37505482
-22.7651645
-17.44844017
-15.44504315
-12.13062323
-10.53031712
-8.837664243
-7.18575739
-6.275765019
-5.142428597
-4.106192694
-3.540196026
-2.93780312
-2.289464764
-1.830331951
-1.517769261
-1.155964263
-0.8007162541
-0.5254063688
-0.3175789171
-0.1096498304
0.1056131036
0.2854801086
0.4306125016
0.575670423
0.7196489655
0.838382086
0.9503984301
1.017775992
1.105556553
1.195942738
1.263894937
1.306090211
1.338862342
1.368999965
1.444910543
1.501994892
1.516398236
1.53354286
1.56823692
1.578095723
1.63358818
1.683303946
1.707399406
1.697130759
1.678349773
1.669354738
1.727336879
1.756968747
1.737734454
1.75573757
1.764786257
1.77152469
1.799324893
1.845699818
1.819680257
1.790697435
1.784854337
1.821511026
1.848864218
1.834170335
1.844380003
1.847529971
1.854920833
1.861853749
1.862853867
1.86219702
1.863602212
1.875922611
1.890308161
1.88641877
1.886408308
1.885767357
1.878839258
1.870716538
1.866596457
1.876326085
1.89910249
1.901225819
1.888170322
1.868924394
1.875710366
1.890403874
1.898303321
1.886234637
1.870214993
1.86541944
1.862533525
1.855631629
1.859845493
1.841713035
1.744498581
1.308866309
-2.992890481
-5.732288478
-8.892324072
-5.972125456
-6.102062178
)


100
(
-60.71464398
-40.78695339
-29.60211838
-22.52698791
-18.89597909
-15.69412632
-13.40908314
-10.95480995
-9.798507887
-8.046658184
-6.785248474
-5.98180101
-4.8620469
-3.966768085
-3.46173712
-2.901870832
-2.296566534
-1.854707402
-1.565553415
-1.241462714
-0.8892316778
-0.6124000176
-0.3970053283
-0.1984693681
0.009412176533
0.2007869065
0.3648921689
0.5032420978
0.6379148777
0.7640534405
0.877132587
0.96246801
1.024648816
1.112867408
1.202850475
1.242953786
1.286152927
1.326889703
1.373954403
1.43035797
1.497946741
1.528477058
1.564977899
1.565049766
1.575828251
1.632121592
1.698840879
1.677319758
1.665258428
1.663830992
1.678415657
1.733200406
1.783687946
1.803261832
1.778279238
1.738804485
1.778569367
1.831026414
1.816943808
1.797537359
1.811422309
1.826497119
1.838473038
1.843011998
1.853053628
1.853068206
1.866543121
1.877767687
1.879125048
1.880667617
1.885911979
1.890303876
1.89371997
1.896500308
1.902989012
1.920610026
1.913507793
1.907203968
1.911044996
1.917512746
1.90531211
1.913232854
1.913347119
1.907511128
1.906417455
1.905554418
1.912805319
1.914440308
1.907932461
1.909222579
1.903347967
1.894206014
1.88501963
1.779896989
1.186416143
-3.724818159
-5.750478585
-8.834379229
-5.45515912
-5.945062789
)


100
(
-57.07833266
-40.20112534
-29.14127815
-22.90231984
-20.28865656
-15.94693113
-14.32877159
-11.89590056
-10.29129636
-9.121663658
-7.478227248
-6.465246008
-5.740182354
-4.675541658
-3.879693382
-3.431436677
-2.913556822
-2.346719167
-1.905558751
-1.63275654
-1.354232413
-0.9979770113
-0.7127838422
-0.4804306508
-0.2869652272
-0.09377004977
0.1064579598
0.2842260982
0.4198038348
0.5483818836
0.6772498147
0.786497036
0.8832170452
0.9534004432
1.027232414
1.111404805
1.182680475
1.22454439
1.285153764
1.337852092
1.388308587
1.443815134
1.507192631
1.526992445
1.537807994
1.533778394
1.581072958
1.63376819
1.661988864
1.653663384
1.69149438
1.695406996
1.717937153
1.768936496
1.803253645
1.774820132
1.743539826
1.759789041
1.798059619
1.832177305
1.835749656
1.842924435
1.848213616
1.856429933
1.863132115
1.86659537
1.86700354
1.868705311
1.872583913
1.892075972
1.899676346
1.907244794
1.917313445
1.924630142
1.927980845
1.923844084
1.918552711
1.918349145
1.947358712
1.966319666
1.957271807
1.943319915
1.938949848
1.954581952
1.965668622
1.953581959
1.948683352
1.950788496
1.951152119
1.945088853
1.952760628
1.939622956
1.932999158
1.812101842
1.15686509
-4.000455916
-5.491755005
-8.761925503
-5.196427577
-5.553977966
)


100
(
-58.57819224
-39.34129543
-28.75732789
-24.29528354
-20.30823392
-17.20757149
-14.7328144
-13.12989253
-10.89257845
-9.699075224
-8.491555423
-7.051203105
-6.224214625
-5.545987561
-4.5798706
-3.836605129
-3.43838667
-2.974584805
-2.433894447
-2.007625971
-1.711724386
-1.445003146
-1.12098189
-0.8273131809
-0.5791673149
-0.3783232449
-0.1948231484
-0.005315061268
0.1793447079
0.3300756844
0.4498393485
0.5693652549
0.6860295771
0.7850743896
0.8739978877
0.943261566
1.020448485
1.100695258
1.175136428
1.246031153
1.302297307
1.32200529
1.373644001
1.444143975
1.484719488
1.495227815
1.507839151
1.52944767
1.578060582
1.637770366
1.68319245
1.698817346
1.681847858
1.667751066
1.743696294
1.790194441
1.769145204
1.766827994
1.787351753
1.807543858
1.82011525
1.82491418
1.84283976
1.859888534
1.876052874
1.889107447
1.891986956
1.897659074
1.902129546
1.904797679
1.907297578
1.914035909
1.909744006
1.931281397
1.952405654
1.953952611
1.956388252
1.962393609
1.950158819
1.94746365
1.984311907
1.989631366
1.986020475
1.989824046
1.992311537
2.003078072
2.00378287
1.999740292
1.996592161
1.994243016
1.99443308
1.998794855
1.98411277
1.874502955
1.013641981
-4.060231203
-4.948707616
-8.722800052
-4.131752185
-4.142105378
)


100
(
-59.13566259
-39.12961709
-29.85583902
-25.3656069
-20.42620234
-18.49928442
-15.21335809
-13.69415085
-12.01259477
-10.16677866
-9.221402637
-8.040063688
-6.765631121
-6.074034266
-5.437337189
-4.549091141
-3.850668495
-3.471809663
-3.087967545
-2.551099029
-2.12891311
-1.796494421
-1.538961087
-1.265252889
-0.9643740212
-0.6972671221
-0.475463939
-0.3039013369
-0.1384384453
0.04950994162
0.2150665436
0.3416425029
0.4574693554
0.5700615234
0.6732917398
0.7695708212
0.8645326727
0.933310344
1.021159663
1.100474986
1.172812384
1.230552839
1.273619382
1.294572292
1.365950188
1.419099414
1.437430037
1.472925419
1.534855991
1.540797994
1.585244732
1.649755174
1.66257836
1.657769931
1.653208246
1.703594129
1.748294762
1.785756564
1.799173165
1.806422383
1.814684242
1.827533984
1.839714987
1.850476192
1.856726487
1.862568981
1.871825152
1.897149112
1.920109019
1.927217866
1.938586385
1.948833425
1.956216573
1.949115892
1.944442373
1.950185041
1.965947686
1.996447798
1.994471205
1.979563679
1.986560401
1.994524185
2.013472015
2.021744535
2.014028387
2.017918676
2.02265607
2.025998694
2.026454
2.028382282
2.017143561
2.028807409
2.014974747
1.946640732
0.94990444
-3.972853448
-4.264332202
-8.799433752
-4.217621786
-5.019009562
)


100
(
-55.87622768
-40.26949391
-31.08844671
-25.14589059
-21.41364604
-18.67220354
-16.3486945
-14.10189423
-12.90314542
-11.19944669
-9.747877303
-8.887634981
-7.713578619
-6.583237887
-5.971414841
-5.396490132
-4.572906326
-3.932924796
-3.524499191
-3.170215411
-2.68917991
-2.26586085
-1.901569022
-1.646147376
-1.402383105
-1.111958718
-0.8351046989
-0.5953194127
-0.4223067251
-0.2737854625
-0.1002081888
0.07402213589
0.2215832842
0.3347651113
0.4445027395
0.5510856178
0.6566158696
0.7675599381
0.8548742128
0.9163563639
0.9978315896
1.09134374
1.141919619
1.196293537
1.241249154
1.277027345
1.335498725
1.406066315
1.44847874
1.484933303
1.492203458
1.514534157
1.592641519
1.628818793
1.621720156
1.652354841
1.688794373
1.720354593
1.74136796
1.764183258
1.786465793
1.812629591
1.833295435
1.849404606
1.857836126
1.870969864
1.881635172
1.889547756
1.895497083
1.904450151
1.909483621
1.937640152
1.977776699
1.983715027
1.977866372
1.992584977
1.997048961
1.975174919
1.974209291
2.003733996
2.005149513
2.017399049
2.029735139
2.031634113
2.052058144
2.060807445
2.064136364
2.058710528
2.066056356
2.064658966
2.063137469
2.063937155
2.049863626
2.030789771
1.130086242
-3.672219952
-3.392316596
-8.826799202
-2.985520137
-2.616797928
)


100
(
-53.4632359
-40.505598
-30.88866669
-25.15129844
-22.57978046
-18.84510999
-17.23544013
-14.91187226
-13.36590012
-12.29948048
-10.57277535
-9.366448724
-8.621465611
-7.484964447
-6.476439432
-5.906019973
-5.413557585
-4.641160787
-4.036705631
-3.589976056
-3.255222461
-2.850006382
-2.43297072
-2.068154313
-1.752750935
-1.524581837
-1.286633172
-1.000936221
-0.7495964741
-0.5519463716
-0.4104915619
-0.2644641681
-0.09049116904
0.06758104616
0.202551321
0.315891111
0.4253807617
0.535254331
0.6417900821
0.742844964
0.819655409
0.8921195288
0.9822654569
1.059472934
1.110631102
1.176292716
1.232474556
1.275788744
1.318116306
1.393429134
1.416248858
1.441041115
1.455085547
1.514970879
1.56884685
1.599217221
1.632909386
1.654784179
1.679180269