/*--------------------------------*- C++ -*----------------------------------*\
| =========                 |                                                 |
| \\      /  F ield         | OpenFOAM: The Open Source CFD Toolbox           |
|  \\    /   O peration     | Version:  2.3.1                                 |
|   \\  /    A nd           | Web:      www.OpenFOAM.org                      |
|    \\/     M anipulation  |                                                 |
\*---------------------------------------------------------------------------*/
FoamFile
{
    version     2.0;
    format      ascii;
    class       dictionary;
    location    "constant";
    object      PM25;
}
// * * * * * * * * * * * * * * * * * * * * * * * * * * * * * * * * * * * * * //

PM25_table
100
(

100
(
-66.44522709
21.75104591
8.839631999
6.505492854
6.037636246
5.696301925
4.305853552
4.466361649
3.828371173
3.615525439
3.634036766
3.074267591
3.052305376
2.916298806
2.499710545
2.435456925
2.439263987
1.996502462
1.920504048
1.944988688
1.701279012
1.560238497
1.535224039
1.49728786
1.322554559
1.286150481
1.286097552
1.202583115
1.023963355
0.9714686792
0.9637815815
0.9128046038
0.8466800265
0.8273730907
0.824750303
0.777108362
0.6318559214
0.5568400574
0.5289756463
0.497184588
0.4203653583
0.3755630605
0.3548339728
0.3355609867
0.295400793
0.2718465769
0.2573432499
0.2524193457
0.1763073368
0.1263293084
0.09768701222
0.07654235537
0.04087005876
0.0178896136
0.003700567873
-0.01079533801
-0.02397655197
-0.03164826885
-0.03764210527
-0.05186731285
-0.07688894465
-0.09076860281
-0.1069041952
-0.1277983708
-0.1461091568
-0.1600738903
-0.1743590634
-0.1983378632
-0.2080437774
-0.2213768822
-0.2372442091
-0.2536563182
-0.2594829176
-0.2701176684
-0.282182258
-0.2862493909
-0.2950790423
-0.3072124313
-0.3109613976
-0.3169267558
-0.3253234946
-0.3274725451
-0.3320542791
-0.3367358917
-0.3358700098
-0.3405086822
-0.3412240323
-0.3406321442
-0.3427104044
-0.3403436203
-0.3414597263
-0.3395428714
-0.340264031
-0.3392052962
-0.3405297878
-0.3404745716
-0.3431966366
-0.3537867963
-0.4243424536
-0.5537705021
)


100
(
-74.38674767
16.90448437
7.820399247
6.006202499
6.185307771
5.146091051
4.63263191
4.163680014
3.887887027
3.41503305
3.401760999
2.987475006
2.880547595
2.776766975
2.45302033
2.327527228
2.274704203
2.017395682
1.856408193
1.825286762
1.678392474
1.543457676
1.470877733
1.421164582
1.322753495
1.254061231
1.220866742
1.154864699
1.04627253
0.9703543631
0.9256611648
0.8794768559
0.8362772182
0.8063184854
0.7859177566
0.7467137373
0.6574465928
0.5894961788
0.5401811943
0.4951575569
0.4378696992
0.3971783856
0.366814411
0.33899652
0.305536857
0.2829883153
0.266342071
0.2522665146
0.2045524901
0.1662264814
0.1357751288
0.1072618479
0.07466882143
0.04935505126
0.03322410655
0.01509446366
0.001528974416
-0.01286607451
-0.01929044569
-0.03212822561
-0.0473832052
-0.06535107669
-0.07439040744
-0.09099024482
-0.1110917103
-0.1271349022
-0.1396817833
-0.1575896377
-0.1766239197
-0.1880475233
-0.2035790395
-0.2189952858
-0.2333352745
-0.2439152231
-0.2559654398
-0.2615320576
-0.2668915405
-0.2779246946
-0.2858508765
-0.2937036232
-0.3004433784
-0.3070236861
-0.3119613134
-0.3163053128
-0.3215023451
-0.3249256582
-0.3293424392
-0.3328126494
-0.3353127244
-0.3378764703
-0.3402389762
-0.343016611
-0.3442714939
-0.3463976451
-0.3475818376
-0.3491465903
-0.3497199249
-0.329207237
-0.3840670171
3.995159071
)


100
(
-41.86147833
13.1131406
6.547828471
6.476067167
5.995012743
4.552427384
4.77118036
3.765833919
3.797955162
3.304875735
3.111227703
2.951536489
2.652116172
2.60702963
2.445452641
2.218030648
2.128279693
2.031833763
1.851781883
1.713463115
1.654820776
1.546577463
1.436128441
1.35278365
1.308458097
1.23181356
1.171709127
1.121273436
1.077329783
0.9965818344
0.9233827891
0.862086378
0.8238006691
0.7862871706
0.7585948232
0.7341456246
0.7025520565
0.6546909924
0.5975010309
0.542918127
0.4933573192
0.4515106711
0.415350126
0.3837389938
0.3520989046
0.3249692861
0.30142958
0.2858370444
0.265186957
0.2437912876
0.215368272
0.1883664574
0.1560220328
0.1306249466
0.1074186612
0.08791697364
0.06290092034
0.04215337372
0.02303976186
0.008822464186
-0.003907045087
-0.01622540049
-0.02904640085
-0.03964535745
-0.05581884773
-0.06735822004
-0.08054364946
-0.097495669
-0.1152748147
-0.1240869783
-0.1348702572
-0.1482874749
-0.1584872509
-0.1686317229
-0.1883662632
-0.2029490077
-0.20091595
-0.2094171571
-0.2223323788
-0.2231595062
-0.2357811055
-0.2407799243
-0.2480235885
-0.2598131421
-0.2548455684
-0.2657508397
-0.2683225042
-0.2666403167
-0.2773747675
-0.2759175723
-0.2792942486
-0.280495622
-0.2901362406
-0.2897383471
-0.2940547725
-0.299074507
-0.3097819077
-0.2712473053
0.9599765207
1.578616232
)


100
(
-9.241502337
14.72313199
7.415268976
7.086669336
5.202146117
4.733958447
4.322442587
3.920924468
3.530206438
3.40275382
2.93145273
2.885224904
2.680639475
2.474305281
2.419728646
2.261488677
2.079522585
1.990152455
1.906719945
1.757892234
1.628639973
1.560347673
1.476135879
1.377084961
1.288190245
1.240378682
1.184815693
1.128942415
1.075538457
1.033804143
0.9802188145
0.9125374581
0.8491572913
0.8005080381
0.7722889957
0.7473483462
0.722268739
0.6924358677
0.6652847132
0.6267022862
0.5780150993
0.5300691691
0.4945283871
0.4686331789
0.438014156
0.3959874376
0.3603345023
0.335407991
0.3195803308
0.2953980971
0.2702442715
0.249714159
0.2298580623
0.2001851529
0.1697515136
0.1505359041
0.1307724956
0.1046738224
0.0723675642
0.04998107583
0.03038304185
0.01806634599
0.003156519548
-0.007199339316
-0.01516440668
-0.02249706326
-0.02757432422
-0.03310603038
-0.0457685567
-0.05811981822
-0.06376965666
-0.07016636023
-0.07613470219
-0.07704890502
-0.08320162933
-0.111331083
-0.1295001678
-0.1244187174
-0.1373798829
-0.1516081266
-0.1511244817
-0.1653930305
-0.1649528905
-0.1754502403
-0.1795605489
-0.1835791251
-0.1948469653
-0.1924413277
-0.1936443592
-0.1977047769
-0.20684721
-0.2119903894
-0.2177100475
-0.2345250126
-0.240596815
-0.2570499808
-0.2818476585
-0.001141875672
3.761833869
5.716777905
)


100
(
2.121388199
15.81556523
8.226725342
6.107569397
4.808751851
5.04154339
4.001098719
4.103921719
3.432185614
3.333558424
3.063966505
2.775917379
2.737404337
2.511323728
2.356062373
2.300064415
2.154787832
1.994755781
1.907459398
1.844126707
1.70653811
1.584687922
1.509386868
1.446252483
1.352222214
1.26908964
1.21151456
1.172829199
1.122004262
1.074782731
1.029557929
0.9954308437
0.9380799978
0.8779951996
0.823258617
0.7980148092
0.7773066438
0.7469477447
0.7034921785
0.6774189737
0.6562844078
0.6188463456
0.5673602602
0.528782336
0.5102439039
0.4828754763
0.4304666183
0.3804106444
0.355665189
0.3396700389
0.3120777806
0.2786481122
0.2570010438
0.23735805
0.2105721582
0.1831425593
0.1672408665
0.1565930613
0.1375384605
0.1124955724
0.0940848774
0.0805789822
0.06701701095
0.05228039215
0.040898884
0.03187894807
0.02527152613
0.02163521869
0.01990218736
0.01153286508
0.002289488314
-0.007516383306
-0.01715317771
-0.02313589827
-0.01392256354
-0.01549168893
-0.04729815313
-0.05427790146
-0.05116757328
-0.07117343861
-0.07524787957
-0.08247967039
-0.1003328374
-0.1015280206
-0.1018544793
-0.1045793185
-0.1134712243
-0.1235193328
-0.1311181906
-0.1373272124
-0.1388642333
-0.1530581326
-0.1658282011
-0.1762747573
-0.2018593487
-0.2348079478
-0.257436355
0.9158627087
5.314400374
6.578976807
)


100
(
0.3715633234
12.12640997
6.961083817
5.42310205
5.20039986
4.693073793
4.151760731
3.893166399
3.659871419
3.225873101
3.219100903
2.857219909
2.677818462
2.612434472
2.411150543
2.28506776
2.233375508
2.101204043
1.957315584
1.868356082
1.811544239
1.692612767
1.578461696
1.492799816
1.442178598
1.356734019
1.279952882
1.232779564
1.207740726
1.164650921
1.110360737
1.054712739
1.023973998
0.9857775384
0.921015082
0.8577722533
0.8328402929
0.8174173966
0.7718766509
0.7147879373
0.6841256986
0.6637125913
0.6262618772
0.5734883697
0.5392917733
0.529060952
0.5034083398
0.4469520855
0.3970020928
0.3733883399
0.3580406129
0.3288084382
0.2976865128
0.2794244275
0.2658163394
0.2491787755
0.2334141061
0.2272628305
0.2257464474
0.2144867016
0.1959436484
0.1760603701
0.1559830981
0.1378052601
0.1189145059
0.1015235674
0.08666147512
0.07433853007
0.06958084253
0.0633372174
0.05554400681
0.0470087009
0.03835157861
0.02319908511
0.01106629141
0.02314039177
0.03350334471
0.02055274254
0.009927437521
0.003855209295
0.003759990146
0.002282257269
-0.0122410823
-0.02746603451
-0.03804895913
-0.04979992732
-0.054984215
-0.06279090843
-0.06562052809
-0.08595088149
-0.09458950441
-0.09970473796
-0.116791432
-0.1314631656
-0.1671892513
-0.2316865653
-0.2160296532
2.208340742
6.185739927
6.946606382
)


100
(
-5.826562153
9.553748927
5.986297943
5.449336763
5.589594396
4.360026708
4.455667605
3.718316541
3.783243358
3.357684262
3.151586479
3.04442789
2.721205781
2.609401645
2.525818607
2.352650363
2.243640206
2.19540558
2.080001584
1.948219025
1.852260609
1.797803173
1.697532913
1.588231131
1.490354512
1.444207557
1.382852036
1.311807514
1.270188505
1.244335319
1.211223224
1.129351261
1.070484522
1.038911093
1.009309713
0.9324690062
0.8701112716
0.8510151218
0.8439071975
0.7885354749
0.7230590028
0.690870793
0.6726325743
0.6320576921
0.5817504638
0.5546008094
0.5498684624
0.5264157411
0.4771272811
0.436485536
0.4220087064
0.4139799975
0.3940374845
0.3679348459
0.3471001525
0.3324088713
0.3204240119
0.312057722
0.3038486272
0.2941956576
0.2850943902
0.2694871177
0.2465816413
0.2206187672
0.2008624991
0.1872319913
0.1758107497
0.1622660627
0.1484508627
0.1368799646
0.1246643103
0.1109311264
0.09834323102
0.08952822878
0.08030810561
0.07287764542
0.07624886899
0.07982670581
0.07890967435
0.06943621249
0.05997578587
0.0541500556
0.05182450521
0.04113452185
0.02918574803
0.01726411872
-0.00258800348
-0.01827858683
-0.02196794817
-0.02453743531
-0.04616965455
-0.05831216549
-0.07259073639
-0.09266848922
-0.1261096875
-0.226092595
-0.114080227
3.4895363
6.714769258
6.652836535
)


100
(
-1.95395756
8.099459882
5.717446141
5.875149532
5.051989893
4.470665092
4.288539629
3.912414265
3.656784782
3.588313631
3.133744179
3.055778662
2.889227682
2.618541494
2.546750684
2.458373674
2.307350925
2.210900394
2.166099976
2.060879775
1.935185525
1.829454334
1.7814006
1.705318094
1.603528514
1.505003146
1.446721377
1.381400942
1.308264219
1.274000477
1.256804959
1.224690379
1.129476862
1.069738468
1.045477663
1.009136155
0.9317410312
0.877232396
0.8730416913
0.8564696396
0.7969462964
0.7337742506
0.7049178817
0.6829249607
0.6459219451
0.6088855747
0.596423171
0.6002539621
0.5878354275
0.5549343421
0.5260721382
0.5110112437
0.5010061364
0.4854638164
0.458534159
0.4256674807
0.3931783151
0.368842539
0.3512227655
0.3378667821
0.3294358047
0.3257834784
0.3249784189
0.3177965324
0.3021014881
0.283192453
0.2654229096
0.2508634318
0.2376364372
0.2203864085
0.2000423193
0.1806167018
0.1682237901
0.1589853131
0.1509191792
0.1421645189
0.1334583361
0.1277328629
0.1253506624
0.1185985838
0.1126897688
0.108689918
0.1024382156
0.09930177483
0.0923413662
0.08304823635
0.06845375073
0.04049690504
0.02980855816
0.0324791868
0.01831059717
-0.004274909959
-0.01912879738
-0.04428606567
-0.08161105917
-0.2126138345
0.09036887126
4.185865452
6.974442188
7.219268362
)


100
(
2.916509596
8.403213307
6.031825346
5.627511604
4.608993622
4.75574439
4.01662973
4.135837846
3.555746683
3.53011408
3.319649136
2.981501331
2.952555031
2.761697279
2.533173179
2.482314814
2.397052623
2.264490658
2.156989145
2.115264304
2.035289612
1.922723522
1.808606426
1.766572087
1.714732109
1.612022742
1.511778292
1.431167614
1.359142478
1.288504468
1.261859252
1.272538272
1.213928723
1.117409059
1.061724275
1.051611179
1.003240372
0.9296277326
0.8860491963
0.8849699564
0.865926257
0.8107891739
0.757171381
0.7331351869
0.7194371054
0.6999203318
0.6831957638
0.6776624232
0.6749748186
0.6645174122
0.6391622414
0.6045178207
0.5715682918
0.5460535222
0.5306874095
0.5134528511
0.4863153611
0.4528744826
0.4247243133
0.4052968587
0.3932119088
0.3872084907
0.3844497834
0.3800329476
0.3692503002
0.3554328409
0.3372957389
0.3168197483
0.3003077216
0.2916756077
0.2847337475
0.2708857721
0.2517310979
0.2310990583
0.2150523334
0.2036672008
0.1936597455
0.1846870114
0.1815472999
0.1787943167
0.1697561753
0.1642622869
0.1583837068
0.1513878793
0.1491853682
0.1478158936
0.140256273
0.1147092542
0.08807016683
0.08095489475
0.07387827598
0.05517688864
0.03213429733
0.007261123206
-0.03022492394
-0.1921362882
0.4254462544
4.556837473
7.138740317
7.191949534
)


100
(
5.171486731
8.118314036
5.651360729
4.955499367
4.691134243
4.550145574
4.037509129
3.91701064
3.731202495
3.3948637
3.403124646
3.109277387
2.88947387
2.850525613
2.656922945
2.451739091
2.406650197
2.327118372
2.21197645
2.108867291
2.075138817
2.016422693
1.909476324
1.803189919
1.741471456
1.69884816
1.611565224
1.512110945
1.414769878
1.333506454
1.271838996
1.262035329
1.265253435
1.198570932
1.104917881
1.065309494
1.044434498
0.9995241156
0.9380522573
0.9147428991
0.9154020346
0.9065905402
0.8680388182
0.8289770854
0.7979576175
0.7808357145
0.7688349831
0.7530064328
0.7346974614
0.7123396779
0.6892867955
0.6695932216
0.6442763049
0.6135014626
0.5880899858
0.5708840796
0.5609081892
0.5485082805
0.5282935327
0.5015857456
0.47341557
0.4503443726
0.4365392617
0.4269715459
0.4152509232
0.4024466321
0.3925579316
0.387002343
0.3794429749
0.369313193
0.3538487067
0.3361767243
0.3186208116
0.3001637364
0.2799180422
0.2667825899
0.2611665428
0.2544792187
0.2428116536
0.2349101574
0.2295410673
0.222926875
0.2188081757
0.2090340205
0.2003737913
0.1972367288
0.1993460147
0.1872494157
0.1636471355
0.1445333319
0.1231297895
0.1041847668
0.07631301705
0.04728640163
-0.02425244135
-0.1859096225
1.062263709
4.880485135
7.224265648
7.091456429
)


100
(
4.569148652
6.708062729
4.816613948
4.52347393
4.917341083
4.177022065
4.24423159
3.688369399
3.81227274
3.450325442
3.293042102
3.268657301
2.958623929
2.797948191
2.754750958
2.569117871
2.386342976
2.346601127
2.292164734
2.189232889
2.07267877
2.03936755
2.005507149
1.898775196
1.798644626
1.719471724
1.682246451
1.618429451
1.522232328
1.426547175
1.325567999
1.261820258
1.285125206
1.262911315
1.192337098
1.106710796
1.078233778
1.05904908
1.03227508
1.000173535
0.987322919
0.9871286081
0.9820734159
0.9514759456
0.9048544187
0.8564381308
0.8182571348
0.8002786192
0.7890901129
0.7689760819
0.743540106
0.7182033268
0.6981252653
0.6836280402
0.6690782357
0.6522874189
0.6354069258
0.6165886965
0.5972783489
0.5790569316
0.5542064712
0.5223384902
0.4951144095
0.4807198148
0.4752267976
0.4694903109
0.460125191
0.4477194672
0.4379975464
0.4296975247
0.4193459899
0.4003547018
0.3830395257
0.3719905396
0.3616804236
0.3447387419
0.3259655709
0.3132961973
0.3054706532
0.2964605315
0.2905067976
0.2835759504
0.27323223
0.2635788787
0.2513346379
0.2425734691
0.2434045842
0.2390902808
0.2225121798
0.2036737457
0.1812278106
0.1556636407
0.1197478944
0.08483019361
-0.03267567245
-0.195635952
2.178751776
5.200311412
7.50674953
7.610470656
)


100
(
1.933296463
5.58920849
4.139468719
4.694453598
4.602742469
4.09553465
4.120137015
3.803939653
3.641220107
3.629323161
3.264465525
3.21264578
3.12270442
2.854917626
2.728010953
2.697232361
2.533007166
2.362803428
2.31499419
2.277628115
2.178201225
2.074492762
2.02096426
1.989734227
1.906501817
1.812575078
1.720890201
1.682809167
1.642389492
1.552467077
1.454627108
1.343563318
1.298174408
1.29998401
1.278583951
1.221299325
1.169228382
1.135853009
1.125740707
1.111212135
1.089980798
1.064925073
1.037503135
1.018879784
0.9997690805
0.9604937119
0.9112298662
0.8675498079
0.8383237225
0.8254677154
0.81815274
0.8026358987
0.7842121349
0.762265579
0.7397617668
0.7256963397
0.7141462898
0.6930131173
0.6643741728
0.6358077292
0.6168099529
0.6035449824
0.5883780709
0.570539993
0.553661003
0.5393145421
0.526146949
0.5103219855
0.4911337305
0.4783424841
0.4774477341
0.4775266505
0.4684915788
0.4554362022
0.4421460404
0.4264270176
0.4058567114
0.3857211721
0.3739166673
0.3639850567
0.3505904068
0.3418915823
0.3305270692
0.3185750619
0.3062685162
0.2934817845
0.2872280583
0.280862196
0.2660987549
0.2546391452
0.2274717704
0.1963378553
0.1612562082
0.1132917981
-0.03507797921
-0.1575356428
3.454424384
5.574662908
7.726095562
7.562284916
)


100
(
1.639739713
4.945543196
4.116750419
4.768883631
4.175715573
4.303873311
3.876675521
4.014977214
3.546276238
3.585042828
3.455365129
3.151846122
3.148934975
3.032932585
2.801579143
2.698451705
2.674700296
2.523322634
2.362823124
2.301071648
2.289059871
2.187975381
2.091823933
2.021728353
1.993786687
1.935414065
1.845398119
1.762219866
1.697939427
1.66154653
1.598787092
1.514427782
1.402378695
1.365286805
1.364228711
1.358196381
1.318190218
1.273559591
1.220279058
1.183453043
1.167969407
1.145513246
1.114178075
1.08206506
1.05159376
1.034531247
1.013948586
0.977513104
0.9405354819
0.914275554
0.8972555565
0.8911588238
0.8866254074
0.868230586
0.8356575616
0.7974085731
0.7695251935
0.7578994734
0.7471644796
0.7285119065
0.7074253115
0.6905352117
0.6780755785
0.667333628
0.6481699068
0.6174123647
0.5871919207
0.5706803646
0.5599314018
0.5501761339
0.5437958591
0.5407731101
0.5340743988
0.5251792561
0.5152504573
0.5066802928
0.4951280049
0.4734472441
0.4481028057
0.4305580674
0.4159150645
0.4056786385
0.3955840925
0.3790980335
0.3665194276
0.3513100535
0.3389731378
0.3354295357
0.3283962374
0.3130932785
0.2974965487
0.2661293165
0.231453237
0.1661970938
-0.02766597748
0.1116808004
4.172007465
6.325094456
7.722766735
7.567262275
)


100
(
2.926507092
4.872955691
4.096739529
4.175862134
4.072271594
4.247052735
3.837974645
3.853159872
3.745804389
3.470955921
3.54085102
3.327598502
3.116940767
3.105822484
2.984863057
2.769970891
2.675251229
2.657929871
2.521666708
2.377090384
2.301249645
2.287814993
2.207487192
2.118673911
2.027867181
2.006116171
1.973640532
1.886682986
1.808367223
1.735444622
1.693493326
1.656497831
1.587719289
1.524309908
1.490923747
1.456605482
1.434589836
1.402465681
1.343927595
1.284046098
1.231113717
1.2044973
1.191880627
1.162175031
1.130003956
1.10266118
1.081121636
1.068228946
1.05715279
1.034729598
1.007279122
0.9755508712
0.9479203244
0.9390342352
0.9294851212
0.8985465978
0.8614115277
0.8358319433
0.8250297386
0.8264492703
0.8236569233
0.8022691833
0.7667942428
0.7358001365
0.7189927927
0.7034108849
0.6787171856
0.6561750969
0.6436090776
0.6336533822
0.6216245045
0.605320891
0.5908001095
0.5823508756
0.5775374948
0.5709272847
0.5617510515
0.5482658885
0.5265968446
0.5084662022
0.4943977521
0.4763922503
0.4617404888
0.4471003875
0.4345323284
0.4181650709
0.4023822243
0.3967074383
0.3897723346
0.3806458741
0.3581216034
0.3529398449
0.3007381437
0.2274967462
-0.02288107837
0.6419075679
4.63964972
6.634824494
7.883848127
7.599464258
)


100
(
3.680754574
4.455859025
3.540713425
3.740997453
4.198700783
3.894752827
4.009080626
3.644479511
3.83180521
3.557388756
3.432118608
3.484424471
3.232808611
3.067516359
3.056883918
2.937240024
2.741818188
2.644452509
2.635577046
2.5202865
2.389269971
2.295069992
2.281064027
2.221814788
2.139579806
2.063052683
2.012751398
1.983419587
1.930530184
1.856760947
1.795386848
1.730008767
1.705296724
1.680520869
1.624317727
1.569655712
1.509613269
1.468260933
1.443503157
1.39957337
1.339738458
1.286927484
1.245607123
1.2260891
1.212647827
1.189797559
1.170532811
1.153667323
1.126737648
1.110550087
1.093029378
1.061344694
1.024228518
0.9940630113
0.9779388138
0.9751213704
0.9662228358
0.9449209214
0.926433527
0.906854108
0.8933923269
0.8818381067
0.8563674792
0.8200190142
0.7911983897
0.7785039885
0.7730389541
0.7610742912
0.7416180463
0.7209932918
0.7029922474
0.6862812038
0.6689943333
0.6545463827
0.6445936732
0.63554746
0.6253382554
0.6168915485
0.6057395413
0.5863822469
0.5670382541
0.5512583288
0.5400853198
0.5258794809
0.5012341372
0.4858087873
0.4731553733
0.4620208863
0.4520551602
0.4437613501
0.4149160298
0.3961399869
0.3652966182
0.2702844771
0.002124102433
1.206204036
4.763028456
6.66801187
7.934648952
7.698357021
)


100
(
3.04818667
3.781454607
3.056542954
3.637856605
4.025238623
3.678639835
3.900331434
3.686819646
3.629057387
3.710060368
3.404504112
3.36407707
3.362301991
3.137349799
3.001343647
2.997332296
2.886817083
2.71185856
2.61058553
2.60403478
2.512869754
2.393330257
2.277553572
2.264917826
2.241520837
2.151828296
2.083616225
2.011057391
1.992292401
1.969885552
1.906095597
1.846805267
1.779107823
1.73065733
1.707321726
1.676491337
1.616904703
1.556307625
1.493977937
1.465742844
1.43994386
1.392116767
1.343019849
1.309034962
1.280086503
1.266652778
1.256815666
1.234508538
1.205702004
1.170028415
1.133601821
1.118499277
1.099030869
1.066252241
1.043670371
1.037101794
1.032698617
1.028612681
1.013736695
0.9828083765
0.9483787471
0.9246910335
0.9180422931
0.9069544069
0.8850396982
0.8673518293
0.8549005156
0.8416843134
0.8248966992
0.8049439498
0.7861954401
0.7724076513
0.7591920012
0.7392843526
0.7173789924
0.7008329464
0.6914712146
0.68493567
0.6779034383
0.6609967158
0.6411898758
0.62700427
0.6155598343
0.5969853157
0.5737096616
0.5612097857
0.5407229781
0.520110077
0.5085278356
0.5005780931
0.4867483159
0.4115038885
0.4176272214
0.3146303398
0.04853107744
1.574131799
4.604655169
6.615065607
7.931136105
7.507117146
)


100
(
1.784932908
3.208191006
2.746414961
3.626017492
3.577306006
3.757309466
3.594636016
3.796060888
3.476506152
3.573966398
3.535710125
3.262749651
3.281562652
3.252880122
3.047181036
2.929044623
2.930301189
2.832031772
2.68326995
2.571434574
2.565071235
2.500456688
2.390789684
2.29730796
2.244190677
2.221455759
2.161240845
2.103527217
2.054948467
2.002625678
1.980062808
1.948336615
1.878592608
1.808687562
1.736769438
1.716553624
1.70405828
1.653421267
1.593967996
1.538581445
1.488254653
1.466353229
1.450444459
1.419525931
1.390553913
1.35196537
1.304596032
1.284774182
1.273380869
1.238670181
1.202227404
1.167598042
1.142868779
1.131961554
1.124464466
1.110778118
1.09487971
1.071876653
1.05377336
1.038688428
1.009479278
0.9822343048
0.9681942552
0.9640256311
0.9597504067
0.9494904464
0.9299389319
0.9083491394
0.8918698705
0.8774708035
0.8601660238
0.8432154731
0.8283699546
0.8108419966
0.7889265585
0.7712765793
0.7622257597
0.7526262457
0.7389516782
0.7250916538
0.7076633629
0.6919110798
0.6791750646
0.661654941
0.6433773512
0.6229509584
0.5989726481
0.5747416064
0.5544969932
0.5437177689
0.5393491208
0.4980993318
0.4485692351
0.3367639868
0.009468770698
1.873325727
4.46883692
6.793961025
7.849903534
7.428478903
)


100
(
1.718105677
2.976300064
2.669895712
3.294699321
3.277427496
3.671580137
3.425783476
3.57437809
3.57638583
3.381902345
3.493909126
3.395766642
3.16988901
3.200971213
3.160631592
2.977530779
2.860467557
2.867806031
2.791185468
2.6616458
2.533349027
2.527958557
2.507177238
2.391132307
2.308658318
2.226204969
2.212413638
2.203049219
2.137104299
2.088183779
2.008191512
1.978742541
1.955244737
1.901618855
1.83253038
1.770920883
1.721090025
1.713400982
1.691325981
1.635705015
1.586635101
1.553382921
1.51439181
1.503508928
1.48826972
1.451536931
1.401666169
1.349986971
1.307627243
1.295753473
1.276679303
1.244219401
1.22287172
1.202801469
1.180547238
1.165402661
1.152276007
1.125710921
1.096262174
1.072380452
1.060049522
1.046958198
1.02892139
1.014526978
1.004117033
0.9931166606
0.9795089772
0.9622438218
0.9449606014
0.9330311135
0.9235363096
0.9081639148
0.8874240663
0.8699348062
0.8523734838
0.8338324014
0.8187065983
0.8063815542
0.7946401222
0.7845114916
0.7649918905
0.7397932499
0.7263200678
0.7155657261
0.6986796739
0.6702781976
0.6479251266
0.6268394411
0.6069611702
0.5845799706
0.5722903459
0.5606095753
0.5015536712
0.3594307768
0.01423119974
3.081329585
4.345806302
6.990541245
7.830692338
7.693222575
)


100
(
2.224577846
2.806543667
2.453398032
2.908873314
3.280122583
3.298944276
3.478315892
3.312067106
3.562458973
3.419122532
3.32821868
3.434483183
3.279936464
3.099101533
3.129349635
3.087281759
2.927174942
2.808581343
2.813863888
2.765295692
2.64754117
2.547795309
2.49984258
2.478270095
2.401230811
2.332471273
2.274960239
2.224107024
2.203988516
2.164355879
2.109048385
2.041541781
1.972278123
1.953915728
1.933449104
1.859318982
1.80218307
1.758533633
1.728676027
1.713654493
1.702106268
1.660254159
1.62235906
1.569540277
1.528775817
1.517285421
1.503607621
1.448410307
1.396768737
1.356549333
1.331637772
1.328754755
1.323040698
1.298846667
1.256528008
1.211995994
1.193334038
1.180734278
1.15552986
1.130809462
1.115281363
1.101500453
1.087069213
1.069973337
1.050496469
1.032050295
1.019653941
1.00749143
0.9909097942
0.9755556732
0.9652362982
0.9536666711
0.9375545171
0.9220843609
0.9109529778
0.8933941938
0.8668584674
0.8475447962
0.8396429324
0.8326952446
0.8163257345
0.7886422579
0.7693250582
0.7575817013
0.7400782799
0.7188418133
0.6990777595
0.6757112084
0.6544564097
0.6300598765
0.6142118025
0.5818400526
0.5420275561
0.3816154864
-0.05101543756
4.842367828
3.986830061
7.204824646
7.671790742
7.756068654
)


100
(
2.529215854
2.40460884
2.07613171
2.693364275
3.205196525
2.989293739
3.335851661
3.272165309
3.324819996
3.491919883
3.289442232
3.253837955
3.347797724
3.175632828
3.026056556
3.060847747
3.021567584
2.890566588
2.760881233
2.768429922
2.761859855
2.640048721
2.556935824
2.478379324
2.464593095
2.451358594
2.375725975
2.312684714
2.219259046
2.198400145
2.195431512
2.127970835
2.064386498
1.994836393
1.955945803
1.93720507
1.901924553
1.840718803
1.808868236
1.78209865
1.759057934
1.73949774
1.716050239
1.662518655
1.608655393
1.558381822
1.541834075
1.52969915
1.501375305
1.457202238
1.435051811
1.405164902
1.384887697
1.371787158
1.346327818
1.301386101
1.255453978
1.229481303
1.218406692
1.209130637
1.189520232
1.168338851
1.149140824
1.132634397
1.114384962
1.094152203
1.073775442
1.05706752
1.042293173
1.025301907
1.007179714
0.9941171354
0.982763688
0.9696448317
0.9589709773
0.9441204392
0.917397828
0.8950415576
0.8834831912
0.8713481506
0.8596344925
0.8429126737
0.8189649226
0.8000448214
0.7833333417
0.7689676106
0.7482870851
0.7273972147
0.7020461889
0.6815792747
0.6592310101
0.6327729703
0.5949204642
0.4181713963
-0.06867690038
6.109846027
3.427097317
7.322278134
7.699432641
7.943370378
)


100
(
2.893720974
2.101049741
1.800008164
2.624237229
2.8259443
2.978404829
3.030773202
3.290752431
3.156634243
3.295712385
3.367376117
3.171592204
3.17557857
3.247310119
3.098624226
2.955561624
2.99461514
2.970505133
2.859425594
2.757445718
2.728285254
2.721504419
2.640026732
2.571629034
2.506286432
2.473500326
2.453373395
2.399230022
2.335934015
2.25502189
2.193795875
2.187430699
2.157434409
2.087372523
2.02934385
1.973017901
1.946341556
1.930151761
1.905517733
1.877464177
1.840235582
1.780171418
1.752743674
1.738079621
1.698607077
1.645936579
1.602574261
1.572976807
1.56491039
1.560755631
1.539417442
1.502033281
1.451265102
1.410215176
1.407069017
1.390468724
1.350561713
1.317455819
1.298228605
1.282106302
1.263658334
1.240932271
1.220244754
1.201490133
1.185668356
1.167969375
1.145667861
1.124139042
1.106879488
1.088898843
1.068730912
1.050062356
1.036580778
1.024328307
1.007009252
0.9889820059
0.9697574815
0.9492592511
0.9329265552
0.9179880741
0.9075830601
0.8943402922
0.8710667544
0.8529242749
0.8402367665
0.8249076368
0.8015947024
0.7789124653
0.7560971201
0.7353994891
0.7112073198
0.696520839
0.6484770228
0.4827756262
-0.09864347296
6.780965831
2.783614553
7.419162695
7.2878834
7.421323985
)


100
(
3.132304797
1.937065716
1.704126521
2.466189719
2.551409782
2.919445615
2.801308746
3.041511734
3.171972527
3.065296318
3.24200412
3.25681393
3.079137223
3.108129415
3.161593821
3.033641983
2.900548281
2.927971741
2.943620044
2.830532316
2.755125651
2.693418105
2.688457731
2.664911794
2.602143726
2.541158567
2.457127858
2.440089344
2.434251853
2.35109498
2.279900896
2.197135402
2.183191726
2.169690469
2.115106641
2.058147231
2.023966621
1.973403576
1.965709461
1.948772773
1.915030364
1.870838296
1.820834676
1.761414555
1.751226285
1.728041929
1.682910058
1.65736108
1.651551397
1.614071896
1.594855777
1.577186616
1.532634478
1.48680514
1.449694979
1.43965423
1.432699038
1.419721575
1.394344965
1.365645791
1.340795324
1.320671059
1.300627018
1.278792896
1.255621062
1.235212637
1.21731966
1.198863547
1.178116026
1.158142558
1.140581521
1.121893132
1.105498835
1.089402921
1.068184304
1.046699326
1.032615781
1.011265509
0.9828099213
0.9682558026
0.958568654
0.942250242
0.9236423167
0.9107606977
0.8990813484
0.8810821588
0.8633110953
0.838343528
0.8164906168
0.7949307729
0.7689920149
0.7550164016
0.7088147232
0.5617932792
-0.118078131
7.18645027
2.123303691
7.467181811
7.408799325
7.850279807
)


100
(
3.131973262
1.92096109
1.579418427
2.159065343
2.465263959
2.591709906
2.772772853
2.776853341
3.044919784
3.06076307
3.026413182
3.183515399
3.151382737
3.000580915
3.032678409
3.083248477
2.973015253
2.876365842
2.866675749
2.884873737
2.808446784
2.749849772
2.672685742
2.674452389
2.67093725
2.609109319
2.550532375
2.457944622
2.423361181
2.422778102
2.367781349
2.298209557
2.240800251
2.175482792
2.164809206
2.149912799
2.106999485
2.080826199
2.030232482
1.967650324
1.954529594
1.952517399
1.894179483
1.847412874
1.802863565
1.761720605
1.750897784
1.751709075
1.725942468
1.694587791
1.647366443
1.607800227
1.597626547
1.564850127
1.520896377
1.500746726
1.491208171
1.481293435
1.463325625
1.440846477
1.41699142
1.396408905
1.377906234
1.35638559
1.330614522
1.307837021
1.289000954
1.270415024
1.247754026
1.224673678
1.206206141
1.194033388
1.177510298
1.156066721
1.137543174
1.120102771
1.105357129
1.080910137
1.049197314
1.028718613
1.011625978
0.9973043338
0.9877089359
0.9783962588
0.9636598791
0.944332718
0.9252908493
0.9052227348
0.882124166
0.85846671
0.8282095218
0.82102657
0.7822926038
0.6798413466
-0.08073579295
7.562722919
1.475371868
7.441995875
6.77177483
6.546569492
)


100
(
3.119132352
1.809703067
1.338385873
1.952253568
2.378549815
2.332299291
2.638334885
2.66896616