/*--------------------------------*- C++ -*----------------------------------*\
| =========                 |                                                 |
| \\      /  F ield         | OpenFOAM: The Open Source CFD Toolbox           |
|  \\    /   O peration     | Version:  2.3.1                                 |
|   \\  /    A nd           | Web:      www.OpenFOAM.org                      |
|    \\/     M anipulation  |                                                 |
\*---------------------------------------------------------------------------*/
FoamFile
{
    version     2.0;
    format      ascii;
    class       dictionary;
    location    "constant";
    object      PM33;
}
// * * * * * * * * * * * * * * * * * * * * * * * * * * * * * * * * * * * * * //

PM33_table
100
(

100
(
0.3813354513
-0.1287139659
-0.09568860264
-0.06496290451
-0.05811113144
-0.05109379949
-0.03652968705
-0.03577046849
-0.02891587935
-0.02480883373
-0.02539103315
-0.01799153924
-0.01743392638
-0.0161771431
-0.01188478449
-0.01123040812
-0.01121894432
-0.007486138997
-0.006816162081
-0.006937123226
-0.005088542535
-0.004037902006
-0.003809589865
-0.003466969314
-0.002284881831
-0.001945392761
-0.001858991042
-0.001484363203
-0.0007787886585
-0.0005481764685
-0.0004759364069
-0.0001869759928
0.0001495750112
0.0003054938429
0.0003761586926
0.0004808433826
0.0006835102946
0.0007959358132
0.0008636577477
0.0009255328788
0.001007623617
0.001059150327
0.001110460622
0.001154799617
0.001203118022
0.001230873146
0.00127054515
0.001298567693
0.001261719404
0.001220141553
0.001211861915
0.001226845228
0.001203519132
0.00117562895
0.001167190533
0.001174807098
0.0011701795
0.001165494452
0.001191206126
0.00128895735
0.001466047842
0.00135676663
0.001177138598
0.001225834963
0.001343928603
0.001223456799
0.001080751735
0.001177813017
0.001181204719
0.001057087254
0.0009951728256
0.001055576824
0.0009781133016
0.0008707443939
0.0009600647504
0.0009463173654
0.0007789964214
0.0008233443737
0.0008108862779
0.0006592906906
0.0007116351653
0.0006318143308
0.0005757445533
0.0006176343107
0.0004776866291
0.0005025430809
0.0004498367385
0.0004082200299
0.0004081573972
0.0003592144214
0.0003555774096
0.0003300815383
0.0003304914658
0.0003115274923
0.0003170917226
0.0002993857597
0.0002996393733
0.000313837093
0.0003240681731
0.0002806939451
)


100
(
0.4271632613
-0.10410774
-0.07883751434
-0.05505865458
-0.05398759595
-0.04141324243
-0.03502842406
-0.02902184738
-0.02554469452
-0.01988532107
-0.019611231
-0.01459637629
-0.01318727319
-0.01216314172
-0.009207056359
-0.008051650811
-0.00759233901
-0.005749004193
-0.004597132827
-0.004334319853
-0.003449818615
-0.002640326181
-0.002195584068
-0.001886587784
-0.001323960243
-0.0009254534131
-0.0007162793397
-0.0004751566059
-0.0001499509042
7.98008851e-05
0.000218243839
0.0003967292913
0.0005822128759
0.0007184829335
0.0008090073126
0.0008903919098
0.0009822134841
0.001043785407
0.001082408778
0.001123926255
0.001174397398
0.001210217826
0.001233695307
0.001254740546
0.001294447836
0.00132117968
0.001338059506
0.001350107681
0.001336247507
0.001319608638
0.001300850023
0.001288481982
0.001277012514
0.001283644804
0.001291336565
0.001297376069
0.001296314784
0.001310907096
0.001323766919
0.001336821481
0.00139555024
0.00153122787
0.001510663805
0.001401059274
0.001368802482
0.001417654919
0.001352876564
0.001256086666
0.001270073801
0.00124366777
0.001151198321
0.001084510972
0.001095392696
0.001015475076
0.0009441656772
0.001010465904
0.001025551717
0.0009155945126
0.0009061217576
0.000878960393
0.000810493181
0.0008257654077
0.0007391437915
0.00078065753
0.0007464520865
0.0006815187937
0.0007029794031
0.0006497125906
0.0006348574687
0.000626089206
0.0006012982758
0.0005846978466
0.0005730871902
0.0005692671214
0.000560567529
0.0005615691224
0.0005337972244
0.000462584647
0.000487866705
-0.009078955333
)


100
(
0.2425935188
-0.08056027406
-0.05908285719
-0.05122497326
-0.04452814858
-0.03047956175
-0.02857792568
-0.02071104687
-0.01894792699
-0.01472594063
-0.012876
-0.01057329659
-0.008261686104
-0.007427353934
-0.006053077275
-0.004709179016
-0.004071127232
-0.003349627358
-0.002573598691
-0.001986966132
-0.001608603428
-0.001197877393
-0.0008202635008
-0.0005294228681
-0.0002739722737
-4.079671298e-05
0.0001699272725
0.0003363014753
0.0004984333988
0.0006106298804
0.0007159977777
0.0008093871042
0.0009246857639
0.001010742092
0.001093020508
0.001162474573
0.001236930691
0.001279565281
0.001285187512
0.001296214167
0.001321742258
0.00136318483
0.001392495441
0.001426122463
0.001472912102
0.001523546009
0.001564194403
0.001602412037
0.001647850488
0.001680897474
0.001704837111
0.001693280336
0.001684691532
0.001673369837
0.001682922468
0.001686380313
0.001676782823
0.001634377147
0.001617040793
0.00155948185
0.001414139071
0.00148031252
0.001692570296
0.001638704126
0.001468161691
0.001476241854
0.001573418984
0.0014243287
0.001343984619
0.001396543959
0.001411619834
0.001306324902
0.001309208023
0.001347272644
0.001203916228
0.001125548809
0.001250985322
0.001235381465
0.001159001682
0.001236751253
0.001151707349
0.001171232912
0.001167591144
0.001074240693
0.001214108659
0.001119544286
0.001139203069
0.001183629206
0.001124628288
0.001165500411
0.001151824683
0.001176572746
0.001136443378
0.001168228501
0.00116492517
0.001173662683
0.001065294951
0.0008057087757
-0.001909515725
-0.003573808678
)


100
(
0.05873466315
-0.08697097108
-0.05897751557
-0.04881012096
-0.03397014559
-0.02720846643
-0.02246328222
-0.01815488087
-0.01483774248
-0.01265861554
-0.009885507687
-0.008662627199
-0.007022651358
-0.005732149678
-0.005007011588
-0.004095407901
-0.003294011419
-0.002797190583
-0.002365531576
-0.001841338092
-0.001408104979
-0.001120473465
-0.0008358678918
-0.0005463423351
-0.0003056839034
-0.0001192681535
6.270271535e-05
0.0002432487666
0.0004045078935
0.000545558818
0.0006595632063
0.0007533039797
0.0008487109493
0.0009541451788
0.00106836847
0.001166253882
0.001278050082
0.001386410029
0.001495048261
0.001551396717
0.001585987018
0.00163377937
0.001690791733
0.001768121795
0.001801756386
0.001836650815
0.001844181378
0.001917311109
0.001974078817
0.001999556744
0.001987387506
0.002031206148
0.002067036082
0.002016311526
0.001942466501
0.001933087678
0.001979155687
0.001900504541
0.001798114066
0.001743924779
0.001676761493
0.001488733884
0.001469582815
0.001566138833
0.001592589628
0.00150822289
0.001515653143
0.001571718693
0.001532318774
0.001508994764
0.001531380832
0.001573662014
0.001551650672
0.001546635339
0.001520580782
0.001455153879
0.001366548382
0.001412178208
0.001443499571
0.001394032461
0.001444023627
0.001396622786
0.00141483256
0.001360593004
0.001368849047
0.001384170473
0.001354685118
0.00137799756
0.001373784542
0.001337977303
0.001335198299
0.001349714683
0.001331702338
0.001300299876
0.001312034685
0.001288329496
0.001078416045
3.232276535e-06
-0.009713987292
-0.01449417044
)


100
(
9.292298359e-05
-0.09085599358
-0.05781617315
-0.03907804256
-0.02777811634
-0.02583150057
-0.01879961632
-0.01726824032
-0.01327143232
-0.01167972979
-0.009746751962
-0.008021391755
-0.007139488127
-0.005825129009
-0.0049271855
-0.004399477162
-0.00368019331
-0.003015961144
-0.002610361809
-0.002284234119
-0.001790416972
-0.001380875609
-0.001090205355
-0.0008272857602
-0.0005300846425
-0.0002820744774
-9.249229565e-05
8.068858771e-05
0.000281948567
0.0004970951894
0.0006917642935
0.0008551371997
0.0009762115356
0.001108753455
0.0012358243
0.001369947222
0.001483828975
0.00161488314
0.001703819303
0.00182832047
0.001921219959
0.001979600196
0.001974121086
0.001989577513
0.002039440883
0.00210495651
0.002045875623
0.001975322212
0.002017316799
0.00208410605
0.002038807171
0.001980363973
0.001986976979
0.002017732938
0.00196652198
0.001892849299
0.001889516343
0.001914705448
0.001856912432
0.00176694764
0.001722965585
0.001691345021
0.001598074942
0.001569013539
0.001590229847
0.001616700317
0.001599764947
0.001619152158
0.001654256608
0.001666300298
0.001640431131
0.001620737442
0.001611223025
0.001611964323
0.001570117608
0.001500842484
0.001492260194
0.001498912816
0.001479758185
0.001410171815
0.001378967956
0.001368751737
0.001346181746
0.00133691979
0.001307460236
0.00126776724
0.001263828152
0.001265874123
0.001212236516
0.001177578131
0.001146568478
0.001118451886
0.001114900262
0.001067831508
0.001036392869
0.0009943452038
0.0008554258362
-0.002537732368
-0.01550707575
-0.01648707781
)


100
(
0.01360205709
-0.07243426053
-0.04712923845
-0.03163509656
-0.02735843697
-0.02289102172
-0.01844138818
-0.01602766523
-0.01389486137
-0.01139209267
-0.01052166653
-0.008570257046
-0.007421237274
-0.006637666246
-0.005511140821
-0.004787211051
-0.004333525124
-0.003653594834
-0.003010168991
-0.002580204941
-0.002234266406
-0.001750998861
-0.00130704347
-0.0009432696918
-0.0006410428457
-0.0003244237178
-5.568059973e-05
0.0001378210375
0.0003100906166
0.0005223525738
0.000777791944
0.0009948890811
0.00116710409
0.001312442788
0.001433129758
0.001523832644
0.001624183439
0.001734049994
0.001803303091
0.001835478376
0.001915424676
0.001972064176
0.002009634619
0.001985185604
0.001989688983
0.002058378651
0.002101237917
0.002029517031
0.001948954885
0.001996397436
0.002022673545
0.001974537068
0.001908235448
0.001881094599
0.001870961432
0.001813442146
0.001763202278
0.00176527211
0.001769288655
0.001746690127
0.001697532902
0.001667288031
0.001651608336
0.00162327047
0.001603706134
0.001597942969
0.001580078914
0.001532259045
0.001475888532
0.00145016471
0.001426422782
0.001407903874
0.001403276272
0.00140595303
0.001436625568
0.001402594753
0.001300048978
0.001249539922
0.001216252126
0.001198684155
0.001173373233
0.001107196303
0.001058585967
0.001017915181
0.0009895269119
0.0009419236065
0.0008558330105
0.0008576174855
0.0007656160412
0.0006784269949
0.0006847884698
0.000624270296
0.0005795709938
0.0005089227635
0.0004401991906
0.0004746983067
0.0004926249811
-0.006481926278
-0.01978498394
-0.01774166579
)


100
(
0.05274509662
-0.05785236823
-0.03854379855
-0.02954335443
-0.02769050142
-0.02062808407
-0.01944507209
-0.01542536207
-0.01472836626
-0.01228008259
-0.01085961336
-0.009779723029
-0.008096369598
-0.007236779858
-0.006438620511
-0.005420021151
-0.004738711165
-0.004270318358
-0.0035938627
-0.002915589086
-0.002389405536
-0.001983338419
-0.00150675363
-0.001029895017
-0.0005984243979
-0.0002576906139
4.865391983e-05
0.0002783756493
0.0004187598901
0.000537340745
0.0007283235415
0.0009538314213
0.00113541464
0.001255409707
0.001384741497
0.00148062821
0.00156103029
0.0016412319
0.001761571919
0.001800671995
0.001823875985
0.001883558744
0.001949463886
0.00196227134
0.00193728441
0.001943311183
0.00199448258
0.002000730826
0.001911521174
0.001826953605
0.001791503389
0.001758815159
0.001703315394
0.001653297333
0.001610380748
0.0015693358
0.001542691625
0.001531161244
0.001550758762
0.00158273356
0.001583120761
0.001564386737
0.001546182528
0.001513436576
0.001424210295
0.001327715896
0.001278975924
0.001237428274
0.001169771196
0.001125763565
0.001090893613
0.001061712305
0.001065503006
0.001036627882
0.0009498535529
0.0009508171435
0.0008886275679
0.0008328224207
0.0007875707671
0.0007426992885
0.0006999608788
0.0006624065857
0.0005818750646
0.00051317877
0.000411050068
0.0003726887906
0.000293359126
0.0002701381105
0.0002471083179
8.270637737e-05
-1.464638283e-05
-2.090207682e-05
-0.0001195733464
-0.0002016199893
-0.0002901584117
-6.363093735e-05
0.0001759489939
-0.0107446472
-0.02291950375
-0.0183047203
)


100
(
0.02820602003
-0.04952225496
-0.03527337082
-0.03016910411
-0.02467394767
-0.02069983746
-0.01899850565
-0.01649931247
-0.01481320595
-0.0137565325
-0.01140003054
-0.01049802612
-0.009248598581
-0.007780899785
-0.007047194111
-0.006224900298
-0.005246811792
-0.00454757213
-0.004026703598
-0.003348157412
-0.002637125836
-0.002036989001
-0.001627870987
-0.001225341678
-0.0007885007053
-0.0003707246077
-2.426926664e-05
0.0002580222679
0.0004305034596
0.0005051138121
0.0005687114379
0.0007488964331
0.0009675110953
0.001126326605
0.001224097226
0.001335521029
0.001437465184
0.00151200213
0.001610270693
0.001683616432
0.001725918004
0.001736803764
0.001787069485
0.001802458821
0.001794710671
0.001747299577
0.001707527983
0.001650183627
0.001573007393
0.001483249419
0.00141179835
0.001350563586
0.00131158064
0.001290892873
0.001286571019
0.001305582722
0.001325328631
0.001309071366
0.001292557512
0.001306457927
0.001309322575
0.001236220104
0.001124866732
0.001046619827
0.0009725679754
0.0008598816469
0.0008001948382
0.0008032627385
0.0007743043829
0.000750745379
0.000740951684
0.0006439405341
0.0005365575262
0.0004803948565
0.000382807458
0.0003344570671
0.0003401241566
0.0002844532151
0.0002515386458
0.0002069179374
0.0001064637267
1.654695695e-05
-5.710913543e-05
-0.0001073961404
-0.0001917768159
-0.0002964512085
-0.0003409703903
-0.0003846489286
-0.000361897398
-0.0004609138552
-0.0005867653125
-0.0006415781338
-0.0007159732628
-0.0008051620138
-0.0008836056497
-0.0004594991871
-0.0001098574753
-0.0131229326
-0.02482755959
-0.01963926753
)


100
(
-0.002561942602
-0.04990988344
-0.03553990752
-0.02839144696
-0.0221417187
-0.02184442429
-0.01821311704
-0.01790870717
-0.01496741507
-0.01422737915
-0.01269449795
-0.01083936277
-0.01011476818
-0.008762471568
-0.007412470859
-0.006718268773
-0.005884853927
-0.004924608921
-0.004141409197
-0.003632397231
-0.00306214063
-0.002405723324
-0.0018184676
-0.001470125494
-0.001187565921
-0.0008016259338
-0.0003884009236
-9.269200939e-06
0.0002913585588
0.0004412318188
0.0004700159919
0.0004997115077
0.00068421778
0.0009084168717
0.001046683022
0.00114438249
0.001240380464
0.001341424089
0.00140556009
0.001467902392
0.001486049346
0.001490380855
0.001448800348
0.001384648778
0.001300068704
0.001226297998
0.001173152532
0.001106414831
0.001034723555
0.0009895918729
0.0009586212439
0.0009652489934
0.001012338463
0.001047327955
0.001035019008
0.001016587941
0.00101408416
0.0009924505969
0.0008840440226
0.0007387384406
0.000645078798
0.0005788777963
0.000473577275
0.0004193099446
0.0004400999022
0.0004159800343
0.0003634247026
0.0003801132447
0.0003495975668
0.0002083226432
8.914783367e-05
-1.600761219e-05
-0.0001326398879
-0.0001210051792
-0.0001338423648
-0.0002028258384
-0.0002140710402
-0.0002797493649
-0.0003916318771
-0.0004909959569
-0.0005383752344
-0.0005757796615
-0.0006266608754
-0.0007058858883
-0.0007544715589
-0.0008319876466
-0.000857696042
-0.0008923779669
-0.0009084914313
-0.0009659447215
-0.001042953114
-0.001078774138
-0.001134683923
-0.001169881604
-0.001228835619
-0.0006400001492
-0.0005230728104
-0.0138655772
-0.02513323327
-0.02115293356
)


100
(
-0.01596924181
-0.04777444525
-0.0329491795
-0.02470488468
-0.02207184222
-0.02120758384
-0.01856709624
-0.01759633872
-0.01616916755
-0.01430079746
-0.01368883187
-0.01184948293
-0.01043282372
-0.00964966009
-0.008247787109
-0.006943803417
-0.006264014281
-0.005466563444
-0.004574315633
-0.003828419783
-0.003412399799
-0.003000537839
-0.002403829742
-0.001849981472
-0.001509599864
-0.001302219852
-0.0009791945823
-0.0005497326602
-0.000113746389
0.0002376978929
0.0003817997391
0.0003652134822
0.0003956563922
0.0005891913767
0.0007954844178
0.0009091481465
0.0009583559397
0.001019918005
0.001074671143
0.001073150235
0.0009919065644
0.0008759442486
0.0008055346661
0.0007284047812
0.0006189254212
0.0005331688725
0.0004943426695
0.0005135601625
0.0005794934711
0.0006574569687
0.0006830145213
0.0006609593286
0.000644792786
0.0006695327877
0.0006719067724
0.0005770212687
0.0004066233096
0.0002654267223
0.0001388167817
-3.084160156e-06
-7.601195594e-05
-5.868087726e-05
-7.884356336e-05
-0.0001084568055
-5.286270921e-05
-1.785600484e-05
-0.0001445760768
-0.0003049708439
-0.0004190872025
-0.0005407769656
-0.000595791309
-0.0005723248043
-0.0006505123373
-0.0006618097891
-0.0006458561159
-0.0007347902704
-0.0008445749736
-0.0009268813734
-0.0009610628155
-0.0009797310074
-0.001007057038
-0.00105395305
-0.001092874868
-0.001128236833
-0.001138715432
-0.001133543901
-0.001186069003
-0.001170295408
-0.001194717299
-0.001217092867
-0.001240994858
-0.001253019525
-0.001302245898
-0.001350863561
-0.001311265299
-0.0006225005132
-0.001458706527
-0.01429586569
-0.02438332928
-0.02078749527
)


100
(
-0.01437819289
-0.04028246674
-0.02822042015
-0.02215972978
-0.02285008299
-0.01981568709
-0.01968689408
-0.01713906205
-0.01707937173
-0.01500648862
-0.01383402918
-0.0130588263
-0.01115561511
-0.009948891081
-0.009142088941
-0.00775895194
-0.006547547286
-0.005940948724
-0.005319288426
-0.004494314939
-0.003754252004
-0.003406429157
-0.003138033006
-0.002574599736
-0.00201960695
-0.001643545956
-0.001468948599
-0.001225865536
-0.0007920886652
-0.0003141422246
6.935866482e-05
0.0002275704485
0.0001940255662
0.0001964194252
0.0003697090208
0.0005107499044
0.0005265413604
0.0004536764186
0.0003919019868
0.0003654326322
0.0002647881884
0.0001245729575
-1.238081565e-05
-5.326186644e-05
-1.280829404e-05
6.33890626e-05
0.000119158892
0.0001269527883
0.0001321296458
0.0001960004093
0.0002789499947
0.0002918524277
0.0001905712069
2.115162488e-05
-0.0001427502749
-0.000271997135
-0.0004092673604
-0.0004950904618
-0.0005262568304
-0.0005879010942
-0.0006321828345
-0.0005619778675
-0.0004955106657
-0.0005713576587
-0.0007274571897
-0.0008166869481
-0.0008962760732
-0.0009965641458
-0.001032371639
-0.001121886316
-0.001153580763
-0.001068562495
-0.001076221392
-0.001173998879
-0.001248225638
-0.001301503029
-0.001320063914
-0.001320974596
-0.001322520122
-0.001334828242
-0.001347347151
-0.001357226776
-0.001335311201
-0.001305370633
-0.001304346228
-0.001296447832
-0.001303050217
-0.001305782264
-0.001296706331
-0.001290094568
-0.001286876796
-0.001310782885
-0.001326993922
-0.001377223334
-0.001194883114
-0.0004226392715
-0.003288002558
-0.01477731665
-0.02192106525
-0.01883116141
)


100
(
-0.001640230203
-0.03346814375
-0.02414697172
-0.02235168694
-0.02164415344
-0.01950210408
-0.01953952935
-0.01794517448
-0.01692789188
-0.0162364731
-0.01416894609
-0.01337538451
-0.01230556819
-0.01058453239
-0.009537848783
-0.008836402
-0.007563924613
-0.006444650932
-0.005902108827
-0.005426874226
-0.004628546395
-0.003914318331
-0.003539156925
-0.003319208986
-0.002847887783
-0.002281179528
-0.001853537136
-0.001677642497
-0.001513996784
-0.001126169001
-0.0006430199946
-0.0002187653386
-0.0001143195678
-0.0001902121037
-0.0002820921515
-0.0002510558602
-0.0002490127345
-0.0003637281924
-0.0005104728987
-0.0006169795818
-0.0006157469206
-0.0005511150891
-0.00048923877
-0.0004714247531
-0.0004828157652
-0.0004266267197
-0.0003040134944
-0.0002086769356
-0.0002219748477
-0.0003124372684
-0.000427643095
-0.000536431472
-0.0006678435609
-0.0008182777141
-0.0009681939692
-0.001098824099
-0.001205698407
-0.001184713653
-0.001060427403
-0.0009709856763
-0.001026886065
-0.001155922835
-0.001240519837
-0.001298773081
-0.001406011418
-0.001503122962
-0.001578250661
-0.001609381337
-0.001499657357
-0.001441634922
-0.001536512013
-0.001603245084
-0.001606346788
-0.001659261665
-0.001667191205
-0.001651228335
-0.001614865905
-0.001579273631
-0.001559319779
-0.001541277518
-0.001510117058
-0.001466685208
-0.001426221654
-0.001386666603
-0.00136547077
-0.001327828093
-0.001309026827
-0.001303130266
-0.001283741237
-0.001258424025
-0.001255792119
-0.001276371142
-0.001304073678
-0.001335345563
-0.001033321527
-0.000129878477
-0.005438624054
-0.01441008192
-0.01886461852
-0.0161283633
)


100
(
-0.001620288408
-0.02926953187
-0.02325460399
-0.02249095326
-0.019808665
-0.02032721063
-0.01882529137
-0.01912942806
-0.01695353214
-0.01661311029
-0.01539870001
-0.01357155932
-0.01295271966
-0.01179814654
-0.0102664678
-0.009390079561
-0.008821297451
-0.007643050859
-0.006584834999
-0.006049842567
-0.005714922911
-0.004918178981
-0.004195405354
-0.003755882946
-0.003561549429
-0.003206357505
-0.002644524518
-0.002198925118
-0.001971602626
-0.001854361649
-0.001608770694
-0.001232969754
-0.0008623427616
-0.0008829880409
-0.001087985836
-0.001315021239
-0.001380630935
-0.001380042761
-0.001322123106
-0.001287382216
-0.00128421028
-0.001209642511
-0.001042988178
-0.0008692019688
-0.0007807853725
-0.000802434704
-0.0008522812469
-0.0008603290284
-0.0008971484751
-0.001053369115
-0.001274698979
-0.001507351386
-0.001730722108
-0.001812857988
-0.001743402156
-0.001614846644
-0.001565754777
-0.001659245739
-0.001711111408
-0.00167294968
-0.001692497285
-0.001798013486
-0.001943406892
-0.002090484
-0.002132674228
-0.002024546492
-0.001919185626
-0.001943810136
-0.001971496208
-0.001892383415
-0.00190803945
-0.001942616954
-0.001942017355
-0.001932755754
-0.001900427166
-0.001844010163
-0.001782785629
-0.001717897172
-0.001660594237
-0.001618903667
-0.001555641769
-0.001494814605
-0.001448163704
-0.001405535288
-0.001365196712
-0.001316486856
-0.00128548954
-0.001268066173
-0.001236046933
-0.001227767318
-0.001206150284
-0.001223188057
-0.001248940404
-0.001265546882
-0.0008935495008
-5.863753168e-06
-0.006112104994
-0.01437032561
-0.01595011861
-0.01226863636
)


100
(
-0.009151166068
-0.02777409207
-0.02276565439
-0.0201050725
-0.01911343438
-0.02018908506
-0.01876201547
-0.01881175535
-0.0180642152
-0.0166225376
-0.01632999891
-0.01475289365
-0.01332147191
-0.01271484728
-0.01158986752
-0.01017486074
-0.009405097387
-0.00895311456
-0.007872802179
-0.006857781157
-0.006287919196
-0.005980832005
-0.005286327336
-0.00455435418
-0.004027846745
-0.003851603935
-0.003633674848
-0.0031452686
-0.00273405864
-0.002509958131
-0.002468875955
-0.002457800215
-0.002285469768
-0.002113366713
-0.002154520957
-0.002229672492
-0.002299014286
-0.00230412463
-0.002128736549
-0.00189974123
-0.001709358864
-0.001639046906
-0.00161429837
-0.00149953976
-0.001372431332
-0.001342125834
-0.001465500419
-0.001705379693
-0.001981378053
-0.002193002868
-0.002326092751
-0.002314332331
-0.002272007317
-0.002333998246
-0.002420031451
-0.002309423572
-0.002159870385
-0.002134305776
-0.002259787394
-0.002430902952
-0.002589626881
-0.002627618228
-0.002534417503
-0.002444518021
-0.002496420021
-0.002496585251
-0.00235110982
-0.00226120966
-0.002246123018
-0.00224152484
-0.002218906245
-0.002172600432
-0.002103016463
-0.002028237722
-0.001948603855
-0.001869471031
-0.001813088215
-0.001769655915
-0.001697240547
-0.001608997991
-0.001531490683
-0.001481372164
-0.001442776781
-0.001385405903
-0.001322870594
-0.001284153865
-0.001252945746
-0.001224931887
-0.001209027914
-0.0011898727
-0.001185192116
-0.001187343268
-0.001202461317
-0.001178252305
-0.0007806312658
-0.0002427169212
-0.006099834332
-0.01304301479
-0.01219467348
-0.007261611959
)


100
(
-0.01337842317
-0.02531831478
-0.02023421291
-0.01788671386
-0.01932676503
-0.01882693883
-0.01939527262
-0.01817371256
-0.01872882296
-0.01729777777
-0.01639265281
-0.01603334409
-0.01432661587
-0.01313017787
-0.01261350158
-0.01154609267
-0.01022278628
-0.009476061173
-0.009122828877
-0.008164650805
-0.007172813907
-0.006524738337
-0.006250099124
-0.005701394319
-0.004989550267
-0.004468461693
-0.00423049267
-0.004117564354
-0.003898408672
-0.003602387573
-0.003458929329
-0.003426847942
-0.003504480622
-0.003537212009
-0.003351244025
-0.003143314849
-0.00292235694
-0.002797017126
-0.002752601829
-0.00260598178
-0.002346226965
-0.002131189918
-0.00205543964
-0.002121527345
-0.002248541467
-0.00235845264
-0.002515923958
-0.002710399782
-0.002861770786
-0.002992800625
-0.003116814719
-0.003084485458
-0.002907405449
-0.002744966916
-0.00274324436
-0.00285300349
-0.00294460976
-0.002931107598
-0.002988024197
-0.003003975869
-0.003019803945
-0.003093501488
-0.003050604717
-0.002858997786
-0.002710537251
-0.0026661971
-0.002629472187
-0.002570204589
-0.002501210576
-0.002437006055
-0.002382571231
-0.002306829226
-0.002175581732
-0.002042010402
-0.001945219721
-0.001878970418
-0.001809871093
-0.001740840564
-0.00165962737
-0.001568659925
-0.00151277829
-0.001461637076
-0.001395319192
-0.001333292221
-0.001293364404
-0.001247728177
-0.00119349225
-0.001165697832
-0.001161053302
-0.001154387068
-0.001139060292
-0.001137664056
-0.001168591073
-0.001125393708
-0.0007255140594
-0.0005458544765
-0.005372886101
-0.01103494323
-0.009604365359
-0.005162189678
)


100
(
-0.01112982276
-0.02176305028
-0.01752072557
-0.01696446575
-0.01853711099
-0.01781029111
-0.01898363609
-0.01835657126
-0.01817498675
-0.0181944749
-0.01661580279
-0.01607532714
-0.0155285272
-0.01398837785
-0.0129837003
-0.01259300325
-0.0115998314
-0.01033785292
-0.009583229297
-0.009292385945
-0.008486787934
-0.007512320918
-0.006771197791
-0.006535170348
-0.006222270933
-0.005556750716
-0.005092022341
-0.004831547331
-0.00486114933
-0.004925712162
-0.004778088119
-0.004606833867
-0.004404279959
-0.004274869074
-0.004221430206
-0.004085348943
-0.003741212056
-0.003391258589
-0.003124786369
-0.003063154127
-0.003048302893
-0.002947215445
-0.00285872028
-0.002932704258
-0.003137997123
-0.003421899009
-0.003695030806
-0.00379357877
-0.003743755945
-0.003594333766
-0.003478124467
-0.003540910551
-0.00357258363
-0.00342076856
-0.003306219187
-0.003359649629
-0.003451589836
-0.003578349806
-0.003639895083
-0.003534804289
-0.00335717865
-0.003220467793
-0.003241122485
-0.003174667266
-0.002981475041
-0.002858460197
-0.002772041607
-0.002710481288
-0.002647548819
-0.002551161002
-0.002427067149
-0.002285927354
-0.002164696497
-0.002047227829
-0.001956436189
-0.001887153452
-0.001797085963
-0.00169074413
-0.001596575717
-0.001529807775
-0.001484191627
-0.001424869204
-0.001358686281
-0.001301918421
-0.00125045479
-0.001188210015
-0.001144739763
-0.00112198067
-0.00109610779
-0.001097505932
-0.001099719968
-0.001083749199
-0.001114870098
-0.001073942903
-0.000748114936
-0.0006661602208
-0.004301918522
-0.009103402918
-0.00738902609
-0.002323191312
)


100
(
-0.005877076156
-0.01839638937
-0.01555350204
-0.01651301578
-0.01669112336
-0.01775960973
-0.01778185529
-0.01870639436
-0.01765351284
-0.01792513069
-0.017451389
-0.01601677725
-0.0157590181
-0.01516116223
-0.01374329926
-0.01286946806
-0.01258574718
-0.01168392598
-0.0105029377
-0.009705028301
-0.009468095476
-0.008857403761
-0.007922725379
-0.007239521011
-0.006911536194
-0.006744878745
-0.006378949699
-0.006039229491
-0.005864107741
-0.005801122588
-0.005862173877
-0.005829628378
-0.005476773768
-0.005065998229
-0.004681058294
-0.004555282317
-0.004488829551
-0.004215601723
-0.003878670127
-0.003644943043
-0.003594014241
-0.003751151235
-0.004001806997
-0.004170252234
-0.004329909398
-0.004384307083
-0.004347105602
-0.00441320795
-0.004507157139
-0.004343859987
-0.004108672729
-0.003939299297
-0.003920776274
-0.00399756791
-0.00406025982
-0.004039261605
-0.003988524139
-0.003866646826
-0.003834855267
-0.003866392328
-0.003712691436
-0.003469476165
-0.003300245625
-0.003186827775
-0.003083804426
-0.002998329708
-0.002897799012
-0.002790003088
-0.002693574946
-0.002569149173
-0.002399288053
-0.002236058577
-0.002129165828
-0.002047661181
-0.001947218989
-0.001832263326
-0.001740726449
-0.001651228963
-0.001581603113
-0.001517137234
-0.001438792998
-0.001357990443
-0.001312973794
-0.00128193985
-0.001223399587
-0.001165620329
-0.001124117678
-0.001098002249
-0.001075587116
-0.001052282937
-0.001070062102
-0.001068571149
-0.001069620683
-0.001000607219
-0.0005999159171
-0.0007038653583
-0.003510067595
-0.007854298884
-0.005070189185
0.0008194148198
)


100
(
-0.006025404744
-0.01645269125
-0.01465896312
-0.01509347033
-0.0152230204
-0.01720673199
-0.01694779677
-0.01783101865
-0.01799122745
-0.01733938952
-0.01764553859
-0.01691269765
-0.01568839069
-0.01554566797
-0.01494488614
-0.01363184461
-0.01279507952
-0.01261390946
-0.01186211561
-0.0107495032
-0.009876855669
-0.009693732165
-0.00938563938
-0.008495911435
-0.007893068594
-0.007517355748
-0.007518258037
-0.007549520489
-0.007222355968
-0.006939624921
-0.006574441043
-0.006451454632
-0.00636692196
-0.006040929952
-0.005536197223
-0.005090104574
-0.004827263676
-0.004824544806
-0.004814662278
-0.00467153049
-0.004619182235
-0.004747665446
-0.004946792728
-0.005237333423
-0.005448939679
-0.005431661345
-0.00521274847
-0.004955660856
-0.004810620804
-0.004869210002
-0.004833755466
-0.004628367401
-0.004533787314
-0.004487093012
-0.004460735296
-0.004464114816
-0.004471916196
-0.004272830103
-0.004042394962
-0.00388418798
-0.003801690687
-0.003649935768
-0.003413507349
-0.003248065611
-0.003121607395
-0.00303498364
-0.002941114134
-0.002802681384
-0.002630075128
-0.002457611131
-0.002322837161
-0.002220617069
-0.00212580851
-0.00204021512
-0.001929787826
-0.001794868039
-0.001682177069
-0.001603758896
-0.001538917258
-0.001480704104
-0.001405153951
-0.00133663005
-0.001278196819
-0.001226632697
-0.001187376808
-0.001164535099
-0.001122007142
-0.001079994587
-0.001051105645
-0.001035567996
-0.001028065563
-0.001055428216
-0.001051531278
-0.0009714665385
-0.0005637766878
-0.001237131024
-0.002879357783
-0.006842096344
-0.003252398
0.003165161603
)


100
(
-0.008324778998
-0.0150930563
-0.01349212058
-0.01329979441
-0.01474407982
-0.01571395048
-0.01678174054
-0.01676396234
-0.01789434298
-0.01752369518
-0.01724793027
-0.01751868014
-0.01653218908
-0.01551719607
-0.0154434077
-0.01486977378
-0.01364753211
-0.0128288318
-0.01271433533
-0.01213857752
-0.01108605312
-0.01034162587
-0.01003098287
-0.009860002098
-0.009336772421
-0.008869161948
-0.008583561374
-0.008441029339
-0.00842064703
-0.008196446846
-0.007728577998
-0.007194693621
-0.006761523316
-0.006642315069
-0.006508633206
-0.006028074458
-0.005625782756
-0.005425297912
-0.00546882902
-0.00570045792
-0.006022509691
-0.006124033191
-0.00615805033
-0.006048394023
-0.005971018272
-0.006057428838
-0.006114545925
-0.005785715778
-0.005463102242
-0.005261491666
-0.005188402604
-0.005236450882
-0.005258628987
-0.005149438934
-0.004909039139
-0.004653854546
-0.004607853115
-0.004568834802
-0.004320074532
-0.004025699101
-0.003801649099
-0.003612120608