/*--------------------------------*- C++ -*----------------------------------*\
| =========                 |                                                 |
| \\      /  F ield         | OpenFOAM: The Open Source CFD Toolbox           |
|  \\    /   O peration     | Version:  2.3.1                                 |
|   \\  /    A nd           | Web:      www.OpenFOAM.org                      |
|    \\/     M anipulation  |                                                 |
\*---------------------------------------------------------------------------*/
FoamFile
{
    version     2.0;
    format      ascii;
    class       dictionary;
    location    "constant";
    object      PM39;
}
// * * * * * * * * * * * * * * * * * * * * * * * * * * * * * * * * * * * * * //

PM39_table
100
(

100
(
-7.925886859
-2.492775909
-1.313961452
-0.6118180355
-0.4343236322
-0.2339923896
-0.1057607904
-0.03156901681
0.01969208273
0.09003815507
0.09131614492
0.1577254839
0.1791014079
0.1810477221
0.2058084158
0.2206367121
0.2213370588
0.2235363494
0.236460551
0.2405514437
0.2367514143
0.2396744541
0.2464430914
0.2484485769
0.242135727
0.2508841946
0.2556431247
0.2512971882
0.2340090459
0.2378570706
0.2409752631
0.2411871021
0.2361291985
0.2415192669
0.2447281043
0.2406283558
0.2212883003
0.2126997921
0.2139168309
0.212057642
0.201594513
0.194530838
0.1958487398
0.1956728641
0.191546103
0.1874008532
0.1889555882
0.1902717415
0.1772124916
0.1656571983
0.1607556535
0.1598370169
0.1536769815
0.1479117734
0.145132586
0.1447449267
0.1431412816
0.141424958
0.1409395244
0.1395843892
0.1360806129
0.1287506345
0.1239352809
0.1229948114
0.1199710649
0.1119518197
0.1075210112
0.1069396099
0.1012187791
0.09503860839
0.09193865097
0.08956755478
0.08292449746
0.07911000611
0.07876828694
0.07524118847
0.06805360565
0.06698992641
0.06411986748
0.05724760153
0.05685284266
0.05211166502
0.04830067083
0.0479384748
0.04135356832
0.04060591496
0.03746475519
0.03416825424
0.03302623786
0.02968764291
0.02849573506
0.02632127392
0.02547377239
0.0238382198
0.02338336734
0.02205857513
0.02177403671
0.02329394207
0.02966755455
0.03531373324
)


100
(
-12.38811205
-1.846291711
-1.085053357
-0.555293739
-0.4261776188
-0.2139968325
-0.1162017827
-0.03381273738
0.01749769612
0.07481142143
0.09088542679
0.1415941944
0.1613128254
0.1730954204
0.1921796161
0.2019408003
0.207223691
0.2174912923
0.2177956252
0.223464528
0.2282212746
0.2283868686
0.2285522983
0.2323630392
0.2362148624
0.2357901074
0.2371660569
0.2366696915
0.232713001
0.2275800002
0.224587984
0.2264700535
0.2280674275
0.2280511789
0.2273773045
0.2263107799
0.2185661423
0.2115854193
0.2046102304
0.2001954062
0.1959949396
0.1923162041
0.1885620128
0.1845223829
0.1835041552
0.182546931
0.1813693764
0.1795694703
0.1731217487
0.167907497
0.1629322286
0.1577725565
0.1510771953
0.1482305989
0.1461352776
0.143700826
0.1395327148
0.1390618245
0.1389083601
0.1373345453
0.1330212149
0.1320460881
0.1283154772
0.123466034
0.1206481261
0.1186704699
0.1132311933
0.107415476
0.1059477909
0.1018432356
0.09607562952
0.091678689
0.08944275377
0.08429752539
0.07964242063
0.07953323731
0.07802068984
0.07240282503
0.06999069086
0.06678512329
0.06301663669
0.06210443409
0.05661270299
0.0571944254
0.05413690617
0.04995993572
0.04957510296
0.04620691331
0.04418887251
0.04282192102
0.04077923552
0.03902430288
0.03747735917
0.03657674369
0.03512015102
0.03415232357
0.03168357719
0.02816728207
0.03378730511
-0.1243750585
)


100
(
-13.60974098
-1.638897793
-0.9713897401
-0.6526055538
-0.4593465575
-0.2352299036
-0.1590995159
-0.06272387636
-0.01196943793
0.04221080375
0.06733816929
0.1079351876
0.1280693561
0.1467337695
0.1661731261
0.1733457211
0.1808615293
0.1941314433
0.1974720073
0.1955185074
0.2054828965
0.2089701569
0.2074795128
0.2060401933
0.2143927876
0.2146555292
0.2141095841
0.2137033817
0.2188287426
0.2139932297
0.208791629
0.2041895067
0.2073627489
0.207242324
0.2073750794
0.2069283759
0.2077030886
0.2055255721
0.198914385
0.1926457868
0.1874285852
0.1845759788
0.1816154963
0.1787493287
0.1764130634
0.1734475254
0.1727201327
0.1722855795
0.1717029418
0.1678267383
0.1661848902
0.1621809747
0.1577725387
0.1518799365
0.1497745349
0.148262996
0.1448268311
0.1377788587
0.1355944515
0.1354396923
0.131646984
0.1295549119
0.1307343669
0.126292121
0.1211916923
0.1215295146
0.1213173387
0.1134644384
0.1097148033
0.1096269893
0.1074657183
0.1025816548
0.1019540108
0.1003072276
0.09290135246
0.089037879
0.09315407315
0.08926162538
0.08407845671
0.08681112589
0.0814249695
0.08065974534
0.07899143658
0.07374988827
0.07770805892
0.07291880703
0.07219632095
0.07381779393
0.07005368195
0.07101811716
0.06975069531
0.06996180515
0.06733436911
0.0672169447
0.06621780505
0.0646487003
0.05383115496
0.0393791445
-0.06099675529
-0.1168233054
)


100
(
-9.79063009
-2.045060726
-1.146504746
-0.7872964498
-0.4452377785
-0.2849182936
-0.1827868339
-0.09741308033
-0.03971729989
0.01240803124
0.04380641143
0.0783542126
0.1068972999
0.1218436852
0.1424588695
0.1567582137
0.1614081578
0.1708681471
0.1823312153
0.184392657
0.1843718718
0.1918667862
0.1960709636
0.1950597329
0.1931141589
0.1987804102
0.2010768011
0.2011516773
0.200354959
0.2033090976
0.2034560379
0.1990303109
0.1949602887
0.1928702533
0.1961484543
0.1968855674
0.1978009434
0.1956957618
0.198176775
0.1959678041
0.1909099188
0.1858934838
0.1823025842
0.1838501971
0.1817769707
0.1773145178
0.1695309062
0.1709768185
0.1722347134
0.1695629087
0.1633032727
0.1635210278
0.1646292236
0.1591265775
0.1514972405
0.1497252536
0.1525869671
0.1457344009
0.1366327752
0.1329323336
0.13353427
0.1285891462
0.1261183721
0.1266126676
0.1255405954
0.1231320456
0.1242629618
0.1248386257
0.1210919767
0.1189161698
0.1183288745
0.1180873215
0.1161379015
0.118057289
0.1184777285
0.1097953407
0.1046833947
0.1096099216
0.1057938093
0.1011015769
0.1032664119
0.09870139196
0.1007517862
0.0983824458
0.09780156581
0.09790070449
0.09439400167
0.09567814305
0.09627412817
0.09699445748
0.09520735532
0.09333269744
0.09415046141
0.09025053545
0.0893394728
0.08598553382
0.06040295635
0.0001221426418
-0.116547583
-0.1803699947
)


100
(
-7.645697488
-2.479692515
-1.339602303
-0.7525638847
-0.4537751947
-0.3511752792
-0.205261807
-0.14003627
-0.06648848723
-0.01833036544
0.0226582861
0.05204383604
0.08338497829
0.1043991728
0.1196024034
0.1380946195
0.1496675566
0.1551382586
0.1636788401
0.1747323322
0.1770225278
0.1778656416
0.1828908758
0.189090838
0.1885890405
0.1873379049
0.1889292886
0.1934080087
0.1943975126
0.1955375351
0.195791773
0.1998927543
0.1977431813
0.1950851936
0.1901761687
0.1941638003
0.1970257358
0.1984471676
0.1913670028
0.193812331
0.1955449605
0.1944953153
0.186401051
0.1822089751
0.1840668849
0.1873009629
0.1773436387
0.1666746913
0.16811113
0.1725848514
0.166729025
0.1595261459
0.1588291438
0.1608113965
0.155741933
0.1487746444
0.1480587294
0.150936732
0.1476414978
0.1412910641
0.1385762609
0.1387771813
0.1362825477
0.1343115472
0.1329549856
0.131653142
0.1311673691
0.1322232405
0.132365187
0.1317536104
0.1296084988
0.1288103473
0.1271671373
0.1265016028
0.1301918081
0.1330618489
0.1234226817
0.1223225095
0.1250592186
0.1205789232
0.1215954484
0.1208085914
0.1156564562
0.1175833616
0.1185098294
0.1195097245
0.1189271631
0.1173025526
0.1157969334
0.1155066278
0.1182865845
0.1154065907
0.1133008663
0.1135781674
0.1088100094
0.1010624281
0.0617906723
-0.05049723049
-0.06563593711
-0.112789063
)


100
(
-7.556897764
-2.187865964
-1.251751713
-0.7249067596
-0.5315896021
-0.3753623309
-0.2470564283
-0.1687345024
-0.1012820859
-0.04588345401
-0.00472381659
0.03095004355
0.05790376505
0.08510457466
0.1035684744
0.1181794018
0.1349539096
0.1460717559
0.1523192768
0.159938705
0.1707467315
0.1745418149
0.1763266526
0.1793551482
0.1871512144
0.1877346219
0.1866447796
0.1883004896
0.1939294651
0.1967802016
0.1973698284
0.195306699
0.199266364
0.2022245479
0.1979953262
0.1914210628
0.1945136886
0.2010888853
0.1980097966
0.1896211613
0.1911147265
0.1934177001
0.1925849461
0.1838582549
0.180118148
0.1850931867
0.187353329
0.1765444675
0.1662401417
0.1692809784
0.1716034958
0.1662487231
0.160075535
0.1596829592
0.1621338328
0.1600673257
0.1573384891
0.1587525779
0.1604592745
0.1607345295
0.1580882214
0.1547768617
0.1516407868
0.1486581315
0.1470945219
0.1443842367
0.1413060754
0.1411050335
0.1407856687
0.1413147351
0.1409144665
0.1398303032
0.1386174571
0.1365971581
0.1338019838
0.1378776955
0.1438387853
0.1409591862
0.1398157592
0.1391019
0.1401268197
0.1427523325
0.1401112645
0.1372078272
0.1364801899
0.1348120275
0.1356790989
0.136078575
0.1379153189
0.1335748303
0.1328549861
0.1347608425
0.1324306452
0.1322407564
0.126556752
0.105597635
0.04864370393
-0.05890113098
0.01048571059
-0.05465090539
)


100
(
-8.08015671
-1.981631916
-1.178110304
-0.7869051202
-0.6272100449
-0.3938140848
-0.3053985839
-0.1947582667
-0.1394901117
-0.07539998536
-0.03196719947
0.006601272195
0.03686944078
0.06199064851
0.0864408262
0.1036195989
0.1176527051
0.1335830269
0.1450297552
0.1522626234
0.1593208151
0.1699401572
0.1752409751
0.1776721786
0.1789920471
0.1872750361
0.1913218273
0.1899397138
0.1910967687
0.1948677082
0.2009065116
0.1960161615
0.1946590672
0.1977286845
0.2038177507
0.195978783
0.1903230901
0.1936741341
0.2038835998
0.1970802063
0.188699518
0.1895787415
0.194307181
0.1912378175
0.1831452452
0.1811870764
0.1869349978
0.1882234916
0.1783948054
0.1721298728
0.1746728975
0.1780527127
0.17617953
0.1730997513
0.1710002913
0.1698222545
0.1706856295
0.1724244837
0.1718559619
0.1710356728
0.1710384987
0.1712381678
0.1677086607
0.1628709122
0.1603929028
0.1602998309
0.1591377328
0.1584745646
0.1580855744
0.1558940998
0.1546245324
0.1538061114
0.1519410351
0.1506362624
0.1515701064
0.1497885342
0.1533278526
0.1554250686
0.1562508966
0.1561101143
0.1549120129
0.1547381995
0.157166444
0.1560211406
0.1552768659
0.1538844256
0.1512789321
0.1490438332
0.1506765986
0.1530651149
0.1497527256
0.1484131952
0.1478682982
0.1465062501
0.1420180194
0.1089193245
0.02104816104
-0.01447768859
0.08512640692
0.09972817488
)


100
(
-6.882486294
-1.930219438
-1.23171997
-0.9174073455
-0.6328579345
-0.4443981118
-0.3386436456
-0.2372596665
-0.1684660996
-0.1125323659
-0.05792741865
-0.02054012298
0.01491350513
0.04134220373
0.06516947386
0.08765535354
0.1042114052
0.1180684791
0.1334120713
0.1448725942
0.1526156632
0.15861308
0.168802986
0.175586798
0.1784812795
0.1800987036
0.1870741234
0.190959443
0.1885810906
0.1894285218
0.1936555183
0.2001939804
0.1930245974
0.1920785477
0.1970516315
0.2012858831
0.1933534488
0.1885816506
0.1966564453
0.2018834602
0.1955216033
0.1875793767
0.190217587
0.1925045835
0.1901242165
0.1841461077
0.1864176319
0.1914685282
0.1947241106
0.1892100984
0.1877428082
0.1869883836
0.1884246116
0.1895292244
0.1876540296
0.1826912566
0.1776539796
0.1751237105
0.1752911005
0.1749731971
0.1746236338
0.1764286733
0.1789795922
0.1802983607
0.1787899435
0.1776051259
0.1755020396
0.1729453433
0.1735219491
0.1725098162
0.1685446844
0.1663783519
0.1657259939
0.1657160714
0.1669065382
0.1661214924
0.1645938232
0.1663389801
0.166785164
0.1662933048
0.1672316163
0.1681321985
0.1687563755
0.16963676
0.1697602064
0.1695180351
0.1682196926
0.164696251
0.1631153153
0.165940683
0.1656453025
0.1629243593
0.1614523265
0.1586220778
0.1540430631
0.1112062934
-0.01310028364
0.01841825037
0.1630463311
0.102425077
)


100
(
-5.488837675
-2.226993629
-1.412024345
-0.9707407242
-0.6355253809
-0.5197204571
-0.3610669396
-0.2896446382
-0.1953164645
-0.1438637831
-0.08947831769
-0.04533064058
-0.01145910328
0.02115588952
0.04528586285
0.06789218148
0.08884500584
0.1051083813
0.117907483
0.132097014
0.1436496439
0.1517863307
0.1562770925
0.1655947003
0.1735205045
0.1759263431
0.1784248938
0.1833372932
0.1873146784
0.1850137386
0.1855437033
0.1947336316
0.1952298686
0.1887301373
0.188010226
0.1967645657
0.1970207919
0.1899249469
0.1874748239
0.1955784716
0.1987733292
0.1933533567
0.1874609864
0.1896736148
0.1933190246
0.1938784063
0.1942870008
0.1967895049
0.1987756416
0.2015138628
0.2005067997
0.1970538628
0.1932362785
0.1903013262
0.1906464782
0.1930503244
0.1894720674
0.1850070513
0.1822133608
0.1813589391
0.1821945922
0.1836888722
0.1868250126
0.187857991
0.1866826224
0.1865833857
0.186280124
0.1829273378
0.180698118
0.182034695
0.1832353201
0.1830820281
0.18178236
0.1778718772
0.1763385167
0.1775451192
0.1760103955
0.1757283251
0.1776758352
0.1789188254
0.1782669596
0.1783859977
0.1792716739
0.180282648
0.1811268894
0.1817772198
0.180977699
0.1783612872
0.1755992495
0.1759568819
0.1765964665
0.1744565201
0.1724109518
0.1687580986
0.1636471025
0.1126545984
-0.04683110344
0.03882706679
0.2214227782
0.199202599
)


100
(
-4.716732441
-2.408846792
-1.477828093
-0.9449917128
-0.6977264046
-0.5554203347
-0.4022339527
-0.3168036334
-0.2367074661
-0.1692791243
-0.1237770809
-0.07284750838
-0.03573040928
-0.00409742088
0.02634108357
0.04878057123
0.06967391127
0.08891345465
0.1048261511
0.1165547924
0.1293211002
0.1403978468
0.1482290784
0.1532182085
0.1595300039
0.1669894581
0.1705361729
0.1740258698
0.1779763556
0.1818384699
0.1803460932
0.1830304903
0.1910461067
0.1900019431
0.1837422609
0.1864379352
0.1916753686
0.1923593816
0.1864946365
0.1886991454
0.1941242937
0.1991920567
0.1966972628
0.1956703635
0.1940859417
0.1961861286
0.1991420124
0.2005285188
0.2003567024
0.1991841041
0.1974853754
0.1991121801
0.1983931757
0.1954913025
0.1929544341
0.1933352383
0.194565118
0.1971716838
0.1962040803
0.1945514499
0.1916871889
0.1883943175
0.189319594
0.1915809086
0.1905301833
0.1888834718
0.1900306844
0.1916794375
0.1930895387
0.1941158923
0.1926104436
0.1894148709
0.1902696295
0.1884344301
0.1852324363
0.1848005739
0.1866259281
0.1871513972
0.1863791876
0.1863365289
0.1869168059
0.1869454546
0.1876320605
0.1882647455
0.1885966438
0.1886845898
0.189611107
0.188074001
0.1856465298
0.1840848671
0.1821187941
0.1799476615
0.1765803894
0.172873662
0.1605022454
0.1056553059
-0.07987860637
0.07109193407
0.2717903958
0.2438408179
)


100
(
-4.600043839
-2.262002298
-1.42351533
-0.945807936
-0.7934025075
-0.5677997983
-0.4648594248
-0.3394965055
-0.2801834365
-0.2012036527
-0.1497570751
-0.1064978476
-0.06032302932
-0.02757219537
0.001846913467
0.03024923578
0.05089415787
0.06971705537
0.08753080823
0.1030645103
0.1131952934
0.124463197
0.135488001
0.1427372519
0.1485921921
0.1528008128
0.1596251343
0.1648444777
0.1689663234
0.1746984261
0.1756211843
0.1743812537
0.1827921581
0.1861559018
0.1852878362
0.1799094488
0.1841606317
0.1879871228
0.1910154986
0.1912801701
0.1945623421
0.1990375721
0.2039983533
0.203968541
0.2012292757
0.1973633617
0.1941807994
0.1960045879
0.1998611236
0.1994569628
0.1985383047
0.1972725434
0.1969650836
0.1990182632
0.2009713272
0.2009402525
0.2022292539
0.2013122267
0.2001774529
0.2015197994
0.2007863424
0.1964701926
0.1924544728
0.1925404098
0.1955071862
0.1973597474
0.1981883895
0.1982389608
0.1968572057
0.2001272547
0.2009211928
0.197678847
0.1957210903
0.1962614465
0.1966771434
0.1949735897
0.1929304135
0.1925935438
0.1930092955
0.193069989
0.1935208751
0.1935065625
0.1920944275
0.1915025556
0.1917443364
0.1919145766
0.1920357772
0.1917141026
0.1900736921
0.187745831
0.1853964935
0.1826638045
0.1775234463
0.172629295
0.1490664972
0.08262447661
-0.09080831201
0.1172598984
0.2603336503
0.2208319639
)


100
(
-4.963601888
-2.130777341
-1.372885522
-1.05552863
-0.8254277622
-0.6070278871
-0.5044789831
-0.3867641966
-0.3082867852
-0.2448785764
-0.175874103
-0.1333825135
-0.09083175587
-0.0503936419
-0.02132283372
0.005293170312
0.03176529585
0.05079927265
0.06737326288
0.08384875684
0.09905844298
0.1098681005
0.1192949066
0.1292903567
0.1374270795
0.1442179885
0.1475151393
0.1535763619
0.1602491691
0.1647595905
0.1712612116
0.1715676802
0.1735766776
0.1800448087
0.1833506504
0.1830217699
0.1838646321
0.1855667382
0.1911995066
0.1956451718
0.1987034124
0.2000579031
0.1998104351
0.2016182503
0.2044654653
0.2032133356
0.1998532224
0.1967345635
0.1956984187
0.1981946117
0.2017628946
0.2031131624
0.2044881206
0.2049965285
0.2036304596
0.2057943568
0.2088858944
0.2082802532
0.2056146883
0.202666568
0.2018514166
0.2040429308
0.2044600914
0.2038020604
0.2033683474
0.202447002
0.2045022881
0.2054584856
0.2025813986
0.2011052817
0.2046274749
0.2074455052
0.2069631627
0.2064844812
0.2056850726
0.2049983182
0.2022940399
0.1993205485
0.1988628667
0.1988994015
0.198007845
0.1976896214
0.1964731395
0.1951280248
0.1941940465
0.1929448461
0.1928585536
0.1920408088
0.1896239578
0.1873023073
0.1840385479
0.1813200915
0.1768788012
0.1695892979
0.1393441949
0.0417040652
-0.05580116289
0.1825248115
0.2881202581
0.2755495377
)


100
(
-4.699124825
-2.12887576
-1.486256135
-1.17851581
-0.8293722201
-0.6871359737
-0.5301476405
-0.4504134414
-0.3389254726
-0.2807228446
-0.2159469619
-0.1573043401
-0.1198188605
-0.07978885184
-0.04403106326
-0.01837056269
0.005382365715
0.03020786174
0.04836751309
0.06328072245
0.0791225435
0.09404391221
0.1058378334
0.114447662
0.1238132014
0.1326575166
0.1399275325
0.1450188378
0.1487419307
0.1553323782
0.1623525138
0.1698063769
0.171019832
0.1745797853
0.1805588838
0.1864935363
0.188643598
0.1909764095
0.1900666946
0.1909724165
0.195666198
0.1988991944
0.1999725455
0.2005988888
0.2000958369
0.2027205187
0.2051931171
0.2042224384
0.2025970487
0.2038270102
0.2048332249
0.2085790755
0.213267539
0.2150010945
0.2131896962
0.2098077948
0.2069782389
0.2107275031
0.212274065
0.2111186139
0.211161772
0.2106434292
0.2114013611
0.2144081538
0.2151740608
0.2112121727
0.2069594025
0.2073080747
0.2093393017
0.2082669427
0.2095903621
0.2111424485
0.2121970391
0.2123919411
0.2118768625
0.2116650761
0.2110849069
0.2083067612
0.2046804099
0.2035622837
0.2021532426
0.2009555836
0.2001852591
0.1980539687
0.1968609003
0.1950861971
0.193755228
0.1929995003
0.190895488
0.1884732268
0.1850384409
0.1815802379
0.1769535841
0.1686261502
0.1315307132
-0.0174245617
-0.01061041296
0.29860195
0.314538211
0.2828269784
)


100
(
-4.134823258
-2.318330953
-1.640467036
-1.169447901
-0.8766201015
-0.7466468788
-0.5733895032
-0.4852202619
-0.3938445942
-0.3107415727
-0.2585476295
-0.1945737634
-0.1456419511
-0.1111010965
-0.07404914325
-0.04156399407
-0.01843133577
0.00289613
0.02629496094
0.04448236382
0.05854459417
0.07335707001
0.08821679555
0.1010670014
0.109100853
0.1184917532
0.1279597264
0.1352908555
0.141890274
0.1460057572
0.1521462564
0.1605341132
0.1679992196
0.173690582
0.179757359
0.1827258377
0.1871311753
0.1907837231
0.1909612303
0.1907494849
0.1897900523
0.1923788827
0.1977543894
0.1992336181
0.200490402
0.201861651
0.2032296869
0.2067292882
0.2111843996
0.2128910136
0.2144229448
0.213599586
0.2119889575
0.2154054019
0.2200021375
0.2175796826
0.2145919828
0.2130960314
0.2143005485
0.2185967274
0.2225538178
0.2230720651
0.2192300123
0.2152215199
0.2180705652
0.21942685
0.2163191949
0.2143038682
0.2138164488
0.2145489784
0.2144518138
0.2132366422
0.2122513845
0.2128274854
0.2133785936
0.2134597647
0.2136663354
0.2131185241
0.2097424362
0.2065390079
0.2049760259
0.2035311857
0.2024278293
0.2000706874
0.1975520391
0.1959995192
0.1948346381
0.1936412447
0.1924690559
0.1894579177
0.185886585
0.1830689076
0.1762946235
0.1649745865
0.1230089132
-0.06396843991
0.02271090777
0.3546511647
0.3162335507
0.2594999084
)


100
(
-3.761331043
-2.380354524
-1.637992938
-1.157699957
-0.9731499819
-0.763838999
-0.6447265544
-0.5116564306
-0.448053027
-0.3536280878
-0.2889185646
-0.2405084542
-0.1802807279
-0.1379488904
-0.1069780336
-0.07261296363
-0.04220800504
-0.02050587335
-0.001198894412
0.02079459354
0.03937780501
0.05307954827
0.06681737313
0.0810322188
0.09454166156
0.1045843648
0.1128164664
0.1219675697
0.1309760025
0.1386325699
0.1457374274
0.1506766713
0.1594316835
0.1685080784
0.1739063735
0.1784541841
0.1799657348
0.1824268997
0.1868409862
0.1891287534
0.1892409627
0.1896757252
0.1900635547
0.1938159173
0.1983728836
0.2012499066
0.204939657
0.2091357515
0.2096828307
0.2128702957
0.2160783523
0.2163703265
0.2150574744
0.2138457623
0.2145104791
0.2181310457
0.2210087138
0.2202130322
0.2220881291
0.221397131
0.2222331679
0.2257779914
0.2258396
0.2220442295
0.2190425496
0.2196648521
0.2213990973
0.2218150817
0.2202008449
0.2184260083
0.2180062787
0.2175250818
0.2153724457
0.2135079052
0.2132601167
0.2132380173
0.2126675167
0.2125351094
0.2115853687
0.2084618927
0.2064036646
0.2044244532
0.2015114941
0.1995474787
0.1973379058
0.1952477783
0.1920801049
0.1900268821
0.189001111
0.1876473632
0.1825688395
0.1785500936
0.1728150641
0.1595188974
0.1181679605
-0.08951316432
0.03137557159
0.3656578201
0.3485768864
0.3435200178
)


100
(
-3.802733688
-2.300531574
-1.596537565
-1.219207291
-1.032226476
-0.7920111229
-0.692421081
-0.5613489068
-0.4764022261
-0.4076866212
-0.3214956944
-0.2699377627
-0.2234936604
-0.1706038374
-0.1336019852
-0.1063053299
-0.07431273525
-0.04498379656
-0.02406400366
-0.006480506486
0.01388285016
0.03297032349
0.04655642447
0.05952865916
0.07322932068
0.0865883025
0.09850984366
0.1069991049
0.1171179276
0.1274210158
0.1357387601
0.144159668
0.1501664933
0.1559359402
0.1628490031
0.1692354295
0.1730618831
0.1763220301
0.1768331234
0.180632949
0.1848172451
0.1864169667
0.1875648271
0.1904758352
0.1930553352
0.1978968555
0.2035128054
0.2065987762
0.2089722629
0.2096443945
0.2083704604
0.211933049
0.2144570857
0.2128880741
0.212664067
0.2161198477
0.2177321763
0.2215018999
0.2239130787
0.2228372191
0.2213115471
0.2196920788
0.2238776593
0.2254990444
0.223120278
0.2224651514
0.2219529916
0.2220837208
0.2217768346
0.2200731624
0.2180970041
0.2168873123
0.2167469825
0.2148351184
0.2130450533
0.212402618
0.2112192636
0.2097076766
0.2088359091
0.20695443
0.2045986848
0.2026675806
0.1997492336
0.1974397852
0.1941871006
0.190180719
0.1866328891
0.1835853091
0.1801859101
0.1789980526
0.1763277654
0.1668261452
0.1637524628
0.1503385849
0.1186498371
-0.09894659729
0.02518057175
0.3681295399
0.372742451
0.364560911
)


100
(
-4.011883818
-2.211318056
-1.59620186
-1.320510049
-1.030544605
-0.8659605014
-0.7131540943
-0.625501747
-0.504533687
-0.4414179638
-0.37034273
-0.2967125275
-0.2551526514
-0.2123241621
-0.1647775969
-0.1316505049
-0.1075650813
-0.07797520334
-0.04941993472
-0.02880927337
-0.0127872638
0.005585684075
0.0249876913
0.04003825094
0.05225559207
0.06505172231
0.07852850749
0.09193470167
0.1038840176
0.1131779481
0.1226353241
0.1313999211
0.1386053551
0.145392672
0.1491987642
0.1554413717
0.1619896607
0.1659586463
0.1697570314
0.1727319199
0.1739526453
0.1782621597
0.1837186136
0.1873056442
0.1919865442
0.1948057837
0.1943245303
0.1981122667
0.2032900559
0.2040065158
0.2049859204
0.2049117362
0.2048901498
0.2075809207
0.2109757064
0.2129940239
0.2152706207
0.2147747622
0.2162297427
0.2197408331
0.2190761386
0.2177176669
0.2180470611
0.219347356
0.2207116439
0.2214282382
0.2201297722
0.2184712559
0.2184511829
0.2181091423
0.215703618
0.2132426875
0.2127363093
0.2123801083
0.2100138635
0.2071482963
0.2066225942
0.2055521764
0.2047145996
0.2032617944
0.1985596197
0.1951740363
0.1943375255
0.193088057
0.1895870129
0.1842399628
0.1798072204
0.1762222459
0.1719452109
0.1675889066
0.165741964
0.1580169393
0.1505426124
0.1355772632
0.09823779188
-0.09934041079
0.0256649491
0.387864925
0.3657101696
0.3549316108
)


100
(
-3.83242027
-2.266891548
-1.695605942
-1.348367341
-1.042139135
-0.9289751837
-0.746018448
-0.6563101458
-0.5603584402
-0.4673126207
-0.4132170594
-0.3445516966
-0.2816247708
-0.2459527767
-0.2064189344
-0.1626257893
-0.1316118672
-0.1104354792
-0.08367679747
-0.05563933653
-0.03474163933
-0.01978768396
-0.003555901554
0.01593787741
0.03256605778
0.04558726191
0.058554899
0.07230942588
0.08562679418
0.09886131602
0.1077575234
0.1162014504
0.1234433828
0.1302588342
0.1373399129
0.1433970498
0.147034649
0.1533090091
0.1587228257
0.1622634567
0.166413021
0.171674894
0.1744918801
0.180558626
0.1854411764
0.1886707473
0.1905720435
0.1913900845
0.1909910138
0.1952759378
0.1978066053
0.1975845274
0.200272861
0.2017443904
0.2025617466
0.2048945018
0.2089940658
0.2097347392
0.2102290104
0.2099783316
0.2116925669
0.2130596618
0.2118432982
0.2119398625
0.2120185371
0.2129168324
0.213338609
0.2122375275
0.2104451391
0.2094972752
0.2093689979
0.2084078113
0.2065690841
0.2059367708
0.2039935568
0.2001445097
0.1980208314
0.1978136103
0.1959494999
0.1938432782
0.190128989
0.1864707103
0.1856984967
0.1819986785
0.1784339534
0.1745409264
0.1692498014
0.1638954085
0.1589249739
0.1551287482
0.1493131235
0.1459241315
0.136636651
0.1198420846
0.0870765949
-0.1092712813
0.03466409156
0.400029359
0.3597076462
0.3875952638
)


100
(
-3.551799139
-2.378554532
-1.76369383
-1.330410186
-1.117678777
-0.9424690597
-0.8127844884
-0.679204276
-0.6129940011
-0.5150737086
-0.4439131366
-0.3957741609
-0.3277923923
-0.2732102514
-0.2417281036
-0.2050335621
-0.1637721212
-0.134059825
-0.1151352327
-0.09116956668
-0.06341939096
-0.04236593933
-0.02674450307
-0.01148519392
0.006729643698
0.02475277606
0.04051721938
0.05345968834
0.06546848291
0.07737246241
0.09023153698
0.1010420864
0.1077801445
0.1143675887
0.1214134092
0.1276984797
0.1349625739
0.1405718024
0.1451769413
0.1505208886
0.1572328423
0.1619605496
0.1678982479
0.1711730766
0.1737591312
0.1783652177
0.1835480689
0.1840181305
0.1852846133
0.1856637646
0.1859699336
0.1898812505
0.193811776
0.1964761718
0.1967192812
0.1954076896
0.1985116893
0.2022726975
0.2028927745
0.2028514306
0.2031095264
0.2028027079
0.2029474249
0.202503831
0.2020018131
0.201248096
0.2020088885
0.202043043
0.2002683863
0.1987708697
0.1991818623
0.1994128539
0.1976066105
0.1946789546
0.1926453678
0.1908220283
0.1880165234
0.1872344075
0.1848087909
0.1809134069
0.1788907957
0.1753216334
0.1726665821
0.168117547
0.1634158527
0.1581756153
0.15336057
0.1483297705
0.1427715613
0.1389204288
0.1324319964
0.1273573764
0.1190014047
0.1034838336
0.06692337511
-0.08863469848
0.04040934455
0.3967093581
0.3408246467
0.396737296
)


100
(
-3.32693169
-2.348126955
-1.735342949
-1.345386192
-1.192241502
-0.9542423332
-0.862397466
-0.7290670887
-0.6406769004
-0.5743381387
-0.4827809737
-0.4252667123
-0.3816833418
-0.3167931784
-0.2681813709
-0.2406473228
-0.2068953878
-0.1680012543
-0.1383165266
-0.1203766106
-0.1011979342
-0.07362222704
-0.05116558327
-0.03352801189
-0.01857737768
-0.002410313846
0.0160975413
0.03337734266
0.04649780614
0.05724149531
0.06722897744
0.07875309629
0.09075537581
0.09923987211
0.1050904153
0.1112600593
0.1182629846
0.1250201403
0.1328218713
0.1396376451
0.1454034755
0.1505429298
0.1557041897
0.159867814
0.1646076982
0.1670070888
0.170665776
0.1739007938
0.1758891652
0.1762337602
0.1796218059
0.1805009421
0.1826902364
0.1862057043
0.1895782315
0.1907071243
0.1904380976
0.1906844553
0.1920650676
0.1938294237
0.1935565456
0.1929438422
0.1927813101
0.1934129248
0.1934024859
0.1920981375
0.1899873447
0.188719146
0.187970608
0.1872899195
0.1862411995
0.1860324091
0.184976808
0.1818620203
0.1800606757
0.1793936955
0.1762819117
0.1716301222
0.1691541202
0.1673234662
0.1669895537
0.1635809249
0.1566590974
0.1523215669
0.1485477961
0.1425810807
0.1367722859
0.1312695309
0.126211386
0.1206753235
0.1151227111
0.1081315537
0.1007765957
0.0850533297
0.0549227429
-0.06282947309
0.03949324394
0.3785539746
0.3307491113
0.3856116774
)


100
(
-3.443079636
-2.299816162
-1.708980811
-1.419622803
-1.193301982
-1.01955668
-0.8851492142
-0.7945062623
-0.6732331564
-0.6068202966
-0.5384712188
-0.4581009959
-0.4111059428
-0.370398767
-0.3112123401
-0.2658940608
-0.2419575194
-0.2121124213
-0.1749065385
-0.1466804689
-0.1277218099
-0.1090845545
-0.08432396699
-0.06090354122
-0.04110796329
-0.02532377274
-0.01103172335
0.004959429311
0.0225638985
0.03740690464
0.04746653699
0.05590040265
0.0660688977
0.07795442114
0.0884910882
0.0951526185
0.1011620316
0.1078596771
0.115510265
0.1241214
0.1324448458
0.1372329501
0.1420814361
0.1465655174
0.1506170656
0.1549417786
0.1585192753
0.1600217044
0.1623193093
0.1652920605
0.167806028
0.170584215
0.1725846565
0.1736560966
0.1788263577
0.1817942012
0.1818700037
0.1818580354
0.1815611043
0.1814553666
0.181692161
0.1811951621
0.1809670899
0.180706735
0.1809733351
0.1805235295
0.1786120236
0.1770905326
0.1771310799
0.1768502526
0.1744854083
0.1710773955
0.167992947
0.1666960013
0.1652645933
0.1642566836
0.161943749
0.1564781739
0.153412894
0.1523770241
0.1504923189
0.1467211786
0.1399889799
0.1343833842
0.1283479782
0.123409318
0.1180763922
0.1122760492
0.1070056332
0.1006150804
0.09393667889
0.08680276765
0.07762824571
0.06636557702
0.03916071567
-0.05373606252
0.03497262713
0.3558390805
0.2795630473
0.3128274511
)


100
(
-3.495766944
-2.286385588
-1.767973739
-1.478639386
-1.196558872
-1.088185537
-0.910272865
-0.8259066581
-0.7327418145
-0.6330798679
-0.5795769903
-0.5127605555
-0.4413990691
-0.4023187268
-0.364330614
-0.3097522922
-0.2673578698
-0.2451562286
-0.221078412
-0.1849642798
-0.1560018419
-0.1339470645
-0.1164533457
-0.09633186234
-0.07252263325
-0.05075784462
-0.03321340969
-0.02086030754
-0.008905673779
0.008374977504
0.02484516568
0.03638641661
0.04464073381
0.05299583714
0.0632845059
0.07406022864
0.08361787315
0.09043928317
0.09787344204
0.1042634199
0.111431896
0.1202802561
0.1281273586
0.1313793734
0.135463962
0.1382619614
0.1404641729
0.1443224159
0.1494576566
0.1503290436
0.1531914
0.1566360835
0.1597730013
0.1638823377
0.1658154092
0.1679579116
0.1691165885
0.1702399992
0.1695904986
0.1684357401
0.1684593334
0.1694221536
0.1696033345
0.1682716806
0.1660527936
0.1648775888
0.1644171876
0.1639535269
0.1629666375
0.1620686885
0.1603582566
0.1565536162
0.1539969706
0.1531175771
0.1507622102
0.1459442604
0.1417478361
0.1386369935
0.1371631716
0.1369386311
0.1315662464
0.1250220014
0.1199984732
0.1144905447
0.1078079258
0.1020792771
0.09622170787
0.08986908883
0.08419663179
0.07694749924
0.06987676037
0.06123491712
0.05215697589
0.04309810716
0.02821602886
-0.05583744613
0.03033371422
0.3424091548
0.2815848298