/*--------------------------------*- C++ -*----------------------------------*\
| =========                 |                                                 |
| \\      /  F ield         | OpenFOAM: The Open Source CFD Toolbox           |
|  \\    /   O peration     | Version:  2.3.1                                 |
|   \\  /    A nd           | Web:      www.OpenFOAM.org                      |
|    \\/     M anipulation  |                                                 |
\*---------------------------------------------------------------------------*/
FoamFile
{
    version     2.0;
    format      ascii;
    class       dictionary;
    location    "constant";
    object      PM43;
}
// * * * * * * * * * * * * * * * * * * * * * * * * * * * * * * * * * * * * * //

PM43_table
100
(

100
(
-1.890882501
-0.3252630604
-0.1194324436
-0.03059653988
-0.01126859868
0.009450811806
0.01242589346
0.01820468394
0.01740219347
0.01832342854
0.01850382126
0.01605824547
0.01594993532
0.01537935273
0.01344852205
0.01321327962
0.01331367296
0.01105021944
0.01074860854
0.01097910688
0.00960034847
0.008819758822
0.008744604691
0.008513709944
0.007313639822
0.007107125861
0.007153762395
0.006772963747
0.005819135746
0.005648055229
0.005672266907
0.005316493259
0.004812130435
0.004726779937
0.004751165692
0.004617638377
0.004049613438
0.003778428084
0.003747942568
0.003647490742
0.003299086828
0.003080805868
0.003051334198
0.002982098468
0.00276818324
0.002609222449
0.002584274741
0.002590301282
0.002339791352
0.002135911754
0.002043658138
0.00200760662
0.001859061374
0.001733860358
0.001667796991
0.001619673487
0.001534220574
0.00146639945
0.001452327168
0.001514601831
0.001652984206
0.001479986234
0.001263805127
0.00130015776
0.001398916645
0.001247403944
0.001088754168
0.001180798766
0.001171756369
0.001038692816
0.0009728803985
0.001030862497
0.0009528077246
0.0008550185586
0.001002102397
0.001055381006
0.0007934326174
0.0008816029965
0.0009243869138
0.0006895768335
0.0008210953442
0.0007230974464
0.0006642848465
0.0007902326901
0.0005947678974
0.0006759310296
0.0006582432458
0.0006008599359
0.0006768970109
0.0006116812413
0.0006627782676
0.000667419866
0.0007464190187
0.0007675716833
0.0008657125717
0.0008911126666
0.0009876784105
0.001123134966
0.001099115584
0.0009741653194
)


100
(
-2.71268998
-0.219513605
-0.09085996452
-0.02511814271
-0.007629069979
0.01008018046
0.01473204454
0.01850355776
0.0190982959
0.01872400867
0.0189292398
0.0169727367
0.01645842359
0.01597111249
0.01429694219
0.01367679407
0.01347188804
0.01202653013
0.01111195063
0.01100381265
0.01014129136
0.009296028848
0.008846783334
0.00854617265
0.00783769243
0.00732306138
0.007096818445
0.006771065461
0.006224327736
0.005808681797
0.005569283941
0.005303408184
0.005006589844
0.004773668863
0.00461916189
0.004480772303
0.004169593636
0.003923073762
0.003713168986
0.003545537006
0.003344156114
0.003186791589
0.00305294315
0.00291128441
0.002785814534
0.002686432027
0.002600775993
0.00252397998
0.002366038217
0.002248584567
0.002150238848
0.002055925432
0.001935490822
0.001870263392
0.001826022117
0.001767432936
0.001687439072
0.001651716625
0.001628685907
0.001594451204
0.001597123217
0.001700874417
0.001632366571
0.001480867416
0.001425755337
0.001458088201
0.001367223225
0.001250743061
0.001257238452
0.001223008935
0.001122657439
0.00105151988
0.001057061462
0.0009657699825
0.0008939053612
0.001063748267
0.001187599337
0.00101650036
0.001030504065
0.001026076687
0.000935112189
0.001040723008
0.0008926372222
0.001052693053
0.001028667857
0.0009308900643
0.00104568838
0.000988725703
0.001015911667
0.001081608003
0.001088767983
0.001113182936
0.001172051965
0.001260310481
0.001324162734
0.001427633536
0.001478188227
0.001377857497
0.001463741404
-0.04110439887
)


100
(
-2.662927748
-0.2016967495
-0.0861373072
-0.03372953867
-0.009566843656
0.007289656177
0.01575878206
0.01757245173
0.02042777704
0.01959706137
0.01930449449
0.01864600746
0.01683293618
0.01662402295
0.01567705262
0.01418502514
0.01366318257
0.01316531355
0.01191059162
0.01095194833
0.01065878358
0.009945087829
0.009137345345
0.008535323224
0.008275508091
0.007656963419
0.007132306242
0.006738720864
0.006553062171
0.006078065607
0.005651539885
0.005277097992
0.005100931789
0.004835290426
0.004597380783
0.004392309644
0.004259097276
0.004097908842
0.003866831208
0.003649014654
0.003462186086
0.003333836877
0.003212409703
0.003105270889
0.003011457698
0.002926778468
0.002862305601
0.002810288683
0.002754103404
0.002677086119
0.002632238803
0.002557062172
0.002466323644
0.002358046418
0.00230411259
0.002260694279
0.002184647966
0.002061432467
0.001994470144
0.001899337368
0.001685604318
0.001709421706
0.001898270963
0.001787065083
0.001564359299
0.001551898506
0.001630200795
0.001448609881
0.001356998048
0.001443823236
0.001505324148
0.001445578314
0.001507877296
0.001595720437
0.001374926801
0.001239078573
0.001640595388
0.001644518321
0.001471604073
0.001799684198
0.001610464877
0.001683489788
0.00176867292
0.00157278858
0.001930916403
0.001792380191
0.001874694989
0.002078565326
0.001969652689
0.002135631539
0.002198299295
0.002322832304
0.00225164043
0.002432528
0.002513170401
0.002610360793
0.002711948183
0.002220027374
-0.007101439162
-0.01291799974
)


100
(
-1.752112819
-0.2597764168
-0.1075974692
-0.0470242087
-0.01226139194
0.004688885539
0.01292317091
0.01750154839
0.01907709945
0.02040380006
0.01875061292
0.01891224173
0.017622783
0.0162177521
0.01588879815
0.01480040442
0.01348117035
0.01291730955
0.01243830538
0.01134407198
0.01039997522
0.01000690164
0.009467871607
0.008718956556
0.008055995367
0.007760517774
0.007332893338
0.006836836822
0.006403464457
0.006181989308
0.005920629338
0.005525052833
0.005159692744
0.004894444655
0.004779368389
0.004597184815
0.00442232315
0.004251363253
0.00423559762
0.004145714926
0.003971767529
0.003791293652
0.003666968442
0.003660788958
0.003570847601
0.003427823139
0.003250793051
0.003259721773
0.003258934122
0.003153873996
0.002991782074
0.002979566962
0.002990405145
0.002841364604
0.002642457466
0.002573477137
0.002604176728
0.002450017877
0.002257305116
0.002159533818
0.00206850398
0.001815214335
0.001778519447
0.001919362719
0.001979611398
0.001921557252
0.00198799286
0.002096712399
0.002047936686
0.002031668675
0.002084781595
0.002161008241
0.00217297408
0.002334719951
0.002452778544
0.002129113638
0.001954667538
0.002350068607
0.002260083703
0.002169697639
0.002472580348
0.002267364955
0.002424530415
0.002334950652
0.002380798296
0.002439443089
0.002353414592
0.002451277944
0.002443609519
0.002252931995
0.002195594156
0.002212283836
0.002020903985
0.001800439023
0.001714424999
0.001528379981
0.001983119072
1.009703566e-05
-0.041127119
-0.06472351763
)


100
(
-1.293572632
-0.3288429879
-0.1337107289
-0.05126340831
-0.01631430798
0.0002326409512
0.009520790887
0.0160450441
0.01746216593
0.01927129522
0.01915371844
0.01810314719
0.01807204415
0.01650267958
0.01538528754
0.0150132996
0.01396083588
0.01277420269
0.01221141963
0.01186104137
0.0108595006
0.009971054426
0.009507642964
0.009148320815
0.008453068139
0.007824339231
0.007435014218
0.007184569458
0.006758687824
0.006379247561
0.006104347769
0.006025506702
0.005737150016
0.00540723783
0.005083873257
0.005044762267
0.004971142132
0.004803330727
0.004498580371
0.004493100043
0.004527594306
0.004440209856
0.004139533479
0.003951300974
0.003944255946
0.00395855006
0.003656132305
0.003360846868
0.003354115153
0.003409187628
0.003206442261
0.002980669659
0.002933022542
0.002959068088
0.002818282885
0.002627589116
0.002583058371
0.002649857918
0.002629702743
0.002565820023
0.002600043383
0.002662372554
0.002560943092
0.002539127107
0.002604590809
0.002677589469
0.002705670333
0.002780915372
0.002835539409
0.002825347052
0.002749178985
0.002688833999
0.002578897207
0.002496958055
0.002655783472
0.002772272211
0.002358334182
0.002431157935
0.002587875784
0.00219339629
0.002138339773
0.002133519106
0.001934358266
0.00187987069
0.001697199306
0.001423505618
0.001180919771
0.0009304352481
0.0005928037889
0.0001860812177
-0.0003950216548
-0.0008086834621
-0.001195678131
-0.001898169227
-0.002388944916
-0.002742615255
-0.0005327640736
-0.007549704114
-0.06447607606
-0.0644793361
)


100
(
-1.090254096
-0.2987224728
-0.1327341718
-0.05528314601
-0.02425733718
-0.0051788811
0.006290979763
0.01251175697
0.01639413061
0.01737033745
0.01902433688
0.01798797758
0.01736699744
0.01703885061
0.01559334153
0.01466925026
0.01431812761
0.01335018001
0.01226652373
0.0116704067
0.01136138854
0.01052504352
0.009692376313
0.009137725932
0.008905998801
0.008309841432
0.007712234795
0.007384789285
0.007265297795
0.006960830764
0.006565408018
0.006232163803
0.006201328066
0.006113311529
0.005719037566
0.005313300818
0.005267358732
0.005310643347
0.005003092563
0.004595624638
0.004532383691
0.004557418685
0.00445228613
0.004109421225
0.003919175249
0.003982314461
0.003978627729
0.003656100394
0.00336779268
0.003400487055
0.003421925654
0.003241842909
0.003062129321
0.00307380717
0.003179352023
0.003160898922
0.003097829121
0.003150351838
0.003241114302
0.003300377715
0.003308869968
0.003348810903
0.003373608054
0.003302954925
0.003223383159
0.003134929631
0.003027394812
0.002923482523
0.00279983474
0.002704572893
0.002588657267
0.002490580789
0.002395579953
0.002174466038
0.00193524772
0.001941447644
0.001718502522
0.001238320444
0.001010315586
0.0007851580014
0.0004089973392
-8.076773819e-05
-0.0005295981547
-0.0009640200822
-0.001455998821
-0.001994277157
-0.002685066705
-0.003146743917
-0.003741958337
-0.00416871798
-0.004683538752
-0.005374708162
-0.005712618587
-0.006297517823
-0.006684029363
-0.006256114017
-0.002544054952
-0.0117238461
-0.06134588368
0.00476064625
)


100
(
-0.9527699797
-0.2768656969
-0.1321003594
-0.06660044048
-0.03566763686
-0.01083766641
0.001582718749
0.008715473675
0.01396053571
0.0160941412
0.01729635366
0.01803887927
0.01694129275
0.01659988042
0.01608795129
0.0148032151
0.01397452732
0.01362503313
0.01275150586
0.01172592565
0.01104489349
0.01075595715
0.0100849098
0.00931121994
0.008697766168
0.008558306647
0.008203233061
0.00766702584
0.007395004326
0.007286006388
0.007140633985
0.006563103794
0.006248642222
0.006211077358
0.006217077622
0.005695845604
0.005298580203
0.005274874975
0.005417923436
0.005011165219
0.004587238811
0.004508514897
0.004580752041
0.00440621622
0.004068678976
0.003921249894
0.004005788166
0.00399152406
0.003710391302
0.003535919428
0.003612509828
0.003712450474
0.003648792596
0.003569793199
0.003593513972
0.003658263267
0.003701627522
0.003711536691
0.003652022639
0.00357714896
0.003470275907
0.003358300303
0.003215551069
0.003018338676
0.002731332944
0.002441853419
0.002224903833
0.002008958016
0.00176357026
0.001553676868
0.00129040541
0.0009745473895
0.0006764895912
0.0002689248034
-0.000364312427
-0.000850600894
-0.001297613814
-0.001908629743
-0.002560396799
-0.003151530817
-0.003633944552
-0.004123583186
-0.004847528398
-0.005335956485
-0.005805517054
-0.006013183998
-0.006213912472
-0.006295392171
-0.006284697973
-0.00640895999
-0.006320039256
-0.006124112097
-0.006021301204
-0.005882738201
-0.005699072879
-0.004670381464
-0.001080260855
-0.007939265793
0.01184895237
0.2214781139
)


100
(
-0.7745478561
-0.2744183795
-0.1451539052
-0.08535285386
-0.04272349759
-0.01791742832
-0.004192482054
0.005102925805
0.01037047027
0.01433628778
0.01537552518
0.01666930892
0.01682228908
0.01579447053
0.01557037323
0.01495242927
0.01376003146
0.01299580399
0.01260422564
0.01178433714
0.0108239829
0.01012204129
0.009947391148
0.009519621931
0.008888502415
0.008386926166
0.008260657394
0.007964867746
0.007459200661
0.007243794077
0.007206081803
0.007089480872
0.006434635558
0.006147403334
0.006181843211
0.006116710366
0.005579550777
0.00521540245
0.005325144204
0.005337088182
0.004946532773
0.00454445414
0.004508395516
0.004502498786
0.004327002284
0.00404422507
0.003995456063
0.004077663848
0.004112077686
0.003929662718
0.003866151823
0.003890226446
0.003934411784
0.003877582884
0.003733885849
0.003581180973
0.003421127651
0.003199712954
0.00298069579
0.002770689041
0.002496805355
0.002069480537
0.00157031696
0.001130257327
0.0007181546046
0.0002077277767
-0.0002292768537
-0.0006027734664
-0.001147345196
-0.001638574668
-0.00207861406
-0.002737375578
-0.003504015869
-0.004079363082
-0.004725448877
-0.005315755409
-0.005669021042
-0.006167093334
-0.006385839571
-0.006569947941
-0.006856418129
-0.006966262199
-0.006883112741
-0.006594005039
-0.006303778369
-0.005962918683
-0.005487416836
-0.004939847598
-0.004387363353
-0.003954350487
-0.003507373595
-0.003072190463
-0.002669737922
-0.002331392269
-0.002067584499
-0.001395771871
0.0001777102935
-0.01133932219
0.143579473
0.5039653358
)


100
(
-0.638600111
-0.321007194
-0.1737446924
-0.09825644152
-0.04939731893
-0.02769528583
-0.0100987462
1.358320761e-06
0.006533144094
0.01095917442
0.01367158391
0.01435511253
0.01546280949
0.01523601885
0.01421567008
0.01398687824
0.01331519256
0.01223955097
0.01138496456
0.01112377423
0.01057902129
0.009872072522
0.009305672928
0.009291286467
0.009093790911
0.008542502588
0.008148653537
0.007945213665
0.007659953321
0.007193777595
0.007017419577
0.007193067735
0.006852480092
0.006231613001
0.005978376736
0.006131047461
0.005917415624
0.005394938377
0.005094894662
0.005186118799
0.005117412335
0.004753547623
0.004399929414
0.004317333547
0.004295764673
0.004153381244
0.003990564637
0.003929499966
0.003902546415
0.003845111822
0.00363202581
0.003400458393
0.003218507744
0.002992835061
0.002656976538
0.00230413141
0.001942467906
0.001499541548
0.0008434574456
7.934656958e-05
-0.0005915622267
-0.001169688993
-0.001897814068
-0.002562934529
-0.003100550311
-0.003780289257
-0.004498951
-0.004950106786
-0.005469220231
-0.00633931591
-0.007090119369
-0.007571941473
-0.007971907285
-0.007919070369
-0.007829037564
-0.007819346374
-0.007423158673
-0.007116398932
-0.006833379786
-0.006397877981
-0.00576372563
-0.005082023552
-0.004475995487
-0.003892054266
-0.003291118736
-0.002721152531
-0.002215533693
-0.001796243175
-0.001478132238
-0.001199722597
-0.0009891132903
-0.0008516648294
-0.0007550260139
-0.000686531225
-0.0006421086933
-0.0004204012647
4.891371122e-05
-0.00766573374
0.2351997016
0.5737877595
)


100
(
-0.5627954801
-0.3550022154
-0.1894102988
-0.102765487
-0.0607817128
-0.03634159246
-0.01681596743
-0.005724985182
0.002391339438
0.007055865312
0.01057388639
0.01224108987
0.01277889856
0.0134397287
0.01302961218
0.01201935392
0.01183552615
0.01120904782
0.01046193825
0.009947243206
0.009949649406
0.009671673243
0.009163130972
0.008823001183
0.008749954614
0.008624604903
0.008208450279
0.007887337933
0.007616108685
0.007294907267
0.006883965874
0.006844362177
0.006958631466
0.006549438874
0.005948224324
0.005805384877
0.005801126158
0.005539636972
0.00502818807
0.004785097765
0.004691783982
0.004545829364
0.004206890539
0.003930502096
0.003715216264
0.003579313995
0.003368086487
0.003098959137
0.002860731342
0.002620931695
0.0022209332
0.001732490834
0.00119996514
0.0007170491819
0.0001372003352
-0.000737344928
-0.00185321568
-0.0028565349
-0.003731335393
-0.004641892291
-0.005415360216
-0.005972528918
-0.006699063417
-0.007435898601
-0.00782931192
-0.008156784166
-0.008787863448
-0.009337602756
-0.00959015132
-0.009669779148
-0.009361655026
-0.008660151087
-0.008205358699
-0.007454971745
-0.006577984871
-0.005839088223
-0.005130092661
-0.00440537424
-0.003669421998
-0.003004059512
-0.002441083623
-0.001951525882
-0.001544990748
-0.001226518655
-0.0009849938731
-0.0008102817317
-0.0006817182339
-0.0005898773421
-0.000515681425
-0.0004633867872
-0.0004274054097
-0.000402739726
-0.0003866984784
-0.0003774355704
-0.0003483601857
-0.0002081182644
-7.67867576e-05
-0.002860627487
0.2464528111
0.4761046193
)


100
(
-0.4717866009
-0.3380893787
-0.1891925131
-0.109503544
-0.0765404107
-0.04351348069
-0.02572196482
-0.01158650385
-0.003229595433
0.002945001686
0.006430814506
0.00894710182
0.009888736635
0.01024787313
0.0106981935
0.01041913964
0.009792867201
0.009866766322
0.009687580539
0.00930755506
0.009015050207
0.009143876783
0.009051176838
0.008639174693
0.008437405457
0.008269964452
0.008159252396
0.007894124011
0.007613022598
0.007383664208
0.006920998481
0.006502275703
0.006681890368
0.00653481771
0.006059107104
0.005445525907
0.005237444569
0.005017577363
0.004664574914
0.004211526406
0.003837521256
0.003564486446
0.003260517116
0.0028442289
0.002459261325
0.002128464774
0.001703936479
0.001142032831
0.0004996217324
-8.003290797e-05
-0.000684816642
-0.001499427579
-0.002655928934
-0.003973542493
-0.005229335223
-0.006271240054
-0.007412837132
-0.008405153369
-0.009188415969
-0.01000810285
-0.01063049684
-0.01067477629
-0.01058251546
-0.01078361087
-0.01099528895
-0.01081928856
-0.01040201846
-0.009728923442
-0.008719301598
-0.007994597375
-0.00698804759
-0.005835217533
-0.004823829733
-0.00395011197
-0.003166634007
-0.002510545583
-0.001957633338
-0.001532998638
-0.00120470182
-0.0009541361509
-0.0007707714768
-0.0006393747122
-0.0005458718995
-0.0004817390881
-0.0004331179802
-0.0003933330851
-0.0003600879046
-0.000327876294
-0.0003046316476
-0.0002832906434
-0.0002682496878
-0.0002594909859
-0.0002514497211
-0.0002487622135
-0.0002129137015
-9.862615594e-05
-0.0002756687934
-0.001814657138
0.2069120528
0.3764275704
)


100
(
-0.3542885358
-0.318690711
-0.1882430281
-0.1288103511
-0.08676739437
-0.05265664127
-0.03438546294
-0.01877618519
-0.009298423938
-0.002492888131
0.001787778678
0.004408368165
0.006193938961
0.006908079522
0.007444093136
0.008116101993
0.008305224649
0.008245701523
0.008613017295
0.008698652054
0.008549036342
0.008496466302
0.008545554099
0.008468395859
0.008214996809
0.008088302102
0.00784067969
0.007692968254
0.007533594651
0.007272973309
0.0070012288
0.006393565544
0.006024522096
0.00588880956
0.00550946393
0.004897786403
0.00430244781
0.003752730841
0.003363569739
0.002851514185
0.002329550208
0.001869626083
0.001378440362
0.0007947010313
-1.539607351e-05
-0.0007677980548
-0.001407894846
-0.00216960837
-0.003351570576
-0.004749055266
-0.006239479522
-0.007521513719
-0.008859778252
-0.01018843254
-0.01140746
-0.01245459647
-0.01340045563
-0.0136454274
-0.0133921582
-0.01298821341
-0.01273729792
-0.01252387828
-0.01185086898
-0.01091341063
-0.00976694041
-0.008427153873
-0.007382604843
-0.006232952155
-0.005001968434
-0.003966107318
-0.003098472511
-0.002367615077
-0.001834907509
-0.001411794632
-0.001100989229
-0.0008790890406
-0.000713756165
-0.0005931774107
-0.0005099562958
-0.0004489771775
-0.0004023962806
-0.0003652802785
-0.0003309800518
-0.000300433373
-0.0002775117772
-0.000254280555
-0.000238781029
-0.0002206290609
-0.0002055540077
-0.0001929395833
-0.0001830413117
-0.0001790002718
-0.0001760950977
-0.0001738000048
-0.0001368909744
-2.9154774e-05
-0.0004625399552
-0.001313441906
0.1729923676
0.3045434362
)


100
(
-0.3072037769
-0.3157196704
-0.2081371508
-0.150848749
-0.09377452598
-0.06614141014
-0.04234950835
-0.02838854958
-0.01606027795
-0.009170508186
-0.003815363873
-0.0008225895988
0.001448143824
0.00319261567
0.00427141673
0.005294638879
0.00628540398
0.006889755692
0.007279411986
0.007729386332
0.007995850914
0.00795882297
0.008031698979
0.007985647366
0.007905845518
0.007761136426
0.007629941048
0.007396430628
0.007018429025
0.006761635885
0.006452626675
0.006035271015
0.005278777466
0.004558102796
0.003991938659
0.003306654443
0.002530147986
0.001818735486
0.001175651376
0.0005379777279
-0.0002443529521
-0.001083142951
-0.001832867507
-0.002617740832
-0.003757353857
-0.005227786759
-0.006852021534
-0.008185886949
-0.009489821172
-0.01121409962
-0.0130075569
-0.01463281361
-0.01608348362
-0.01675048939
-0.01664154913
-0.01602882238
-0.01533102291
-0.01512044268
-0.0142817834
-0.01289019587
-0.01148085132
-0.009892274189
-0.008358474421
-0.00708530602
-0.005786784049
-0.004449615971
-0.003359138256
-0.002539164868
-0.001903774947
-0.001479222849
-0.001139656565
-0.0009012312871
-0.0007418682338
-0.0006289982592
-0.0005418493018
-0.0004726647643
-0.0004182647941
-0.0003738978576
-0.0003359656304
-0.0003059191628
-0.0002774778537
-0.0002520632466
-0.0002304878206
-0.0002105922818
-0.0001965519309
-0.000182542949
-0.0001717573457
-0.0001596560677
-0.000150352035
-0.0001430711841
-0.0001363691231
-0.0001335613343
-0.0001318295042
-0.0001287365572
-9.37549487e-05
4.562604661e-06
-0.0004648489697
-0.001052449149
0.1452097352
0.2554527467
)


100
(
-0.3159860886
-0.3393069044
-0.2330462499
-0.1555807405
-0.1052262579
-0.0787468685
-0.05185111809
-0.03712363189
-0.02490457813
-0.01650573006
-0.01122227365
-0.006619917691
-0.003820735778
-0.001366891859
0.0008306265895
0.002495290291
0.003901748126
0.005053550638
0.005877432127
0.006517616691
0.006943717555
0.007232057787
0.007321593199
0.0074565812
0.007274642301
0.007166413715
0.007017576857
0.006758559793
0.006376213394
0.005688891795
0.005031289602
0.004353027785
0.003511068748
0.002618002049
0.001617588765
0.0006479124807
-0.0002210985398
-0.001282402364
-0.002131591146
-0.002930391311
-0.003935045627
-0.005341250714
-0.006982839996
-0.008375442871
-0.009687024466
-0.011325804
-0.01341278505
-0.01564193943
-0.01770474543
-0.01906245526
-0.01985142274
-0.01971024951
-0.0190578125
-0.01874587756
-0.01821580619
-0.01645324064
-0.01434348865
-0.01231742449
-0.01040806547
-0.008785415093
-0.007189592475
-0.005733760886
-0.004258377544
-0.003121030406
-0.00238332139
-0.001760341886
-0.00135558542
-0.001051673028
-0.0008370931904
-0.0006960443737
-0.0005964662407
-0.0005196093993
-0.0004590104311
-0.0004104895282
-0.0003681184723
-0.0003316207697
-0.0003004993925
-0.000273512166
-0.0002466042905
-0.0002216927779
-0.000201856044
-0.0001867408715
-0.0001729361129
-0.0001594922684
-0.0001472664009
-0.0001374461846
-0.0001299549855
-0.0001225648911
-0.0001172810518
-0.0001124233372
-0.0001077296252
-0.0001082276725
-0.0001041845279
-9.904790316e-05
-6.787669793e-05
-3.698615534e-06
-0.000398444252
-0.0008205393336
0.1284901652
0.2236770084
)


100
(
-0.3211147423
-0.3469105433
-0.2350767362
-0.1586768813
-0.1228393998
-0.08699843753
-0.06473194866
-0.04556414308
-0.03536259984
-0.02508032446
-0.01888525506
-0.01424103117
-0.009506921188
-0.006226534315
-0.003414960298
-0.0007974514687
0.001313048679
0.00286695578
0.004020810236
0.004922480405
0.00568968996
0.006046655963
0.006310675354
0.006424504698
0.006509978142
0.006290926557
0.005849887801
0.005390022177
0.004784053743
0.003949100673
0.002863690448
0.001550884448
0.0004541953774
-0.0007721543316
-0.001842717953
-0.002829008272
-0.003885755361
-0.005150605935
-0.006846610284
-0.008435885104
-0.009678098835
-0.01106651307
-0.01308732388
-0.01541931121
-0.01779242836
-0.01954934635
-0.0211634578
-0.02247730032
-0.02294173729
-0.0229750894
-0.0226396237
-0.02126484841
-0.01897300414
-0.01645996553
-0.01412219507
-0.01207556104
-0.00984160156
-0.007855613889
-0.006061774061
-0.004419414182
-0.003295410934
-0.002489287074
-0.001853904998
-0.001406111262
-0.001090647559
-0.0008716053715
-0.0007261960756
-0.0006249975754
-0.0005439514891
-0.0004785852088
-0.0004267789846
-0.000381371215
-0.0003385408103
-0.0003017527921
-0.0002721115002
-0.0002467708427
-0.0002242690435
-0.0002058234511
-0.000188612724
-0.0001722541654
-0.0001584719943
-0.0001466790425
-0.0001343561064
-0.00012454201
-0.000117203556
-0.000109720907
-0.0001022873843
-9.708487185e-05
-9.376126565e-05
-9.122239808e-05
-8.675845494e-05
-8.680670486e-05
-8.612836932e-05
-8.004968454e-05
-5.370308717e-05
-2.016296562e-05
-0.0003087029026
-0.0006262747948
0.1130464535
0.2075501193
)


100
(
-0.2620059792
-0.3307826604
-0.230184653
-0.1707006424
-0.1360430016
-0.09611408107
-0.07625836738
-0.05631185976
-0.04442042133
-0.0356361658
-0.02697611183
-0.0214757933
-0.01644615988
-0.01141019261
-0.007726557195
-0.004837907806
-0.002077859194
0.000268466087
0.001824260685
0.002892801771
0.003787746968
0.00461346185
0.004845379358
0.004995628194
0.004982714251
0.004785412617
0.00427141374
0.003210863347
0.002144245694
0.0008240802604
-0.0005755550688
-0.001939594842
-0.00331361064
-0.004646326405
-0.006205282761
-0.007922266537
-0.009238321046
-0.01055845701
-0.01235667582
-0.0147757066
-0.01738855251
-0.01933387099
-0.02090905686
-0.0228733907
-0.02476420154
-0.02625439934
-0.02712197679
-0.02665016114
-0.02506889835
-0.02249425737
-0.01959383345
-0.01735236307
-0.01465347812
-0.01177531039
-0.009170395853
-0.007003634292
-0.005114968223
-0.003794034548
-0.002796393568
-0.002084115555
-0.00155268025
-0.001201706417
-0.0009858410283
-0.0008188087468
-0.000697803943
-0.0005998032782
-0.0005225981644
-0.0004616462814
-0.0004102986418
-0.0003641068399
-0.0003224114815
-0.0002863375723
-0.0002585525141
-0.00023408411
-0.0002128086602
-0.0001946800832
-0.0001777534094
-0.0001626142775
-0.0001493702821
-0.0001373512169
-0.0001268596222
-0.0001182721597
-0.0001101780637
-0.0001028394268
-9.602902568e-05
-8.87850824e-05
-8.332355773e-05
-7.977330046e-05
-7.700357186e-05
-7.496505087e-05
-7.284889318e-05
-6.5302772e-05
-7.177714252e-05
-6.632703421e-05
-4.656891714e-05
-2.800825544e-05
-0.0002246505144
-0.0004743509354
0.09935632644
0.1882485799
)


100
(
-0.1742343254
-0.3097367462
-0.2297082557
-0.1876463876
-0.1406276097
-0.1106117995
-0.08491525071
-0.06950798036
-0.05378852437
-0.04534485389
-0.03667011805
-0.02866166513
-0.02308840186
-0.01767941705
-0.01244265374
-0.008710661429
-0.006001725468
-0.003332968116
-0.0008952626962
0.0005765093976
0.001504729718
0.002279209227
0.003003611041
0.003150856717
0.002831140591
0.002289441849
0.001449152582
0.0002590753589
-0.0013328866
-0.003129700522
-0.004856213383
-0.006749407273
-0.008184392108
-0.009541795031
-0.01121699672
-0.01343317394
-0.01621239577
-0.01838548646
-0.02009218373
-0.02205271145
-0.02454877965
-0.02715689641
-0.02945654571
-0.03043210391
-0.03064343971
-0.02943274376
-0.02689495663
-0.02478447383
-0.0222155584
-0.01868671952
-0.01494390613
-0.01155757603
-0.008658457054
-0.006480286524
-0.004745145655
-0.003503025284
-0.002517008476
-0.001813640039
-0.001414603789
-0.001143231218
-0.0009425262702
-0.0007915320176
-0.0006745756683
-0.0005831484593
-0.0005103193049
-0.0004519567975
-0.0004012018174
-0.0003570048624
-0.0003202674092
-0.0002867815495
-0.0002554614869
-0.000228662742
-0.0002068665777
-0.0001885336459
-0.0001710541493
-0.0001548440397
-0.000142487593
-0.0001321515881
-0.0001226955097
-0.0001140603984
-0.0001050270845
-9.722652829e-05
-9.163720657e-05
-8.632373643e-05
-8.091303406e-05
-7.534460574e-05
-7.088921545e-05
-6.756977667e-05
-6.46293509e-05
-6.283329661e-05
-6.274695346e-05
-5.832492548e-05
-5.913280088e-05
-5.47308928e-05
-3.352420008e-05
-3.279486672e-05
-0.0001697382222
-0.0003784262171
0.08854622281
0.1707883884
)


100
(
-0.1665949609
-0.3055712993
-0.2412598568
-0.1932834074
-0.1459348406
-0.1240858749
-0.09472815577
-0.07966813175
-0.06609962129
-0.05464450547
-0.04688649816
-0.03752062254
-0.02949690769
-0.02391213061
-0.01848046833
-0.01325288833
-0.009643028456
-0.007221044831
-0.004782054089
-0.002358761193
-0.001073900816
-0.0003540474649
5.805795849e-05
0.0003842267521
8.029272851e-05
-0.00105866003
-0.002473748894
-0.004325624397
-0.006096012572
-0.007801607328
-0.009718736238
-0.01166307778
-0.01418754639
-0.01637107528
-0.01815558245
-0.02011161069
-0.02290159991
-0.02628147484
-0.02952516854
-0.03121398349
-0.03251749442
-0.03367738595
-0.03384089829
-0.03346890978
-0.03190231874
-0.0288645597
-0.02448434213
-0.01979299668
-0.01554839509
-0.01229973273
-0.009058814069
-0.006574164306
-0.004702758723
-0.003273052598
-0.002319315714
-0.001763280602
-0.001389540839
-0.001118898243
-0.0009223583346
-0.0007792567243
-0.0006768488654
-0.0005879764027
-0.0005134678723
-0.0004504544835
-0.0003983671069
-0.0003562196831
-0.0003190404696
-0.0002848259089
-0.0002533803697
-0.0002264177157
-0.0002047915817
-0.0001857592912
-0.0001692428251
-0.0001548094624
-0.0001412375592
-0.0001286642184
-0.0001184103549
-0.0001100169283
-0.0001018935272
-9.47619634e-05
-8.837128538e-05
-8.240770922e-05
-7.80053103e-05
-7.285073073e-05
-6.84718387e-05
-6.461441046e-05
-6.094130068e-05
-5.796634529e-05
-5.565391669e-05
-5.394797397e-05
-5.292805666e-05
-5.521305073e-05
-5.154457875e-05
-4.649152863e-05
-2.767649712e-05
-5.853969496e-05
-0.0001302640792
-0.0003091687454
0.08040512252
0.1642383961
)


100
(
-0.1941780492
-0.3084930251
-0.246512757
-0.19095211
-0.1590968787
-0.1305008669
-0.1086375098
-0.08891831698
-0.07890883135
-0.06588063524
-0.05608262343
-0.04789863803
-0.03766293464
-0.02983632207
-0.02460939511
-0.0194299144
-0.01431713102
-0.01089436765
-0.00874048392
-0.006762275633
-0.004639362277
-0.00342480639
-0.003194033233
-0.003518522322
-0.004184649569
-0.005397377259
-0.007250820275
-0.009414170071
-0.01164961237
-0.01397634534
-0.0158435638
-0.01779756533
-0.02021037401
-0.02354150914
-0.02716209216
-0.0293167091
-0.03126315229
-0.03374843623
-0.03632167372
-0.03847237015
-0.03963096923
-0.03854816038
-0.03601307141
-0.03169116862
-0.02712651552
-0.02309593717
-0.01861906592
-0.01398898506
-0.01005422719
-0.006960160658
-0.00475524446
-0.003354410352
-0.002428890522
-0.001842215359
-0.001401266764
-0.001107781787
-0.0009461306572
-0.0008175415848
-0.0007025045233
-0.0006055386071
-0.0005246828928
-0.0004581091531
-0.0004023751845
-0.0003559025274
-0.00031744088
-0.0002840997979
-0.000255973187
-0.0002299615438
-0.0002064200002
-0.0001862379887
-0.0001697298213
-0.0001553461457
-0.0001414448024
-0.0001283708352
-0.0001174649803
-0.0001082788296
-0.0001000506964
-9.323369718e-05
-8.700228914e-05
-8.112773692e-05
-7.590618678e-05
-7.096072165e-05
-6.652421112e-05
-6.236383034e-05
-5.876273872e-05
-5.583129529e-05
-5.313560212e-05
-5.055567428e-05
-4.879191609e-05
-4.749408167e-05
-4.677177553e-05
-4.722832232e-05
-4.588761621e-05
-4.072447692e-05
-1.944467923e-05
-9.749038239e-05
-9.352454077e-05
-0.000252614967