/*--------------------------------*- C++ -*----------------------------------*\
| =========                 |                                                 |
| \\      /  F ield         | OpenFOAM: The Open Source CFD Toolbox           |
|  \\    /   O peration     | Version:  2.3.1                                 |
|   \\  /    A nd           | Web:      www.OpenFOAM.org                      |
|    \\/     M anipulation  |                                                 |
\*---------------------------------------------------------------------------*/
FoamFile
{
    version     2.0;
    format      ascii;
    class       dictionary;
    location    "constant";
    object      PM4;
}
// * * * * * * * * * * * * * * * * * * * * * * * * * * * * * * * * * * * * * //

PM4_table
100
(
100{0}
100{0}
100{0}
100{0}
100{0}
100{0}
100{0}
100{0}
100{0}
100{0}
100{0}
100{0}
100{0}
100{0}
100{0}
100{0}
100{0}
100{0}
100{0}
100{0}
100{0}
100{0}
100{0}
100{0}
100{0}
100{0}
100{0}
100{0}
100{0}
100{0}
100{0}
100{0}
100{0}
100{0}
100{0}
100{0}
100{0}
100{0}
100{0}
100{0}
100{0}
100{0}
100{0}
100{0}
100{0}
100{0}
100{0}
100{0}
100{0}
100{0}
100{0}
100{0}
100{0}
100{0}
100{0}
100{0}
100{0}
100{0}
100{0}
100{0}
100{0}
100{0}
100{0}
100{0}
100{0}
100{0}
100{0}
100{0}
100{0}
100{0}
100{0}
100{0}
100{0}
100{0}
100{0}
100{0}
100{0}
100{0}
100{0}
100{0}
100{0}
100{0}
100{0}
100{0}
100{0}
100{0}
100{0}
100{0}
100{0}
100{0}
100{0}
100{0}
100{0}
100{0}
100{0}
100{0}
100{0}
100{0}

100
(
0
0
0
3.456393583e-07
0
0
-3.931480347e-08
0
0
0
0
0
0
0
0
0
0
0
0
0
0
0
0
0
0
0
0
0
0
0
0
0
0
0
0
0
0
0
0
0
0
0
0
0
0
0
0
0
0
0
0
0
0
0
0
0
0
0
0
0
0
0
0
0
0
0
0
0
0
0
0
0
0
0
0
0
0
0
0
0
0
0
0
0
0
0
0
0
0
0
0
0
0
0
0
0
0
0
0
0
)


100
(
0
0
9.598036616e-08
4.124828695e-07
-9.362244457e-08
-1.029278926e-08
-4.368508333e-08
9.122753746e-09
0
0
0
0
0
0
0
0
0
0
0
0
0
0
0
0
0
0
0
0
0
0
0
0
0
0
0
0
0
0
0
0
0
0
0
0
0
0
0
0
0
0
0
0
0
0
0
0
0
0
0
0
0
0
0
0
0
0
0
0
0
0
0
0
0
0
0
0
0
0
0
0
0
0
0
0
0
0
0
0
0
0
0
0
0
0
0
0
0
0
0
0
)

)
;