/*--------------------------------*- C++ -*----------------------------------*\
| =========                 |                                                 |
| \\      /  F ield         | OpenFOAM: The Open Source CFD Toolbox           |
|  \\    /   O peration     | Version:  2.3.1                                 |
|   \\  /    A nd           | Web:      www.OpenFOAM.org                      |
|    \\/     M anipulation  |                                                 |
\*---------------------------------------------------------------------------*/
FoamFile
{
    version     2.0;
    format      ascii;
    class       dictionary;
    location    "constant";
    object      PM9;
}
// * * * * * * * * * * * * * * * * * * * * * * * * * * * * * * * * * * * * * //

PM9_table
100
(

100
(
-0.7345801735
-0.9251710327
-0.3082514499
-0.1662055353
-0.130764764
-0.1152749154
-0.07100225366
-0.07660927549
-0.05643622467
-0.05222679147
-0.05208063489
-0.03840265921
-0.03976862615
-0.03620640886
-0.0279453986
-0.02815625084
-0.02807977139
-0.0194796309
-0.01934272174
-0.0197315161
-0.01526788317
-0.01330191389
-0.01321251569
-0.0125462284
-0.009803609388
-0.00965820393
-0.009701724983
-0.008814949738
-0.006656598249
-0.00639563332
-0.006328706303
-0.005816077354
-0.004965771298
-0.004871160499
-0.004835657446
-0.004511091167
-0.003509998271
-0.00299707805
-0.002878957972
-0.002695777342
-0.002257693585
-0.001924904318
-0.001826455613
-0.001719945658
-0.001539842853
-0.001349812996
-0.001279857272
-0.001218771566
-0.0009876649007
-0.0007726475802
-0.0006348982159
-0.0005526756747
-0.0004559849407
-0.0003607044875
-0.0002827423663
-0.0002303169153
-0.0001826404102
-0.0001213384031
-5.660198104e-05
4.597702895e-06
5.077304165e-05
8.571585679e-05
0.0001138204564
0.0001323787436
0.0001399360842
0.0001489330596
0.0001656483256
0.0001786489815
0.0001758675084
0.000176726061
0.0001828942518
0.0001873229752
0.0001842322375
0.000195965545
0.000214202634
0.0002119180083
0.0001946681657
0.0001920997088
0.000179173856
0.0001578670898
0.0001572306052
0.0001410010649
0.0001317459472
0.0001332512794
0.0001091723557
0.0001103198
0.0001040013304
9.213976333e-05
9.702622927e-05
8.364398809e-05
8.649374046e-05
8.249268917e-05
9.280923752e-05
9.081677945e-05
0.0001041779991
0.0001003966933
0.0001094643351
0.0001154702952
6.944542067e-05
3.571046457e-05
)


100
(
-1.45869032
-0.5880595464
-0.240383105
-0.1280626664
-0.1228208011
-0.08759811353
-0.07193534672
-0.05807519117
-0.0506746063
-0.03842702815
-0.0388804819
-0.02988379216
-0.02834428507
-0.02682985114
-0.02112009777
-0.01928878133
-0.01863657127
-0.01516167029
-0.0125857
-0.01224245504
-0.01059850454
-0.008882516008
-0.007858520293
-0.007340584472
-0.006470123322
-0.005668114862
-0.005251327708
-0.004778305511
-0.004087290712
-0.003475839603
-0.003043484031
-0.002791789146
-0.002547205298
-0.002296967261
-0.002061750215
-0.001862675512
-0.001545213403
-0.00127314252
-0.001009195919
-0.0008094945909
-0.000655513891
-0.0005235601227
-0.0003913218772
-0.0002659724891
-0.0002015499268
-0.0001449917577
-8.125484579e-05
-8.348326283e-06
6.031357118e-05
0.0001164140316
0.0001716040344
0.0002265856348
0.0002641590972
0.0002929908995
0.0003168052299
0.0003365065996
0.000346346845
0.0003666675105
0.0003899672385
0.0004183835803
0.0004366480857
0.0004609873941
0.0004592179331
0.0004508029768
0.0004468591982
0.0004397738584
0.0004181026123
0.0003994313666
0.0003990743818
0.0003800757646
0.0003584793231
0.0003435849377
0.0003357109553
0.0003179348813
0.0003168885992
0.0003391195611
0.0003457225856
0.0003278565096
0.0003240501834
0.0003089493479
0.0002932403933
0.0002965340989
0.0002742333522
0.0002916728026
0.0002816600158
0.0002604777802
0.0002717268768
0.0002564934804
0.0002577260142
0.0002702695274
0.0002740061932
0.0002762170451
0.0002882266418
0.000320602762
0.0003260192551
0.0003474759529
0.0003597681806
0.00026614901
0.0002048074455
-0.002328984545
)


100
(
-1.671128241
-0.3704127041
-0.160197299
-0.1184882542
-0.09635904487
-0.0535587612
-0.05513614815
-0.03244124951
-0.03213417559
-0.02218592071
-0.01970580938
-0.01673757308
-0.01235898646
-0.01204571557
-0.01007989137
-0.007405341249
-0.00645312874
-0.005577826755
-0.004047347167
-0.002827849484
-0.002342425317
-0.001702205603
-0.001031031492
-0.000445774019
-0.0001519906167
9.449157939e-05
0.0003563344168
0.0006453304847
0.0008500924487
0.0009440573145
0.001089538335
0.001248545427
0.001364049658
0.001365244359
0.001400077162
0.001467355089
0.001566119364
0.001603681039
0.001593702973
0.001614611136
0.001646359929
0.001666408124
0.001647820822
0.001636594542
0.001635395495
0.001608991418
0.001595020113
0.001578144924
0.001574476637
0.001526782727
0.001517808966
0.001465806525
0.001421437338
0.001346393426
0.001318872196
0.001283178131
0.001227791419
0.001123680566
0.001081418241
0.001056111565
0.001000142839
0.0009844649041
0.0009973111234
0.0009309592251
0.0008766613359
0.0008802531089
0.0008661584862
0.0007798581921
0.0007633218945
0.0007797429496
0.0007739439967
0.0007481940886
0.000770161921
0.0007681832128
0.0007120358849
0.000704423439
0.0007724727161
0.0007650724787
0.0007469908369
0.0007977662007
0.0007577808609
0.000772751413
0.000769803109
0.0007298454355
0.0008107346043
0.0007813994787
0.00081364317
0.0008906891038
0.000876803067
0.0009555203895
0.00100457638
0.001072400402
0.001075760681
0.001159297675
0.001258745001
0.001334021608
0.001301855361
0.0008351233805
-0.001589810351
-0.00210251419
)


100
(
-1.156442481
-0.4198206646
-0.1698341163
-0.1166268558
-0.06001622882
-0.03948882958
-0.02954462872
-0.01973739147
-0.01369990137
-0.01066957763
-0.005619956582
-0.004708870274
-0.002735858704
-0.00126736235
-0.0006116718777
0.0004327673809
0.001348837953
0.002029474779
0.002616699831
0.00293983685
0.003225543879
0.003609781107
0.003793267726
0.003817680765
0.003855929389
0.004069231233
0.004049350553
0.003968727327
0.003914381799
0.004003086587
0.003968287345
0.003788206132
0.003647264397
0.00355234191
0.003571109702
0.003460373259
0.003387940915
0.003272133712
0.00335261039
0.00329785987
0.003157163168
0.003020654679
0.00291527568
0.002951919549
0.002857192517
0.002727270792
0.002511152276
0.002554860732
0.00254641667
0.002435049846
0.002249906248
0.002249684558
0.002268635618
0.002127781445
0.001948460675
0.001894790673
0.001951467587
0.001793179839
0.001614878581
0.001533239811
0.001531511483
0.001415248471
0.001380887356
0.00139367263
0.001365325506
0.001323816111
0.001354013457
0.001370834427
0.001315851167
0.001304011259
0.001322031912
0.001360604796
0.001375075867
0.001452588175
0.001492347611
0.001405421593
0.001362266489
0.001462350285
0.001443280714
0.001410369071
0.001489643362
0.00146848386
0.001574816912
0.001599074546
0.001652038326
0.001715364437
0.001690457711
0.001804719754
0.001941143183
0.002085974689
0.002118805324
0.002157276869
0.002313889349
0.002302497675
0.002454216389
0.002620422519
0.002185095695
5.642940598e-06
-0.01122977983
-0.01133261342
)


100
(
-0.888040107
-0.4728467847
-0.1795815579
-0.07719124421
-0.03496597832
-0.02681745482
-0.01037958785
-0.006655575233
-0.0002816314863
0.001764969623
0.004234936365
0.005296388396
0.006217090685
0.006522151269
0.006774418228
0.007429415599
0.007522054551
0.007370904935
0.007677908922
0.008136452747
0.007651577531
0.007284478565
0.007362620051
0.007494767459
0.007071185228
0.006733941495
0.006672046845
0.006713162499
0.006399546503
0.006139780835
0.005945294045
0.006048013222
0.005757878339
0.005430306499
0.005011529041
0.005070509751
0.004996953271
0.004822904398
0.00433530682
0.004404289251
0.004441513003
0.004351223793
0.003945597813
0.003739025388
0.00376368139
0.003864111955
0.003459806266
0.003093417626
0.003146286582
0.003276606967
0.003012207359
0.002755004633
0.002726826523
0.002798768183
0.002633137143
0.002417721313
0.0023947744
0.002489889904
0.002407169027
0.00225521538
0.00221278687
0.002243450122
0.002182223606
0.002153376903
0.002144535385
0.002129206968
0.00212731889
0.0021614421
0.002163297392
0.0021628023
0.002110727648
0.00209618458
0.002074971559
0.002108273234
0.002214317269
0.002319100212
0.002203764399
0.002243524374
0.002362074122
0.002343236129
0.002445017304
0.002507552535
0.002477310755
0.002659629379
0.002812532016
0.002968248958
0.003039513391
0.003060578476
0.003185145936
0.003386370955
0.003573779982
0.003630092209
0.00367778218
0.003917798961
0.003939425399
0.004174452931
0.003007543077
-0.00623265097
-0.01997067108
-0.009037244758
)


100
(
-1.066323412
-0.3254246697
-0.1288964161
-0.04837837974
-0.02144465623
-0.007757802295
0.003267118674
0.007467882224
0.01127098708
0.01223186711
0.01418892954
0.01366550006
0.01357848144
0.0141474151
0.01308457688
0.01270567856
0.01323105328
0.01263662402
0.01176024325
0.01161911932
0.01197973224
0.01114697194
0.01032399959
0.009929153566
0.01013864039
0.009537632244
0.00892585377
0.008731920128
0.00886356886
0.008539619592
0.007982885258
0.007441813434
0.007538971522
0.007519648414
0.006857082047
0.006156230438
0.006171778039
0.006378877233
0.005869044729
0.005170000196
0.005179711265
0.005262828606
0.00516767885
0.004615833347
0.004358994166
0.004540970762
0.004653345106
0.004142544776
0.003713908343
0.003874816173
0.003974476821
0.00371643675
0.003452379474
0.003442843429
0.00355188727
0.003445666498
0.003303883527
0.003333823912
0.003383738642
0.003414224946
0.003357886606
0.003305489498
0.003273800315
0.003235192297
0.003243971796
0.003201886605
0.003140979642
0.003184358022
0.003176994671
0.003213363468
0.003216157268
0.003186315222
0.003137892817
0.003096610997
0.003061509111
0.003192015128
0.003431500251
0.003452820715
0.003534700209
0.003612681139
0.003742032384
0.00398361938
0.004018109454
0.004056053596
0.004221656124
0.004338217151
0.004534567205
0.004655213148
0.004940010945
0.005087178216
0.005197777218
0.005462501384
0.005565010147
0.005838538146
0.005903145161
0.005843188597
0.0033071782
-0.01916057838
-0.02339112936
0.006962514974
)


100
(
-1.414296069
-0.2480787816
-0.09207203256
-0.03094062845
-0.008769932472
0.008522500015
0.01669980216
0.01932464016
0.02298539727
0.02231763492
0.02208511619
0.02286337043
0.02033028138
0.02008910857
0.01995337573
0.01803556542
0.0171986871
0.01758135181
0.01666180426
0.0152503362
0.014578185
0.01482425412
0.01396788923
0.01277057521
0.01178196639
0.01191738694
0.01153225222
0.01069762734
0.01045151746
0.01048451654
0.01049811398
0.009218987234
0.008623665808
0.008669326761
0.00895349814
0.007820268841
0.007066599038
0.007107885409
0.007677691117
0.006794142673
0.006028611753
0.006001159139
0.006275460055
0.006002262867
0.005387848063
0.005183671844
0.005483502832
0.005598163171
0.005042353396
0.004733827333
0.004883762154
0.005048351895
0.004914766189
0.004749921291
0.004673111943
0.004643748938
0.004674349724
0.004717123757
0.004640144146
0.004585210644
0.004599529528
0.004677124282
0.004609126819
0.004501617187
0.004480650232
0.004556118379
0.004557156768
0.004606167056
0.004666545666
0.004621348843
0.004649251198
0.004713119115
0.004697824115
0.004662489722
0.004750971836
0.004703621413
0.004901478889
0.005044228977
0.005159041078
0.005326413997
0.005364555008
0.005466013355
0.005783682017
0.005909832424
0.006110124065
0.006290797995
0.006430343237
0.006485442575
0.006743869904
0.007213275234
0.007391271665
0.007539941624
0.007862074514
0.008119324438
0.008415249551
0.007861819054
0.002048672474
-0.03702514086
-0.01985472618
0.04948241555
)


100
(
-1.175952178
-0.1962195922
-0.07154343367
-0.01939709782
0.008270778718
0.022970189
0.02885391345
0.0319299981
0.03204411179
0.03398504697
0.02942016978
0.02988956558
0.02876188731
0.02523687563
0.02514323033
0.02436359391
0.02186618479
0.02059326983
0.02101949708
0.0198593302
0.01801120275
0.01668556143
0.01685515074
0.01631062291
0.01485718644
0.01350670321
0.01327604324
0.0127668786
0.01178321491
0.01159078047
0.0118600075
0.01197563334
0.01020471295
0.009636069767
0.009943777409
0.01008231728
0.008746240512
0.007947053422
0.008449411796
0.008721108611
0.007838002955
0.007004465197
0.007153950966
0.007316547842
0.007048941506
0.006423385279
0.006446995775
0.006694618357
0.006932933523
0.006514672474
0.006427327659
0.006351848177
0.006448136713
0.006546249671
0.006490870809
0.006256903872
0.006041109419
0.005982701339
0.006051243426
0.006023785468
0.005951052436
0.005999213659
0.00611179088
0.006230330688
0.006224433502
0.006266741191
0.00622046333
0.006145856555
0.00633519945
0.006440525052
0.006347353597
0.006368051713
0.006454229081
0.006565811538
0.00674473168
0.006742067465
0.006712116789
0.00697533712
0.007050832568
0.007141643206
0.007398699689
0.007570147598
0.00778630441
0.008021134248
0.008303257298
0.008583212308
0.008818752901
0.008905095814
0.008969211585
0.009485980068
0.009908582703
0.01009194661
0.01043732034
0.01071903543
0.01125047868
0.009968333203
-0.001870391376
-0.05413137014
-0.00671686461
0.1004526664
)


100
(
-0.8324624792
-0.2205144605
-0.06668462182
-0.004642761712
0.02343835998
0.03807513064
0.03913362185
0.04561827018
0.04034785129
0.04194009568
0.03997582156
0.03481970638
0.03581780734
0.03293561369
0.02895162053
0.02900894114
0.02787180545
0.02511390775
0.02317171669
0.02328998175
0.022399891
0.02034803815
0.0184022533
0.01852069417
0.01851249241
0.01685416375
0.01532361818
0.01446934599
0.01372869808
0.01265278935
0.01248824823
0.0137208986
0.01295517189
0.01116982021
0.01062403688
0.01146851627
0.01111346134
0.009719045338
0.009086194656
0.009743781393
0.009892887551
0.009059268237
0.008318688131
0.008451846364
0.008705250368
0.008561962641
0.008297143641
0.008247618256
0.008262525397
0.008489565767
0.00847668961
0.008274128568
0.008000383543
0.00781100831
0.007911454048
0.008235697577
0.008052114324
0.007842065887
0.007724807398
0.007711278133
0.007778983177
0.007821281181
0.007964434291
0.007940539448
0.007860295554
0.007999253197
0.008186138568
0.008062323474
0.007986067463
0.008188072587
0.008417997728
0.00861964793
0.008715991925
0.008538005008
0.008632600372
0.008998376303
0.00895752098
0.009078049578
0.009424253808
0.009644086968
0.009803774139
0.009983879906
0.0102839621
0.01058417969
0.01084864028
0.01119991147
0.01146440836
0.01163591953
0.01180912283
0.01220157582
0.01274423884
0.0130447392
0.01346511153
0.01375790499
0.01470708579
0.01216984294
-0.009775430548
-0.07072663236
0.01619439774
0.189643576
)


100
(
-0.6551031376
-0.2302462978
-0.05323092848
0.01128562574
0.03855613918
0.04939587832
0.05148738792
0.05325198521
0.05299681757
0.0477020745
0.04957071291
0.04376066211
0.0396298676
0.04024996065
0.03613609459
0.0317328042
0.03179494065
0.03060312841
0.02744058743
0.02508624031
0.02525166623
0.02490376443
0.0226007154
0.02044737382
0.01994181255
0.0202089442
0.01892172237
0.01724290938
0.01576463585
0.01453636874
0.0133857966
0.01402710043
0.01515733786
0.01408900564
0.01219871638
0.01216997346
0.01272035221
0.01237588097
0.01092687808
0.01076448746
0.01113231012
0.01153857611
0.01089657574
0.01056410634
0.01026318823
0.01041078395
0.0105861913
0.01051163009
0.010221513
0.009946323195
0.009789738818
0.01010718317
0.01015946441
0.0099209859
0.00964073491
0.009679303741
0.009779736963
0.01011688112
0.01012207006
0.01008796753
0.009876629386
0.009616767047
0.009810919845
0.01010443302
0.009991692271
0.00983369277
0.01000735827
0.01023732485
0.01049503504
0.0106849623
0.01058354289
0.01043629383
0.0109640942
0.01108877244
0.01094241018
0.01116500582
0.01163831902
0.01185956183
0.01203021312
0.01226930011
0.01262582328
0.0129006118
0.01315485131
0.01353887773
0.01384817389
0.01405854195
0.01460212604
0.01484288992
0.01516631937
0.01560450559
0.01595787594
0.01630162008
0.01659127162
0.01714957863
0.0180910328
0.01429127031
-0.02576188218
-0.08927591242
0.05468897635
0.2898010556
)


100
(
-0.6649724189
-0.1948034183
-0.03580378568
0.02647182363
0.05421106733
0.0581120322
0.06701618238
0.05984022059
0.06472377694
0.05705917538
0.05413201636
0.05480639021
0.0467238177
0.04337024085
0.04366061858
0.03872578702
0.03402003034
0.03400127138
0.03320677047
0.03014073316
0.02703461924
0.02708845224
0.02746577814
0.02496497153
0.0227277657
0.02144225575
0.0218265092
0.02138888052
0.01965215877
0.0181633015
0.0161286588
0.01459377873
0.01607890657
0.01689132584
0.01563207947
0.01372838503
0.01399689978
0.01429620565
0.01416777878
0.01329748295
0.01308669005
0.01325158587
0.01374043119
0.01362815615
0.01314794689
0.01253003519
0.01208309905
0.01231001092
0.01275258099
0.0124865298
0.01214779569
0.01187176281
0.01185626173
0.01212391971
0.01234496402
0.01224195301
0.01225837838
0.01201501274
0.01194556372
0.01238327999
0.01262649921
0.01229926657
0.01191971256
0.01202820829
0.01243703687
0.01268324934
0.0127882736
0.01271369219
0.01246829889
0.01316024742
0.01353892403
0.0132569955
0.01322589678
0.01369425611
0.01409113534
0.01415513689
0.01434003112
0.01477451076
0.01519395929
0.01551196562
0.01583050718
0.01624422128
0.01645552553
0.01668516644
0.01724377155
0.01756127181
0.01807562991
0.01863209361
0.01914143792
0.01962991527
0.02002485358
0.02038545404
0.02043357596
0.02111825398
0.02108737712
0.01449046963
-0.05431022915
-0.1086525229
0.09221228421
0.3855388923
)


100
(
-0.8245082242
-0.1698762911
-0.01752232215
0.04111552736
0.06400267402
0.07001757908
0.0766163424
0.07308049061
0.07015947345
0.070737416
0.06027286346
0.05961339583
0.05772802405
0.04949808601
0.04661302695
0.04708814859
0.04193201429
0.03692500731
0.03657176821
0.03644405965
0.03309230865
0.02985711237
0.02916528161
0.02968260891
0.02791438403
0.02554859094
0.02352345254
0.02376273488
0.02425823898
0.02290569206
0.02136930005
0.01811912142
0.01739522868
0.01848193213
0.01890849245
0.01770506403
0.01677969899
0.01640309133
0.01691559251
0.01706862659
0.01672809849
0.01609530462
0.01552686203
0.01565278595
0.01622021936
0.0160612555
0.01538529866
0.01473714038
0.01455850496
0.01491111249
0.01529998982
0.01516066403
0.01501239306
0.01480971901
0.01444898211
0.01479512795
0.01540877986
0.01535477191
0.01489769184
0.01453548269
0.01467717668
0.01532518673
0.01554616504
0.01549399314
0.01537371661
0.01516679852
0.0157686522
0.01623896839
0.01572053429
0.01544366705
0.0161741847
0.01685748043
0.0169827237
0.01729285268
0.01766839232
0.018133515
0.01826787337
0.01845108117
0.01888708521
0.01930828329
0.0196102299
0.02010414111
0.02058610616
0.02084730415
0.02121820188
0.02170263462
0.02234076674
0.0229242953
0.02341607416
0.02405230527
0.02460148973
0.02489930495
0.02522869044
0.02609889058
0.02508982514
0.009799528445
-0.09274810394
-0.1265909412
0.1580035053
0.5300264879
)


100
(
-0.7755300441
-0.1572691521
-0.009158813971
0.05301463977
0.07164544846
0.08716523635
0.08298545054
0.09007901988
0.07717400838
0.07856785022
0.07389906444
0.0636518351
0.06434783082
0.06071328368
0.05268373205
0.05027114615
0.05109800531
0.04577793488
0.04047165746
0.03946444782
0.04035885917
0.03668708468
0.0333864738
0.03177266501
0.03237447575
0.03168406607
0.02907672183
0.02696448164
0.02610055198
0.02668447149
0.02633113707
0.02501286085
0.02168538872
0.02063258106
0.02142726695
0.02228752075
0.02174547487
0.0211259782
0.01996458692
0.01959706908
0.02017928913
0.02024975696
0.01951972643
0.01879288669
0.01829409545
0.01880778035
0.01937390488
0.01907271398
0.01841502787
0.01827386183
0.01802476289
0.01836238672
0.01900554216
0.01920219011
0.01861469556
0.01786737802
0.01745242147
0.01848511867
0.0189884833
0.0187403965
0.01864532067
0.01846173167
0.01866220077
0.01954789304
0.02005865186
0.01929516561
0.01860686712
0.01917779711
0.0200112493
0.01975053381
0.02007537401
0.02051380341
0.02107347529
0.02158227821
0.02201883371
0.02252231027
0.02295432373
0.02321145535
0.02346531638
0.02398488924
0.02440268511
0.0248734647
0.02536822203
0.02586875529
0.02653241215
0.02710971694
0.02730419995
0.02823117664
0.02871740038
0.02979124018
0.03061301226
0.03046746452
0.03153269568
0.0329844126
0.02998648957
-0.005917914838
-0.1259545323
-0.1394255326
0.2248405869
0.7011992081
)


100
(
-0.6186678723
-0.1762607344
-0.006285136895
0.05840591549
0.08350563495
0.09883725659
0.09386533322
0.0966513712
0.09374955428
0.08358211967
0.08569554198
0.07651933961
0.06839446929
0.06895639791
0.06452996994
0.05631746459
0.05397766472
0.05520160379
0.05000969924
0.04458901285
0.04277216631
0.04380831555
0.0409640242
0.03757444755
0.03476622402
0.03543345024
0.03587546332
0.03341168124
0.03126559636
0.02954018818
0.02953630762
0.0301091624
0.02884920547
0.02677255136
0.02605285475
0.0254347387
0.02592312223
0.0264289374
0.02538833
0.02410004544
0.02295989089
0.02318825216
0.02418130038
0.02369774817
0.02293258479
0.02236864441
0.02219987939
0.02264348471
0.02335977475
0.02335827053
0.02318379551
0.02235733075
0.02164443923
0.02242758938
0.02375968377
0.02315935504
0.02231481809
0.02190392674
0.02218079214
0.02315032339
0.02414518277
0.0242447917
0.02319134287
0.02231959565
0.02362625837
0.02460601264
0.02400425769
0.0238115946
0.02416423831
0.02475067995
0.02512526291
0.02524680446
0.02548960785
0.02615044233
0.02682815172
0.02743231412
0.02803535634
0.02860830873
0.02903295138
0.02946170708
0.02995704313
0.03076399981
0.03144099643
0.03191478253
0.03232986827
0.03314773785
0.033992957
0.03487846892
0.03595940222
0.03659242506
0.03840194741
0.0349790967
0.03928669379
0.04073187504
0.03548779961
-0.03204017807
-0.153785034
-0.1514048451
0.3496015562
0.9483623559
)


100
(
-0.5182087182
-0.1791810722
-0.001554316692
0.06473617398
0.09928025101
0.1026595814
0.111565761
0.1011045944
0.1080851035
0.09585826231
0.08989384921
0.09141436078
0.07947396911
0.07270731823
0.07348539667
0.06858332747
0.06029950157
0.05748306378
0.05916843473
0.05457843834
0.04913818684
0.04614588203
0.04732907903
0.04575536148
0.04217614795
0.03935443744
0.03866588297
0.03931042431
0.03856382878
0.03612821037
0.0344277817
0.03285550271
0.03350640126
0.03409021738
0.03258818743
0.03111294002
0.02935335797
0.0291385825
0.03029901635
0.03035161548
0.02886810874
0.02758831322
0.02693969383
0.02757691104
0.02820877648
0.02788242027
0.02754242294
0.02740167337
0.02654446044
0.02707219252
0.02811192119
0.02814010456
0.02708358685
0.02611501074
0.02627352643
0.02750182022
0.02849265521
0.02800230555
0.028173465
0.02733230165
0.02743621983
0.02900451614
0.02949262768
0.02819106744
0.02744053804
0.02820734535
0.02925855385
0.02987630239
0.03009896606
0.03034050089
0.03093181254
0.03152700777
0.0316133738
0.0318328716
0.0323570753
0.03308435812
0.03386173461
0.03473461958
0.03559806796
0.03629323275
0.03663411261
0.03706133899
0.03796130314
0.0390604947
0.04004162363
0.04044063196
0.04131010858
0.04251870888
0.04406232754
0.04533295268
0.04794109209
0.04578545127
0.04753743426
0.05063406423
0.0424542919
-0.06095430921
-0.1728072984
-0.1699415101
0.4430059869
1.186580518
)


100
(
-0.5501290543
-0.1694549825
0.003216866515
0.07409322773
0.1076694231
0.1094409113
0.1209429756
0.1140663591
0.1112908784
0.1129983929
0.09734850748
0.09482664886
0.09414100773
0.08241596479
0.07652095838
0.07784630191
0.07290234825
0.06461408974
0.06109505387
0.06298351415
0.05954689547
0.05408057138
0.04962345548
0.05077872491
0.0511861678
0.04723315427
0.04456701472
0.04214667387
0.04281858611
0.04353364774
0.04176277326
0.03995211224
0.03757876181
0.03685153819
0.03778828199
0.03837394554
0.03642570874
0.03458918857
0.03293101674
0.03385906285
0.0350383961
0.03437626798
0.03293116646
0.03238601738
0.03189354378
0.03238999787
0.03342898131
0.0335284928
0.03285649783
0.03165945753
0.03068658663
0.03223213904
0.03346708352
0.03245510374
0.03155348971
0.03206913046
0.03215070962
0.0334947715
0.0347196749
0.03389153692
0.03248603123
0.03161525473
0.03381266571
0.03509043701
0.03435520168
0.03463923038
0.03500343277
0.03569187817
0.03635527726
0.03670846834
0.0371350174
0.03767155482
0.03863957234
0.03900344608
0.03947495825
0.04023055687
0.0409770458
0.04179648473
0.0423668373
0.04309184151
0.04456569844
0.04539492878
0.0467638064
0.04693571421
0.04770428484
0.04914287818
0.05043461013
0.05177519437
0.05242677697
0.05441744663
0.05738481052
0.06777723093
0.05864572606
0.06140062258
0.05442686205
-0.08573396403
-0.1868620924
-0.191167844
0.5472967776
1.444498216
)


100
(
-0.6385685376
-0.1572015427
0.008672124403
0.08295906218
0.1079960057
0.1251529561
0.1227918263
0.1313884591
0.1161195996
0.1185902272
0.1140012705
0.09877310481
0.09915370753
0.09713302901
0.08550906444
0.08006766408
0.08197442061
0.07740328756
0.06947192837
0.06479868073
0.06682941219
0.06516475188
0.05946730258
0.05529330991
0.05436882059
0.05523113963
0.05315460754
0.0502758396
0.04814818375
0.04667260961
0.04755519561
0.04823382034
0.04582103589
0.04327784009
0.04062776997
0.04164019533
0.04358842295
0.04256291237
0.04046309078
0.03884119726
0.03793878104
0.03896271175
0.04021624076
0.03979082753
0.0394733748
0.03825738691
0.03648005119
0.0375121241
0.03974290326
0.03890161893
0.03758268508
0.03647933842
0.03662866074
0.03799598213
0.03922314401
0.03920151455
0.03883249912
0.03725142378
0.03782131022
0.04032108329
0.03995482867
0.03842333806
0.03832146291
0.03942700306
0.04057270112
0.04174650338
0.04223275253
0.04252052166
0.04341691894
0.04429853751
0.04463968742
0.04483060581
0.04550295393
0.04630578326
0.04695568854
0.04755156563
0.04933033203
0.05068874467
0.05196937514
0.05224975132
0.05270226983
0.0532658569
0.0554183106
0.05777089287
0.05829449075
0.0596161043
0.06101940565
0.06290171819
0.06487474143
0.06539081041
0.06688012497
0.07594847404
0.07493095147
0.07321844064
0.05835214199
-0.1112371332
-0.203437238
-0.2048061856
0.660402178
1.640754724
)


100
(
-0.59553025
-0.1635648841
0.009838985039
0.08422154263
0.1111168891
0.1358082767
0.1291269476
0.1352543212
0.1329566397
0.1208630364
0.1243837679
0.1158132824
0.1020461476
0.103650555
0.1009378533
0.08958225671
0.08377083766
0.08638848808
0.08299921814
0.07533790518
0.06893922704
0.07096615991
0.07202888663
0.06580691375
0.06192608325
0.05861141151
0.05952423554
0.06055189331
0.05731320092
0.05512752679
0.05129340448
0.05179561641
0.05349419563
0.05283132133
0.04973928376
0.04706102411
0.04585509886
0.04811744685
0.04928900378
0.04755970801
0.04585376926
0.04535586507
0.04415221284
0.04572873676
0.04722092948
0.04727420377
0.04525948664
0.04320461119
0.04234780165
0.04495105677
0.04616487778
0.04458604527
0.04448287916
0.04402463473
0.04396872184
0.04517242079
0.04738785459
0.04565937128
0.04387408203
0.04363999419
0.04573209696
0.04718356958
0.04638523736
0.04701502814
0.04749401317
0.04838811477
0.04932872695
0.04988071337
0.05035164624
0.05101907258
0.05237646502
0.05403612038
0.05474331038
0.05582294229
0.05681370991
0.05725726901
0.05764045692
0.05857175327
0.06039953443
0.06298515872
0.06435504061
0.0651303574
0.06523390549
0.06722642337
0.07022957246
0.07357508961
0.07507735847
0.07602826024
0.07773700126
0.0801267665
0.08122549461
0.08051773235
0.08993179408
0.08866887834
0.06722523358
-0.1717550629
-0.2220546873
-0.2143073949
0.7483653907
1.815505265
)


100
(
-0.5152766938
-0.179205832
0.007577305189
0.08316981004
0.1224576399
0.1348183701
0.1452018299
0.1364876345
0.1460981551
0.1345853586
0.1274477979
0.1313692375
0.1186823878
0.10667491
0.1088868853
0.1059871425
0.09492953473
0.08847475145
0.09157996708
0.08980758546
0.08147115469
0.07619517297
0.07571415678
0.07721282374
0.07374767276
0.06970185745
0.06651345007
0.06492890279
0.06607395316
0.0656923359
0.06278822899
0.05909043317
0.05659390756
0.05872273147
0.06100681714
0.05752337286
0.05472579536
0.05308856266
0.05333264472
0.05468928696
0.05663926775
0.05539290155
0.0544786731
0.05175145394
0.05087715924
0.05332348155
0.05657560046
0.05374678596
0.05155295299
0.05046685561
0.05082274219
0.05328041296
0.05526736851
0.05521977288
0.05278870405
0.04998313416
0.05209635735
0.05521160783
0.05408723275
0.05240365692
0.05278563114
0.05373250254
0.05478156114
0.055409563
0.05642647678
0.05684958033
0.0581889249
0.05931176941
0.05984777707
0.06049584287
0.06151368011
0.06263368197
0.06379052507
0.06490501765
0.06631256683
0.06893552265
0.07006414888
0.07101878212
0.07230086671
0.07378345385
0.0744950366
0.07729764936
0.07923087232
0.08055836916
0.08291303485
0.08536615941
0.0886300493
0.0921883707
0.09419680021
0.09737591818
0.0991402581
0.1006879048
0.1074966242
0.1066568134
0.07076041077
-0.2368726284
-0.2365625878
-0.206557896
0.8355433411
1.956176057
)


100
(
-0.4523988198
-0.1744643101
0.006218533258
0.08499981442
0.130709685
0.134732918
0.1533448667
0.147958261
0.1472693868
0.1527091605
0.1369954107
0.1332609311
0.1371446311
0.122316239
0.1114866791
0.1145641762
0.1119183428
0.1016273993
0.09353231504
0.09582847165
0.0982503194
0.09002973296
0.08499411275
0.08155017103
0.08307882752
0.08422209782
0.07951012364
0.07585005778
0.07068614527
0.07186101555
0.07516157542
0.07185534161
0.06805937128
0.06426829593
0.06465828591
0.0671179943
0.06748755756
0.06387524759
0.06279037916
0.06177747004
0.06198700451
0.06350588109
0.06592482653
0.06376662093
0.06101610947
0.05814280928
0.06033202095
0.06336195843
0.06441283896
0.06184069687
0.06244766414
0.06089008584
0.06142504479
0.06443229894
0.06611145368
0.06273108396
0.05956333862
0.06047379976
0.06293823956
0.06483312792
0.06456079876
0.06508697928
0.06574509412
0.06668901165
0.06747420772
0.0679793542
0.06819945862
0.06879241836
0.06972827616
0.07202587141
0.07346238827
0.0749579947
0.07648801975
0.07788157649
0.07912678984
0.08014751367
0.08163961507
0.08315658615
0.08686702543
0.09035967312
0.09156106714
0.09214683975
0.09414860714
0.09846559749
0.1024361115
0.1040732055
0.107054476
0.1105915258
0.1148985683
0.1176572152
0.1232526818
0.1259999026
0.131834631
0.1274275987
0.07944268489
-0.2744443389
-0.2416933704
-0.1952901808
0.9175394344
2.077505718
)


100
(
-0.5303905596
-0.1728862923
0.006591743437
0.08919623933
0.1265519203
0.1466005165
0.1526389148
0.1642760418
0.1518033396
0.1560145991
0.1558509432
0.1398634682
0.1390182669
0.1420491277
0.1277141461
0.1167165633
0.1207398655
0.1195178609
0.1092231801
0.1022973945
0.1033220388
0.105405863