/*--------------------------------*- C++ -*----------------------------------*\
| =========                 |                                                 |
| \\      /  F ield         | OpenFOAM: The Open Source CFD Toolbox           |
|  \\    /   O peration     | Version:  2.3.1                                 |
|   \\  /    A nd           | Web:      www.OpenFOAM.org                      |
|    \\/     M anipulation  |                                                 |
\*---------------------------------------------------------------------------*/
FoamFile
{
    version     2.0;
    format      ascii;
    class       dictionary;
    location    "constant";
    object      rCH3OCH2;
}
// * * * * * * * * * * * * * * * * * * * * * * * * * * * * * * * * * * * * * //

rCH3OCH2_table
100
(

100
(
-39.01337747
-75.06394912
-106.8863159
-127.312427
-144.4319544
-152.5106317
-159.0450888
-161.8014137
-164.2219666
-164.6395383
-165.8508426
-162.8184171
-159.4737892
-155.7720761
-150.8405365
-145.1977908
-139.3397765
-133.9086115
-128.0397705
-122.1432198
-117.1011984
-112.1611328
-107.1870313
-102.3690765
-97.61003559
-92.69630494
-87.75103992
-83.51941514
-79.98740822
-76.29904711
-72.5501978
-68.73061578
-64.74583769
-60.67303293
-56.59262072
-53.1133096
-50.62264572
-47.97180419
-45.22295178
-42.66268872
-40.4598635
-38.1194872
-35.69270585
-33.28017178
-30.88015963
-28.43524352
-26.00872754
-23.71928057
-22.26791386
-20.78679521
-19.32443936
-17.97258421
-16.87188165
-15.7780129
-14.70101087
-13.64309242
-12.59745308
-11.53615782
-10.40568762
-9.416241626
-8.738030556
-7.965865761
-7.11862804
-6.496289237
-6.071619473
-5.551479702
-4.961639074
-4.660181423
-4.368047608
-3.968802869
-3.64436475
-3.511495394
-3.258245656
-2.969451772
-2.926584874
-2.755819877
-2.531622504
-2.531647744
-2.357249049
-2.250898452
-2.186683328
-1.958912321
-1.940411149
-1.72131717
-1.640771288
-1.415899575
-1.296695806
-1.08007181
-0.9368220835
-0.8229273717
-0.725932323
-0.6340049114
-0.5240898778
-0.4497499607
-0.347509178
-0.2608398159
-0.09696352953
-0.02311648535
-0.01344473468
4.475050153e-11
)


100
(
-34.24907156
-64.32527974
-91.39987363
-105.1265902
-116.864048
-122.7356894
-119.0095517
-121.5011702
-116.4977517
-115.0946327
-113.1235226
-105.5956535
-100.3453263
-92.61202748
-83.61846608
-76.92552894
-69.25688517
-59.11825005
-53.77218196
-47.74257018
-40.19808293
-35.23041872
-31.23826316
-26.47962987
-20.6459643
-18.03677141
-14.46979914
-10.41164896
-6.129715699
-5.05936127
-3.211636674
-0.7962281078
1.845610455
2.956020065
4.648317481
6.418466886
8.307306205
9.123304997
9.259187611
9.669738562
10.26908759
10.53412379
10.13451022
9.910682158
9.841948146
9.787489217
9.384577876
9.002077164
8.738427061
8.58271482
8.264218526
7.772592131
7.281171042
6.801576569
6.247769307
5.611156449
5.140711761
5.311681739
6.76264927
9.873885288
12.91508173
12.51835404
10.26447714
10.07231712
11.6359676
10.86482011
9.339194045
10.3035554
11.16404564
9.500800074
8.625552696
10.05144055
9.519241718
8.997489598
13.36942284
15.3499944
10.83822392
12.43139465
13.52949681
8.4921616
11.50752369
9.304373727
8.053574434
12.20930953
5.600743688
8.43757498
8.990928485
5.061467883
9.778081832
4.831569398
7.279080675
5.415476569
10.07938841
8.652577472
13.82608564
10.30870147
11.75454609
11.16341165
3.56043654
1.708299132
)


100
(
-30.21475992
-53.59036449
-76.15817421
-85.02177508
-95.22215216
-95.51909368
-92.84925505
-87.82531447
-83.71536852
-76.29347595
-73.60687959
-65.7085441
-58.81371056
-51.87810927
-42.42006353
-34.52706367
-27.94386543
-20.30908963
-12.73345553
-8.180120133
-3.248788831
1.687602097
5.475554417
8.301217392
11.32568157
14.28969676
16.4622015
18.41230199
20.23964599
21.71311372
22.65431687
23.23118183
23.75044962
24.230613
24.72979688
25.03063569
25.15558545
25.07324375
24.91666298
24.68933717
24.28875951
23.71763833
23.19002876
22.74185096
22.14501556
21.1071198
20.00913328
19.02764341
18.07057656
16.96783301
16.02304334
15.61801579
15.7007959
15.89815248
15.86278762
16.0011392
16.22805674
16.80255513
17.72081982
20.46359792
25.47875992
30.8295932
31.57004439
29.07224516
27.79368534
27.87750738
26.53969669
24.60191375
24.23879343
22.72590132
20.22117354
17.98733003
17.00908528
15.51576764
16.81609959
22.92148714
28.84706878
27.58135117
25.52782558
25.12933876
24.41236071
26.54558061
24.94842636
31.0222972
30.50503378
27.94572732
31.3612244
29.64672759
29.89618547
34.7926228
39.09541725
41.69042749
46.2551857
61.28718404
58.62821588
62.31569403
72.65287231
50.61937803
22.99082655
9.886018357
)


100
(
-26.95223589
-44.23588829
-62.11584708
-71.1501969
-75.97209802
-72.02894882
-70.22889608
-61.55201882
-57.51901872
-50.25203683
-44.60759498
-38.98063051
-30.75354275
-24.82006909
-17.73444506
-9.937527304
-3.709380936
1.947380098
7.452173386
12.42173686
16.05248694
19.35656426
22.25776631
24.78221454
26.87799996
28.61259967
30.06885969
31.4521741
32.59996131
33.24819835
33.5208098
33.74875687
34.13584359
34.2422276
34.23137088
34.34351578
34.5987818
34.6731975
34.40760634
34.01936997
33.82592302
33.96882909
34.19965255
34.36774965
34.75352301
35.29026803
36.09134626
36.39252226
36.68532465
36.82717198
37.54523964
37.89227731
38.18982183
37.96448723
38.09393734
38.022196
37.83054295
36.95053789
36.68975485
36.49895
36.61465044
37.93859178
40.18965233
39.73242957
37.2460253
34.83226136
32.97894679
30.97173581
30.33080634
31.21257774
33.56558384
36.72146317
41.04060209
45.04006175
47.21532595
51.71728157
58.77611859
59.47175687
59.28978955
65.11790921
66.65326931
65.88043245
67.11413256
65.87955767
62.96857614
62.63244313
64.39329303
66.45238438
64.58085015
65.98370731
62.93167813
52.1182633
46.97107923
18.30429558
6.851734609
-1.722820319
3.201323439
66.43664274
55.37775263
22.56829236
)


100
(
-24.50128738
-37.71093939
-52.29412591
-58.28369527
-58.51954786
-55.91579434
-50.95196993
-44.24017438
-37.10433946
-31.40017701
-24.29576084
-19.51237485
-13.66288217
-7.193477128
-1.633025248
4.191137811
9.817792728
14.7212685
19.05368385
22.67913516
25.72958102
28.67606167
31.0554459
32.95131019
34.7274981
36.89461092
38.55094422
39.76435112
40.83013277
42.04470145
42.87798584
43.27535528
43.58215703
44.21332062
45.25817663
46.01298978
46.95750224
48.09566774
49.95234201
51.59106596
52.88624959
53.73099381
54.43668381
55.53578763
56.2848189
56.96660808
57.08685079
58.43980714
58.96575897
59.07701198
58.50365164
59.12816018
59.41393481
58.97234547
57.77657507
57.30908081
57.3386132
56.62509293
56.09348105
55.61851674
55.02783134
54.25284268
54.666349
56.09132208
58.00571457
60.01824222
62.30237364
63.74391892
65.84432675
68.1137113
70.58071434
73.79459355
79.72205964
90.12435081
99.00497825
98.89573099
95.39105297
94.99677067
91.95015693
81.84278862
66.91152081
52.87210028
48.48301025
35.25365211
3.794620147
-33.65230601
-96.94313417
-158.7739148
-217.3921748
-245.8699362
-391.9709242
-575.633417
-685.063287
-908.7788313
-1082.547073
-1238.400033
-1203.852821
-347.8331268
-45.09466533
-6.60537148
)


100
(
-22.90153574
-31.62098487
-43.05429926
-46.29296107
-43.91597355
-41.96377595
-35.13065955
-29.88552906
-22.50044248
-16.93824915
-11.43857104
-6.020191074
-1.410007285
3.442112095
8.335098452
13.09126282
17.50164549
21.46639165
25.36002386
28.75548046
31.3544498
33.49319545
36.06617372
38.50379783
40.63752163
43.03808082
46.21894001
49.31479366
51.535322
53.28872967
55.16968644
57.46660801
59.28299699
60.67932691
61.79751567
63.90094077
65.47321493
67.14701137
68.2024651
71.18493378
73.48215863
75.4249014
76.02396485
76.7080043
77.83294707
78.82083125
78.70369708
78.2640695
79.71428351
80.00846701
79.46379925
78.92564144
79.6429737
80.02628946
79.77709731
79.40941962
80.3988451
82.10455951
85.05583725
88.4312186
91.39915382
93.70801104
96.18007266
98.04155654
98.65356038
97.80380109
97.61672256
97.19490882
94.03609312
89.62444583
84.15455342
81.52170453
79.00068953
74.90519756
59.66591691
44.94094622
12.80128179
-38.14277643
-100.7489607
-153.4315466
-203.872598
-292.6489839
-453.1839346
-593.1539523
-763.689869
-938.0735017
-1162.733225
-1396.514012
-1567.735655
-1889.245673
-2239.27257
-2505.346945
-2849.423516
-3164.651756
-3459.220374
-3715.515748
-3450.880268
-1935.375611
-828.7905233
-365.8733958
)


100
(
-20.66439543
-26.16022533
-34.53386442
-35.31001398
-33.74061982
-29.8589358
-24.11663081
-18.22172634
-12.39033535
-6.476036543
-1.841233771
2.626477451
6.765025533
10.68800387
14.34722007
18.08383153
22.07653624
25.61601091
28.74762859
32.13209182
35.41916444
37.99603897
40.28648386
43.03257648
46.4901625
50.1703415
54.63571296
60.0608939
65.07662495
68.61107599
71.05855594
73.45630107
76.93838987
79.69406661
81.52403058
82.65453057
85.24698321
87.36490101
88.75198313
89.31682551
92.2644927
94.61863145
95.88436384
95.77779132
96.2075829
98.18191918
98.61506705
99.36628384
99.47164752
102.2144259
102.8895641
104.1604955
105.5155621
107.775515
110.6890536
113.4191007
115.8893054
116.6550482
116.7489482
117.8485599
118.0640764
114.7251689
107.4451649
96.64624523
88.47615936
74.13938469
55.32344181
36.28232223
8.308107681
-18.48128815
-51.02128599
-101.3134549
-179.9396639
-261.503728
-356.5656109
-480.429401
-592.6846107
-740.5564939
-886.9700756
-1094.200523
-1377.187026
-1645.096445
-1903.894008
-2145.115793
-2412.588292
-2678.059695
-2872.643599
-2975.198822
-2962.201649
-3006.011898
-3037.182314
-2948.702983
-2794.272207
-2601.091029
-2416.69485
-2361.575671
-3178.616268
-3483.732111
-2608.102405
-2108.931729
)


100
(
-18.01282282
-21.22050126
-26.77013589
-26.90952556
-24.74489923
-19.52861883
-15.14340938
-9.101848441
-4.338769333
0.5529931159
4.921352209
8.732914371
11.97625402
15.35320989
18.55199432
21.31648719
24.40181601
28.22774663
31.87580922
35.07940906
38.64490144
42.66679562
46.10972928
49.29395129
52.46367004
57.21146268
62.63278835
69.32992879
77.21864956
84.01954345
88.78690998
90.96000075
93.77959836
97.54807709
100.5768545
101.5939307
102.5719748
105.4886423
107.6815592
108.2109575
108.6746635
111.5725019
113.7429094
114.1758683
114.198746
115.8090103
118.3258624
120.3730629
122.7421179
125.1072241
127.9260549
130.5236528
132.1876261
132.2694753
128.3217513
120.6330175
116.1640391
108.2130614
93.59579873
72.2821394
44.94832297
20.046443
-17.42638888
-63.828404
-112.9951097
-175.9302049
-253.0742035
-325.9078915
-417.4080437
-569.3570199
-756.694491
-930.780142
-1130.65904
-1316.755101
-1500.006453
-1715.792567
-1895.513653
-2155.323246
-2447.501474
-2675.646654
-2790.349225
-2840.205959
-2847.455662
-2797.18618
-2648.331187
-2403.835322
-2109.6987
-1810.201066
-1513.48252
-1198.690881
-921.3135298
-714.3776637
-541.944036
-417.6530647
-339.7971562
-319.8315294
-751.8867496
-1856.925945
-2878.612463
-7505.116669
)


100
(
-15.89530173
-17.21810085
-20.68854639
-20.11569932
-16.6150689
-11.93759229
-7.464952534
-2.726587764
1.790691518
5.846397648
9.395733005
12.96459124
15.84810673
18.13112709
21.3654164
24.28742448
26.79912109
29.59264304
34.57049938
38.99294612
43.08286927
47.18762259
52.40633402
57.14976266
61.32106283
64.91196491
70.12980191
76.97473295
85.34028004
95.1286658
103.4002077
108.3706475
109.5866255
112.5326217
116.4961311
118.6211564
118.7665909
119.475074
123.3490017
124.487128
125.3754342
125.528962
128.9201729
130.1613578
130.6676066
130.6787593
131.4302788
133.3445612
134.376043
133.5247702
128.4655405
115.9113919
101.0532303
86.85587337
66.7158237
31.24259328
-16.82867745
-77.64083173
-134.30107
-203.2535161
-285.4458779
-370.3890664
-477.2425972
-602.5427016
-730.1402214
-880.7625018
-1087.318349
-1336.159114
-1576.771966
-1818.454926
-2078.799592
-2275.550084
-2470.214441
-2599.88736
-2680.925943
-2788.491499
-2827.015533
-2770.899268
-2598.718201
-2351.792616
-2057.490474
-1740.446046
-1408.890584
-1080.432586
-803.1904525
-581.3907987
-405.0368331
-284.1676167
-196.7859617
-140.7315667
-107.5408927
-89.23314812
-80.2659349
-75.61745693
-73.09541494
-82.46133609
-114.4336877
-277.5038064
-848.8919226
-19039.93311
)


100
(
-14.33914019
-14.24889643
-15.90512074
-14.07891614
-9.502085979
-5.70233549
-1.137644364
2.528929623
6.220798404
9.776747284
12.79426562
15.3065743
18.6194651
20.95859721
23.0142362
26.78214596
30.2115934
33.35870365
37.39113725
43.0944055
48.65875632
53.76744454
58.20223367
64.40172818
70.20370316
75.20410203
79.0341778
83.70883917
91.30953011
100.4011248
111.3609711
120.779667
124.2961846
125.0277322
127.8166752
131.7654079
131.8661154
131.2196608
131.776519
134.968636
135.0150077
134.5406778
132.2273209
131.5022983
130.11617
126.0828237
118.2209754
102.7839082
79.7077513
58.52690838
29.56450909
-12.05627418
-73.0747677
-151.6391468
-240.2453131
-325.1595849
-442.958624
-581.3700137
-729.7016607
-899.0141942
-1077.433984
-1238.629251
-1418.905857
-1662.862462
-1943.638404
-2195.027508
-2420.875809
-2654.106206
-2812.965437
-2889.431338
-2895.532326
-2822.856422
-2688.494191
-2482.356002
-2201.724774
-1909.894707
-1570.935538
-1232.652701
-926.8934375
-666.4965013
-457.2627352
-302.1056442
-202.6348314
-139.0507353
-97.66805821
-74.54173156
-61.62450295
-53.03914904
-48.22766588
-46.00662377
-45.13082263
-46.69553048
-46.87564961
-48.90399418
-50.80869091
-56.26892916
-56.7447607
-69.15453742
-124.5482096
-38119.1419
)


100
(
-13.37046114
-11.6803779
-11.71257052
-8.582334328
-4.285424292
-0.3101184061
3.59841138
6.808349313
9.591855096
12.17900099
15.2053883
17.57188528
20.0153831
23.38465562
25.94637883
28.53180625
33.36458469
37.85328879
42.18848297
46.86423231
53.73002664
60.48249399
66.29680536
70.99948418
77.15600166
83.80412807
89.34336085
93.11012522
96.50986922
103.3534737
112.2872766
125.1275105
132.3255026
134.1466757
132.8979539
135.1209302
136.0414464
133.68715
129.6010759
125.6238427
122.6413567
117.7769782
108.6035186
92.71157796
64.12402905
34.84002852
2.160704239
-42.00243243
-110.3363411
-202.8664073
-318.8917176
-424.2011196
-556.6352547
-720.5903741
-910.5397357
-1116.844918
-1345.193349
-1544.590829
-1754.401369
-1976.739837
-2238.155891
-2504.200534
-2703.37459
-2861.662561
-3005.728135
-3069.946579
-3005.21873
-2843.960196
-2630.909069
-2355.150947
-1983.132419
-1573.127157
-1244.229537
-924.9687726
-653.3341066
-440.2731988
-290.4368292
-187.0573913
-120.3366478
-81.25293136
-60.82425765
-49.5453284
-42.56174484
-37.82188115
-37.27709845
-35.52897206
-35.64496395
-34.43871489
-34.11674015
-33.67746527
-34.32850049
-35.20481826
-36.75754277
-39.06537642
-39.99648685
-43.06600556
-42.10001655
-45.65106055
-90.16029291
-63564.98358
)


100
(
-12.26594749
-9.503418235
-8.020742999
-4.01949795
-0.004079667128
4.192556379
7.331634696
9.879554039
12.16273519
14.01981114
16.39174492
19.24654631
21.71707732
24.92344612
28.95095399
32.36515106
35.83424902
41.87044065
47.57192185
52.79426894
57.65256148
65.29100848
72.72792852
78.97952838
83.72134274
88.95856919
95.98563776
101.6276618
104.8871677
107.2367909
111.4598062
117.9436125
128.5632215
132.031741
129.1982492
121.9052295
117.07005
109.1214821
98.7511129
82.67158047
56.73661285
26.81317795
-6.950969616
-52.74508425
-117.4972124
-213.2742829
-336.8456576
-457.1395832
-587.3975145
-767.7498131
-984.098123
-1231.768755
-1499.869196
-1737.185868
-1966.444011
-2196.926402
-2431.954951
-2695.540774
-2910.308624
-3032.457609
-3109.47421
-3132.610641
-3058.897456
-2868.145309
-2592.606555
-2282.711919
-1930.392021
-1516.279116
-1106.060113
-838.4804345
-567.9291138
-363.0008383
-226.2310275
-142.2779888
-91.49325206
-61.83418155
-46.07030201
-38.03408283
-34.39910002
-32.59554925
-30.81444233
-29.26458916
-28.79593185
-28.26820268
-28.62106166
-27.73931139
-28.7811386
-27.7059147
-27.23272212
-27.52905619
-27.54602784
-28.69723695
-29.88721623
-30.92220552
-32.16602717
-33.57706363
-33.10112699
-35.20761395
-102.9423077
-94914.53826
)


100
(
-10.70379636
-7.660843263
-4.902418113
-0.8399551762
3.596946192
7.531013823
10.29389818
12.22107306
13.79570031
15.49534868
16.9941181
20.10879575
23.46874792
26.66867934
31.08765399
36.19419461
40.67798602
44.92590476
51.77831152
58.38346853
63.94583849
68.82942385
76.09836272
83.84672513
90.03689248
94.19091415
97.33887549
103.052022
107.3132343
108.6452462
107.5964731
104.753483
105.4847584
106.9730087
97.92795474
82.81696486
61.0944735
28.57720479
-1.394866127
-42.43347538
-98.18439105
-180.9906813
-294.7012316
-408.7973531
-538.6482396
-706.2940047
-923.8373839
-1182.202612
-1474.608338
-1749.406134
-2029.002622
-2297.734217
-2556.29563
-2811.356888
-3043.111729
-3174.375796
-3239.865182
-3249.327561
-3172.214304
-2977.139428
-2668.741214
-2352.694469
-1985.409571
-1603.070823
-1189.481392
-807.5316109
-583.4760131
-382.4598561
-229.2711909
-135.4340353
-84.18996528
-56.44202935
-41.9337495
-34.20852521
-29.68045875
-26.94045166
-26.16367211
-26.21069524
-25.42775566
-24.12757445
-23.21934612
-23.40833228
-23.72851302
-23.20281438
-22.57713533
-22.83859052
-23.21013169
-22.40838033
-22.59103805
-22.89319573
-23.0078698
-24.17727177
-24.01370552
-24.49125522
-26.22435388
-26.57007009
-26.95544405
-27.95680873
-104.6199339
-129376.8925
)


100
(
-9.475504804
-6.257855032
-2.770944974
1.75686539
6.570356131
9.996147193
12.3722017
13.92868023
14.73643369
16.40776703
18.04067641
20.04265211
24.49834095
28.79937657
33.00055391
38.6651193
44.85947199
50.2032515
54.79332898
61.74725671
68.70991213
74.17967746
78.5079031
84.11128083
91.27033244
96.30104758
98.22672737
97.83177123
97.04059758
96.72092234
91.54863835
81.22989043
65.63936505
42.90666652
21.89241882
-9.801122953
-54.74915614
-118.0739573
-213.5309492
-321.3221452
-430.8177282
-568.4695548
-758.120135
-996.1505133
-1277.065368
-1543.279547
-1837.123496
-2166.885409
-2500.345741
-2806.507492
-3081.645726
-3270.253654
-3382.460669
-3428.662759
-3393.109025
-3241.522259
-2944.831306
-2662.514113
-2266.293928
-1845.175707
-1439.187462
-1025.389433
-699.7665934
-485.4021585
-312.7279173
-177.4781222
-99.79812002
-62.75592137
-43.05087445
-32.88730352
-28.06413588
-25.36639561
-23.4655203
-22.05674467
-21.23288885
-20.91021219
-20.55058771
-20.45856106
-20.05648116
-19.39502821
-19.51635424
-19.61623933
-18.97723589
-18.51592276
-18.98974022
-19.20413284
-18.49751591
-18.37920898
-18.85877946
-18.92429829
-18.9812827
-22.75671892
-20.49731808
-20.61356734
-21.3470725
-21.48194424
-22.02476261
-23.00354774
-88.35113802
-180498.9959
)


100
(
-8.598700827
-5.224972016
-1.121246901
3.922644598
8.681638403
11.87160835
13.80262784
15.00156828
15.72201848
16.48772709
18.74741107
21.06872419
24.41520398
30.10705185
35.49355487
40.45577801
46.95229722
53.91752288
59.61049172
64.01783607
70.09072824
76.8291169
81.37530077
83.87388912
85.22087287
89.49889889
90.36407161
86.6739623
77.77317877
62.70065646
47.35123821
25.72166475
-5.436399467
-49.80716028
-114.1356021
-199.064072
-284.8191004
-395.7648115
-540.3985076
-741.8365863
-990.8954826
-1237.595615
-1492.016819
-1814.127492
-2175.236439
-2553.889307
-2917.888927
-3205.905007
-3428.864971
-3575.351496
-3636.952866
-3583.711932
-3378.260153
-3142.768069
-2816.587576
-2372.607753
-1893.325549
-1416.141002
-997.3232071
-713.1013675
-476.0815754
-301.8979216
-165.5264018
-90.7235818
-61.43548211
-39.18366157
-28.40001993
-23.97986264
-22.27783711
-21.01268681
-19.69544421
-18.54166527
-17.89589142
-17.65370048
-17.55817479
-17.40028452
-16.85355561
-16.37278051
-16.1909635
-16.24095886
-15.99383905
-15.89409892
-15.51032804
-15.79362286
-15.85958744
-15.34875804
-15.01740583
-14.99132901
-15.08095629
-15.41849155
-15.39133774
-22.35764343
-16.96731715
-16.79865419
-17.32193425
-17.54281891
-18.14841985
-18.88413585
-55.06439775
-240492.1304
)


100
(
-8.089710499
-4.389524646
0.1925708301
5.633480357
10.15196246
13.20326507
14.8236597
15.32164014
16.16277556
16.86408948
18.64778139
21.79056966
25.27783964
30.04844731
36.86174325
43.02323121
48.23578787
54.82824261
62.04607121
67.39226188
70.74260917
74.27929257
79.50175846
81.3124451
79.09110493
73.21240446
66.92749799
57.80113987
40.56020511
12.90842298
-27.49177382
-84.83472214
-142.2702745
-219.4205299
-321.6405884
-464.5655932
-661.5633525
-865.0872392
-1082.479204
-1349.195188
-1685.458487
-2068.849165
-2478.911734
-2835.764693
-3181.966778
-3484.06703
-3707.177156
-3835.138249
-3801.756845
-3678.334449
-3431.401028
-3084.972157
-2610.667249
-2085.505388
-1570.733782
-1179.942721
-814.1098009
-531.1893304
-328.0784273
-175.6326835
-105.0983213
-66.79937018
-41.2153256
-27.31177338
-21.25604683
-18.92266937
-17.97808004
-17.53323483
-17.15066587
-16.54094943
-15.70231774
-15.00161807
-14.84691747
-14.9185481
-14.54456256
-13.94180551
-13.47305153
-13.37651326
-13.47886446
-13.52548531
-13.16419185
-12.96122294
-13.15275008
-13.1420612
-12.95676789
-12.54946764
-12.46024841
-12.51383626
-12.68451622
-12.50176815
-12.48732798
-16.94178201
-13.31694202
-13.02235305
-13.91032917
-14.33008843
-14.93823751
-15.55736139
-48.46888493
-317867.3212
)


100
(
-7.389628602
-3.722225019
1.240588764
6.694769957
11.1787747
13.99342402
15.37935281
15.63073682
15.96830698
17.04601246
18.42698734
21.74236709
26.05904071
30.5595509
36.39099569
43.94460125
50.37353118
55.15453494
60.75773447
67.37460165
71.18407326
71.67825679
69.24166769
69.64111996
64.25171702
51.91925902
31.38281464
0.3377098495
-31.22498063
-77.35737407
-142.1620106
-231.9250807
-361.6320612
-507.8120135
-667.1404589
-866.0503344
-1129.961597
-1464.160393
-1852.187744
-2205.141231
-2579.283767
-2989.781771
-3386.405754
-3722.046136
-3943.872902
-4029.54168
-3986.042523
-3805.684548
-3482.288875
-2991.085978
-2407.014284
-1959.716023
-1469.208869
-1015.706382
-655.168658
-405.5766329
-227.5029814
-136.3767709
-79.98885195
-47.21976655
-29.37036445
-21.30461772
-18.88504463
-16.38473165
-15.27613542
-14.96988219
-14.69775288
-14.19546607
-13.54853933
-12.99122825
-12.64197287
-12.43420834
-12.38736054
-12.25291996
-11.87694582
-11.37103234
-11.16182897
-11.31102323
-11.16831836
-10.94112894
-10.85598351
-10.91608299
-11.06267162
-10.73371039
-10.46860493
-10.52589522
-10.46195158
-10.30503895
-10.36073096
-10.40964198
-10.36518379
-8.095896511
-10.94482749
-11.09338651
-11.19246075
-11.57853114
-12.3231138
-12.84749289
-51.5553529
-422979.6575
)


100
(
-6.526969965
-3.181492586
1.949629979
7.333801516
11.83321381
14.44999823
15.41160865
15.65323949
15.44600737
16.73639787
18.54285849
20.87462511
25.89916651
31.18364593
36.18345899
42.41159049
50.12934299
56.01794409
59.38574935
62.09477789
66.41375955
66.20484602
60.05821584
47.64494091
33.21963026
12.51318845
-20.67717415
-70.13693584
-139.4742915
-230.0093132
-331.7091447
-465.5259865
-640.0980624
-881.1987471
-1186.41241
-1468.126038
-1789.967624
-2187.570842
-2638.863866
-3107.834354
-3544.477852
-3866.38916
-4098.276264
-4204.345277
-4160.312563
-3924.493151
-3455.176599
-3036.935817
-2524.091602
-1943.279472
-1376.042759
-895.5836054
-550.1007377
-342.1784376
-197.3965219
-110.4504028
-60.51669874
-33.78753884
-25.39931935
-20.55426756
-16.50657505
-14.35653084
-13.09037988
-12.60248424
-12.23473293
-12.04552254
-11.75652533
-11.37138478
-10.96283231
-10.66091689
-10.61904805
-10.59767853
-10.34525896
-9.952228623
-9.621261727
-9.492983508
-9.462633617
-9.427037057
-9.145580516
-8.925040977
-9.119133361
-9.193755059
-9.073667771
-8.705880587
-8.569640304
-8.503869657
-8.434510491
-8.406219337
-8.427455028
-8.458988851
-8.358486225
-7.75821405
-8.956270727
-8.66738645
-9.146262431
-9.39501064
-10.00935712
-10.6210753
-49.90894178
-555072.0232
)


100
(
-5.858778031
-2.823168517
2.293722812
7.684136584
12.05381417
14.50359967
15.18001221
15.2786882
15.21404737
15.74733433
18.23356073
20.95300926
24.32432314
30.55453816
36.35307156
41.15874397
46.74009784
53.67036539
57.70194056
57.6994467
53.88613268
51.96013914
42.32505226
22.8244428
-8.962134157
-55.42611637
-106.7775786
-179.6670353
-280.4216179
-416.9738386
-617.4364379
-817.3044271
-1057.767425
-1352.387615
-1735.426027
-2181.59432
-2645.752391
-3049.679796
-3486.477163
-3893.154999
-4201.812788
-4357.379837
-4284.985305
-4101.721099
-3742.584842
-3268.838803
-2621.880545
-1935.085234
-1332.28894
-944.2176606
-575.4306617
-325.1171522
-178.0694447
-90.48030119
-49.45841162
-32.56543198
-23.84253693
-17.97352833
-14.53058654
-12.60812214
-12.12190952
-11.22857175
-10.89949332
-10.67382987
-10.35693977
-9.909002337
-9.472830279
-9.19069132
-9.050932834
-8.959942559
-8.896654072
-8.776619067
-8.532465558
-8.207733723
-8.027962231
-8.008832397
-7.936249102
-7.704290954
-7.57126664
-7.587080584
-7.665884148
-7.542120997
-7.26285357
-7.145404221
-7.04112672
-6.973252859
-6.95363949
-6.964481106
-7.106982092
-6.918663404
-6.986918018
-6.865437676
-6.988341742
-7.290068497
-7.342199148
-7.638959044
-8.143502206
-8.6739004
-66.14226563
-721796.607
)


100
(
-5.395064534
-2.546716529
2.470894569
7.816482004
11.96091324
14.19513999
14.84691577
14.41469399
14.6072514
15.17007655
17.06056842
20.54129952
24.0458996
28.13442176
34.83690754
40.46327934
44.06077111
47.2330886
51.55986406
51.37301965
44.18978762
29.22994949
10.86462378
-17.43514725
-62.49838612
-129.7397687
-224.6898326
-345.2127408
-487.3537537
-673.2001346
-916.5374622
-1248.067106
-1626.019516
-1993.103317
-2412.333214
-2903.254664
-3409.203143
-3874.205973
-4222.784852
-4438.484421
-4490.959989
-4346.810702
-4019.355547
-3410.22402
-2769.437189
-2199.727169
-1623.347753
-1054.520972
-624.752873
-335.4699773
-177.3617674
-97.15864398
-52.06899465
-31.35848947
-20.57312946
-15.33451367
-14.51729558
-12.90753212
-11.16196199
-10.1235236
-9.450597936
-9.229606108
-8.944111465
-8.637746263
-8.354401881
-8.079505284
-7.860594254
-7.709667624
-7.682110974
-7.627030759
-7.427620068
-7.18104507
-7.001543777
-6.936071014
-6.889049598
-6.795685592
-6.598055949
-6.329523071
-6.280436275
-6.402323618
-6.363160055
-6.201460007
-5.980027899
-5.855426701
-5.805258684
-5.831578767
-5.838176762
-5.738615132
-5.758100544
-5.700841943
-5.847042499
-5.734067416
-6.109076978
-5.809193981
-5.996684355
-6.279794522
-6.689235296
-7.065579897
-82.77457165
-929793.8016
)


100
(
-5.144974833
-2.33282054
2.531075963
7.690943041
11.60548831
13.54891102
14.1707442
13.70401907
13.52329824
14.36602547
15.87622615
19.09190585
23.29908417
27.06484926
31.1460144
37.49315879
41.74455962
42.52361194
40.10206612
38.41721386
28.6691099
7.647873674
-27.90978375
-79.26647718
-142.268521
-232.2510792
-358.1956168
-532.5220983
-777.2283931
-1024.116057
-1329.241856
-1707.715387
-2181.198633
-2710.442783
-3205.116955
-3661.975837
-4099.392946
-4436.42704
-4603.130571
-4538.755365
-4256.637902
-3833.154055
-3253.980474
-2585.622512
-1836.886042
-1181.537006
-762.1376522
-454.2294922
-234.7287933
-115.2993333
-57.58931399
-28.76913032
-20.55205482
-16.60118083
-14.40218951
-12.0562549
-10.11991342
-9.259571848
-8.763831093
-8.242913311
-8.013755364
-7.803059159
-7.511499306
-7.125257617
-6.785938473
-6.641006049
-6.595237315
-6.565896235
-6.501810809
-6.360812829
-6.194015824
-6.006043554
-5.872320082
-5.845170174
-5.763475196
-5.620257028
-5.48607532
-5.47479223
-5.443634303
-5.340983657
-5.121856415
-5.002519374
-4.926124726
-4.823893565
-4.684361762
-4.721650777
-4.723676085
-4.804585105
-4.755951512
-4.702258328
-4.638220917
-4.651567692
-4.547951433
-4.855437983
-4.880559478
-5.186327857
-5.532422842
-5.822887425
-101.323781
-1196554.578
)


100
(
-4.583643271
-2.167991316
2.489160823
7.33754468
11.06366875
12.88447149
13.16239158
12.81518028
12.28906783
13.15048933
14.8225217
17.06348352
21.29851489
25.76905538
29.06703663
31.89898908
36.49864267
37.3717308
32.17596341
19.93135898
3.849396898
-23.84230945
-70.20154858
-141.6583696
-245.5684899
-374.4615966
-538.2786457
-755.5859701
-1045.443725
-1434.21624
-1853.773466
-2287.600833
-2784.33569
-3336.618746
-3875.919899
-4322.769571
-4604.99028
-4710.058359
-4603.764676
-4271.201475
-3703.756707
-2888.905058
-2252.450175
-1628.500422
-1062.611961
-608.133784
-312.6033526
-147.8011887
-76.32141081
-39.12133497
-22.82871981
-17.1128818
-13.00869646
-11.05684475
-10.8204398
-9.312133152
-8.185931107
-7.426357656
-7.032390406
-6.826801107
-6.5748586
-6.311233393
-6.066072647
-5.843878382
-5.696788232
-5.589371964
-5.581629328
-5.541057876
-5.36343346
-5.18909736
-5.102282871
-5.075378246
-5.111884468
-5.021840133
-4.869575188
-4.686185125
-4.559805146
-4.550802136
-4.5978943
-4.528238115
-4.322469681
-4.219316309
-4.123832841
-4.056205772
-4.094350113
-4.072237547
-3.967885584
-3.877113933
-3.876756635
-3.798623791
-3.937359976
-3.981558747
-4.117934921
-3.885612912
-3.982164736
-4.230048877
-4.571367894
-4.800460828
-97.97437428
-1524749.444
)


100
(
-4.12370106
-2.047321059
2.295652286
6.853776276
10.333248
12.00875015
12.03277426
11.65656804
11.27326919
11.40235616
13.36799847
15.6287841
18.22361197
22.8682466
26.90470094
28.58996181
28.10707984
28.18276667
21.8124454
5.235943626
-24.76585105
-68.79870493
-128.6425948
-218.1074127
-346.7881565
-529.0643684
-774.1765233
-1045.513768
-1385.767212
-1815.189984
-2345.99914
-2933.423265
-3452.657958
-3955.870726
-4405.452023
-4707.344576
-4789.903382
-4555.987526
-4191.070373
-3617.341149
-2933.558322
-2151.533697
-1395.111935
-816.7190782
-500.8142181
-258.9880456
-120.4374825
-55.64079763
-28.30277388
-15.9644772
-13.97247713
-12.21143813
-10.9275933
-9.15586125
-7.476444364
-7.086398846
-6.459788855
-6.082724436
-5.906135912
-5.738009348
-5.475696373
-5.133911793
-4.87425456
-4.787328355
-4.769242158
-4.767492303
-4.747047104
-4.628861004
-4.497926472
-4.349988059
-4.24849378
-4.253210015
-4.173774287
-4.106456233
-4.034521608
-4.02416469
-4.046949007
-3.979875619
-3.790624194
-3.616869287
-3.595113908
-3.554817899
-3.449047657
-3.347212689
-3.294356593
-3.274400199
-3.324300718
-3.29377148
-3.222308852
-3.220720501
-3.20899327
-3.071554936
-3.04415118
-3.385414056
-3.241759541
-3.397194734
-3.716632802
-3.906927775
-78.47234382
-1920583.872
)


100
(
-3.771009014
-1.963516485
2.048476178
6.299436166
9.514749463
10.98409853
10.99807448
10.22535551
10.01345003
10.1751406
11.24974195
13.80791287
16.23713715
18.61256321
22.67106458
25.01497935