/*--------------------------------*- C++ -*----------------------------------*\
| =========                 |                                                 |
| \\      /  F ield         | OpenFOAM: The Open Source CFD Toolbox           |
|  \\    /   O peration     | Version:  2.3.1                                 |
|   \\  /    A nd           | Web:      www.OpenFOAM.org                      |
|    \\/     M anipulation  |                                                 |
\*---------------------------------------------------------------------------*/
FoamFile
{
    version     2.0;
    format      ascii;
    class       dictionary;
    location    "constant";
    object      rho;
}
// * * * * * * * * * * * * * * * * * * * * * * * * * * * * * * * * * * * * * //

rho_table
100
(

100
(
0.9863122249
0.9865442352
0.9875943532
0.9871842826
0.9859970788
0.9875589306
0.987191547
0.9877408364
0.9878000392
0.990721673
0.9902509254
0.9946274257
0.995142886
0.994248211
0.9970328845
0.9963991449
0.9934395991
0.995708153
0.9953236952
0.9925601818
0.9938789513
0.9952756215
0.9947888374
0.9941746752
0.9963882203
0.9968116853
0.9954433507
0.9956851955
0.998715072
1.000075665
0.9998240648
1.00111663
1.002702214
1.002728532
1.001159309
1.000753345
1.004380437
1.006312307
1.006605761
1.007348622
1.010844099
1.012728611
1.012961198
1.013109247
1.014691513
1.014706945
1.013170421
1.010571108
1.014049459
1.016027796
1.016654175
1.017079237
1.020851346
1.023365115
1.024531509
1.025751711
1.027521458
1.027834341
1.026652635
1.026372597
1.028528975
1.029147452
1.02813332
1.028661617
1.030843358
1.031345796
1.030066435
1.032338738
1.034068473
1.033954169
1.034293957
1.03685364
1.037484738
1.037109504
1.040047884
1.040925169
1.040963422
1.043754783
1.044292116
1.045591047
1.047452334
1.047124303
1.049745443
1.049536929
1.05152936
1.051168983
1.052757571
1.052317136
1.052766057
1.052546801
1.051397525
1.049840491
1.048202532
1.046332442
1.0442628
1.041442328
1.039947874
1.039806219
1.042235927
1.076098747
)


100
(
0.9872242847
0.9823129345
0.9794812296
0.9746903146
0.9716220122
0.9714365097
0.9656860974
0.9668265805
0.9629845747
0.9646464795
0.9641474456
0.9635324633
0.9646497209
0.9620652503
0.9603303611
0.9603226668
0.9572584403
0.9526910773
0.9529577039
0.9509944881
0.9471296814
0.9462996824
0.9464907622
0.9449394163
0.9416327027
0.9426561045
0.9420642348
0.9399129424
0.9362683904
0.9378923439
0.9382815698
0.9372514707
0.9348556675
0.9355431413
0.9347941651
0.932677734
0.9292685584
0.9279777781
0.9287364405
0.9281267512
0.9261299298
0.9243145042
0.925010646
0.9243862838
0.9224430429
0.9195806497
0.9188900219
0.9169992467
0.9140034173
0.9099800721
0.9080211759
0.9079475847
0.9069346918
0.9049220835
0.9037740494
0.9040839266
0.9033407024
0.9014958743
0.8997700892
0.8985039188
0.897642178
0.8920526871
0.8879240412
0.8883230415
0.8873180888
0.8801439135
0.8756723191
0.8779709075
0.8727986141
0.8661479788
0.8639069922
0.8635385091
0.8547889807
0.8502317734
0.852372624
0.8471043553
0.8367546056
0.8378216466
0.8328493563
0.8215820713
0.8224436325
0.812495949
0.8059301465
0.8051870409
0.7894500807
0.7877898482
0.7795494453
0.7688716185
0.7656067847
0.7531989925
0.7481082998
0.7384836731
0.7342993726
0.7263826484
0.7236503828
0.7170487531
0.7169463572
0.727693394
0.7808039478
0.8380813042
)


100
(
0.9877426659
0.9767719374
0.970238047
0.9613549078
0.9588473281
0.9539825774
0.9491213955
0.9445561571
0.94148837
0.9371392689
0.9373110239
0.9337014321
0.932622648
0.9307420018
0.9257123179
0.9228163726
0.9204963615
0.9157028808
0.909613369
0.9083041445
0.9052762357
0.9007296608
0.8976416538
0.8966857228
0.8942419063
0.8903783387
0.888459477
0.8869547798
0.8841623319
0.8801831326
0.8776253835
0.8771075692
0.8754518658
0.8726477734
0.8698046451
0.8683790943
0.8657947337
0.8621300895
0.8574357982
0.8546995858
0.8533225455
0.850892335
0.8474179915
0.843314545
0.842038016
0.8397931699
0.8365942487
0.8325165089
0.8293587039
0.8263895093
0.822649464
0.8182505447
0.8134113339
0.8118982584
0.8102018316
0.8077749158
0.8023644379
0.8013738059
0.7997244649
0.7972877014
0.7920800433
0.7909798108
0.7854623454
0.7800171832
0.7774175605
0.7750287548
0.7678570234
0.7609280515
0.7594716805
0.7535174956
0.7460063394
0.7390210896
0.7354144234
0.7287122762
0.721454888
0.7177633918
0.7160880693
0.7080072524
0.6991169972
0.694765304
0.6874381791
0.6824736943
0.6731825178
0.6707979965
0.6631986657
0.6545263118
0.6499451835
0.6421169979
0.6348533033
0.6293378602
0.6234904761
0.6176838396
0.6124644097
0.6093459737
0.6043385836
0.6016745385
0.6028193404
0.6249856275
0.6641083241
0.7071237395
)


100
(
0.9878771735
0.9714654632
0.9603902568
0.9524022684
0.9455969427
0.9357919935
0.9316746807
0.9221337917
0.9192020733
0.91320016
0.9098115464
0.9068556963
0.9007334302
0.8989108446
0.8946224441
0.8877865877
0.8836186795
0.8795429892
0.8735787753
0.8661366034
0.8636975906
0.8598847863
0.8548089408
0.8495936478
0.8476817223
0.8445257275
0.8402126473
0.8357539092
0.8335415558
0.8302585248
0.8260174249
0.8208895669
0.818815457
0.8166189824
0.8134777723
0.8094105771
0.8058777557
0.8029337371
0.7990691434
0.794373121
0.7889251439
0.7849015357
0.7824515161
0.7792705346
0.7753861528
0.7697334645
0.7674358532
0.7645362374
0.7609943374
0.7538981208
0.7511608535
0.7478938062
0.7441402531
0.7375408214
0.7346178184
0.7327333484
0.729317312
0.7213705751
0.7176638158
0.7158358344
0.7110984122
0.7047013649
0.7017782101
0.6970694285
0.6917357322
0.6868348948
0.6827684309
0.6768482454
0.6704394974
0.6644761418
0.6600436553
0.6551680353
0.6498637024
0.6436327237
0.6373726543
0.6326629845
0.6291330217
0.6212813842
0.6139626098
0.611347505
0.6048473436
0.5976296338
0.5929777298
0.5865671259
0.5800911291
0.574192602
0.5691075824
0.5638478432
0.558608735
0.5537431628
0.548884045
0.5442637909
0.5403585998
0.5358558208
0.5330431424
0.5309841291
0.5323288861
0.5579354336
0.5872226258
0.6211111143
)


100
(
0.9876385463
0.9693402431
0.9547716075
0.9428787964
0.9316199287
0.9221961328
0.913745248
0.9048950643
0.8966076907
0.8912648108
0.8829615072
0.8799366529
0.8745329176
0.8674846583
0.863764648
0.8576972341
0.8496242845
0.8441974286
0.838929795
0.8322676515
0.8244786392
0.8204235001
0.8160091238
0.810550226
0.8041013132
0.8008033537
0.7971140444
0.7924848761
0.7869834012
0.7832209171
0.7795993113
0.7752005393
0.770115731
0.7649042374
0.7625270488
0.759409731
0.7555833578
0.7495028332
0.7463894641
0.7425889811
0.738154159
0.7327899454
0.7270800827
0.7243663893
0.7211047726
0.7159944531
0.7077064091
0.7052596568
0.7023629264
0.6972431405
0.6894899392
0.6860774739
0.6830424564
0.6779518951
0.6715903099
0.6681158505
0.6654871305
0.6590641425
0.652227911
0.6471747219
0.6433757862
0.6383456089
0.6329786479
0.6284796022
0.6247601323
0.6206688011
0.6161803578
0.6107715352
0.6062215752
0.6015121105
0.5965017714
0.5912005289
0.5860595594
0.582153222
0.5779447537
0.5712948518
0.5646381871
0.5603555842
0.5552087386
0.549091967
0.5429444407
0.5376462054
0.533364926
0.5285815727
0.523481209
0.5188499399
0.5135251992
0.5089006022
0.5047135457
0.5013749501
0.4966768689
0.4920881631
0.4890168798
0.4851210393
0.4825138579
0.4808292397
0.4842785473
0.5081786767
0.5322757008
0.559917478
)


100
(
0.9870364451
0.9663199519
0.9485900289
0.9330320394
0.9179246725
0.9086276398
0.8956813063
0.887538847
0.8761005858
0.8694822871
0.861870128
0.8536151188
0.8487904145
0.841570831
0.8339345254
0.828492754
0.8212063366
0.8123828423
0.8058354272
0.7998635642
0.7928835959
0.7850293929
0.779425889
0.774601648
0.768904056
0.762404387
0.7570404965
0.7529895821
0.7484828873
0.7433466582
0.7377076855
0.7340773208
0.7298360349
0.72507989
0.7183214122
0.7156033867
0.7122994309
0.708447498
0.6996928086
0.6962550244
0.6924508123
0.6881807471
0.6810449832
0.6757168089
0.6729250796
0.6695092211
0.6616693796
0.6535329842
0.6510784922
0.6474431195
0.6409348087
0.634135591
0.6301550844
0.6260848514
0.620785414
0.6152279587
0.6107385533
0.6056680218
0.600981277
0.5960543265
0.5906983306
0.5858280745
0.5820145271
0.5779658407
0.5732002901
0.5679857692
0.5635670214
0.559567162
0.5549495019
0.5500865792
0.5451055005
0.5409821293
0.536911421
0.5326471397
0.5276971494
0.5236569758
0.5184583831
0.513018715
0.5076124626
0.5030096313
0.4990553228
0.4944753323
0.4889339228
0.4846935984
0.4801962406
0.4759525165
0.4720142804
0.4681651243
0.4642718164
0.4602190158
0.4567082483
0.4531305276
0.4498469223
0.4466561388
0.4440309964
0.4429367029
0.4501828263
0.4699690542
0.4901861143
0.5131823487
)


100
(
0.9872929033
0.962964464
0.9421233694
0.9227451805
0.9083226677
0.8950919383
0.8817364676
0.8703934735
0.8596308182
0.8482553393
0.8413040705
0.8320633402
0.8240576378
0.8174948065
0.8090052783
0.800781034
0.7941741042
0.7861502355
0.7769867781
0.7695101968
0.7632260385
0.7561452964
0.7483550365
0.7413528082
0.7362219441
0.7303344883
0.7237903297
0.718544695
0.7145238373
0.7099462436
0.704092315
0.6972570577
0.6935299044
0.6893041796
0.6835970555
0.6764521254
0.6735700903
0.6701871795
0.6641338586
0.6556385063
0.6519119262
0.6481975864
0.6427727098
0.6357400944
0.6306953776
0.6279211319
0.6217654712
0.61469122
0.6074481111
0.604190919
0.5986670157
0.5929124836
0.587029331
0.5821032497
0.5781391887
0.5739681641
0.5695833812
0.5647043452
0.5599915039
0.5558492261
0.5514784212
0.546579496
0.5413269117
0.5359888254
0.5319776241
0.5276762867
0.5231570437
0.5187461158
0.5140160669
0.5101336081
0.5063417844
0.5021543857
0.4974268578
0.4932394093
0.4892193112
0.4848607757
0.4807255347
0.4763399974
0.4723637692
0.4680549668
0.463400881
0.4592836284
0.4550225346
0.4508275143
0.4468135818
0.4428917092
0.4390190834
0.4356582397
0.4324278523
0.4287464047
0.4252069473
0.4222031911
0.4191346845
0.4163036971
0.4138653482
0.4126113334
0.4219790688
0.4386296998
0.4557208245
0.4751316635
)


100
(
0.988003439
0.9588868933
0.9351161103
0.9147497661
0.898686064
0.8814777539
0.8688336805
0.853500801
0.8434366352
0.8313414093
0.8213109112
0.8127634266
0.80236829
0.7943996156
0.7866161562
0.777319923
0.768551121
0.7612349751
0.7528633573
0.7436798201
0.7353980792
0.7288911462
0.7216993703
0.7139265183
0.7057506667
0.700529482
0.6946676036
0.68825339
0.6834301017
0.6793038208
0.6747697629
0.6666990881
0.6605409806
0.6568003081
0.6526788936
0.645285884
0.6387440519
0.6357856057
0.6318428396
0.6243546531
0.6165429328
0.6125561257
0.6084971803
0.6023219382
0.5959120965
0.5910415452
0.5863446364
0.5802157673
0.5739261553
0.5679125226
0.5629204602
0.5586112631
0.5541326316
0.549502104
0.5442367668
0.5388610774
0.535042386
0.5310923082
0.5266873245
0.5220190075
0.5172160774
0.5132403051
0.5087775781
0.5041674683
0.4996618322
0.4950573902
0.4907143795
0.4870537652
0.4832655552
0.478593283
0.4738069681
0.4698231603
0.4658642826
0.4620677945
0.4582372374
0.4542892759
0.4508603546
0.4467909802
0.4424039427
0.4385024717
0.4347572411
0.4309945119
0.4272237134
0.4234632983
0.4196977175
0.4159358633
0.412461813
0.4092116607
0.4062642574
0.4028541911
0.399518439
0.3966984725
0.3938998159
0.391310691
0.3890472703
0.3880957908
0.3984237155
0.4123330796
0.4269310521
0.4433864218
)


100
(
0.9883822995
0.9554842474
0.9296367119
0.9080706714
0.8888537952
0.8709101163
0.8559406028
0.8408314113
0.8273844512
0.8159840059
0.8029847739
0.7938680444
0.7841900013
0.773055762
0.7649597737
0.7563860282
0.746654723
0.737406362
0.7296523685
0.7210608926
0.7119079229
0.7028644172
0.6963608962
0.6892766339
0.6817289155
0.6734653384
0.6673867642
0.6616179014
0.6553760709
0.6508874123
0.6467499347
0.6413562408
0.6325391652
0.6268766913
0.6231843693
0.6178275798
0.6105158653
0.6044357516
0.6014776881
0.5955035262
0.5885670027
0.5814171084
0.5772336163
0.5719054481
0.5662618724
0.5604409199
0.5549891592
0.5502568077
0.5453156452
0.5402290643
0.5350697927
0.5295475991
0.5247054005
0.5206395887
0.5164330673
0.5115429343
0.5065079763
0.5014235053
0.4973426786
0.4933205908
0.4891983039
0.4851591437
0.4808234013
0.4765678426
0.4726680987
0.468696476
0.4643492905
0.4598624232
0.4557996441
0.4519895631
0.4479021808
0.4439968978
0.4398118397
0.4362783966
0.4330406858
0.4290406864
0.424928741
0.4213246417
0.4178018482
0.4142669416
0.4107475469
0.4072562731
0.4037699171
0.4002601202
0.3969294251
0.393722585
0.3904990365
0.3873432136
0.3842677632
0.3813472859
0.3785144629
0.3757946299
0.3730504474
0.370493956
0.3686278749
0.3680140189
0.3784428625
0.3901825414
0.4028048554
0.4170604831
)


100
(
0.9884399411
0.9538849558
0.9255208345
0.9013176438
0.8787025229
0.8613632134
0.842880572
0.8284838689
0.8123441613
0.8006621382
0.7883580727
0.7752643844
0.7662267261
0.7558255228
0.7442916311
0.7359653021
0.7268724346
0.7168415762
0.7069502015
0.6990701707
0.6906346681
0.681787604
0.6721822706
0.6656838315
0.6587598854
0.6514598915
0.6435129005
0.6363453083
0.6307229107
0.6246959176
0.6204936997
0.6164498167
0.609211102
0.6010074183
0.5957242368
0.5919885078
0.5854010409
0.5786049108
0.5728938316
0.5685853528
0.562391463
0.556018739
0.549538201
0.5443674516
0.5397897546
0.5350339134
0.5301286167
0.5247241929
0.5191888276
0.5146903203
0.5100703301
0.5053135921
0.5003197402
0.4952882327
0.4905653081
0.4866217427
0.4821650747
0.4776432202
0.4731886912
0.4686632689
0.4644847835
0.4609307742
0.457302365
0.4531082002
0.4486766472
0.4446549746
0.440965391
0.4370143013
0.4331841841
0.429239869
0.4252933126
0.4218320045
0.4181845432
0.414190361
0.4103282393
0.4069349375
0.4035015267
0.4000838568
0.3967327415
0.393419115
0.3901073156
0.3867682502
0.3836620287
0.3806406176
0.3775991679
0.374561108
0.3714664061
0.3683462737
0.3655763918
0.3627739321
0.3601180205
0.3574522896
0.3550002635
0.3527176246
0.3510742203
0.3512270719
0.361578797
0.3716026689
0.3826383131
0.3951174357
)


100
(
0.9881868885
0.9518033351
0.9212016281
0.8941321882
0.8712101275
0.8516870941
0.8322864194
0.8160053936
0.8004967635
0.7853459287
0.773681714
0.7608292748
0.7484742094
0.7387153113
0.7278835769
0.7159645912
0.7072821459
0.697955647
0.6880110102
0.6777143994
0.6699421112
0.6617366288
0.6531938988
0.6439707577
0.6366485528
0.6299216412
0.6228800858
0.6152773837
0.6074590936
0.6017195961
0.5959574804
0.5920275256
0.5868237233
0.5793624706
0.5717394229
0.5667700683
0.5615988624
0.5554544611
0.5491456399
0.5433422547
0.538173024
0.5329775456
0.5276297312
0.5221815381
0.5162580693
0.5113867143
0.5069652811
0.5024221915
0.4973679982
0.492098577
0.4867738538
0.4825712334
0.4781916631
0.473657653
0.4691107581
0.4645805892
0.4598722066
0.4559541204
0.4519846604
0.4479834836
0.4436667806
0.4392496051
0.4354609592
0.431961158
0.4280347659
0.424102012
0.4203759176
0.4166170293
0.4133077705
0.4099247808
0.4058389263
0.4017219035
0.3983532234
0.3948338633
0.3913534632
0.3879147121
0.3846382401
0.3814158891
0.3782227896
0.3750764132
0.3720782081
0.3691113557
0.366186989
0.3633117264
0.3603928519
0.3574767295
0.354819965
0.3520142949
0.3492607211
0.3466317304
0.3439993517
0.3415161649
0.3390692439
0.3370425038
0.3352654587
0.3373534634
0.3474028598
0.3558642988
0.365771494
0.3767722778
)


100
(
0.9883365699
0.9494933166
0.9165535724
0.8871406902
0.8642968195
0.8417932181
0.8229900761
0.8035014873
0.7886376029
0.7728668499
0.7591483032
0.7469322184
0.7338168426
0.7218635682
0.7115747432
0.7004833185
0.6884371899
0.6796034998
0.6703237217
0.6606190221
0.6500591457
0.6424342391
0.6344961187
0.6262215303
0.6174476802
0.6093731985
0.6028826461
0.5960872199
0.5888668344
0.5814880725
0.5747176401
0.5692006965
0.5655586074
0.5588068693
0.5518434909
0.5447714911
0.5392919429
0.5338151688
0.5285339366
0.5231096178
0.5172734817
0.5119952316
0.5071458993
0.5021620457
0.4970431889
0.4915284081
0.4859822485
0.4813978874
0.4771867784
0.4724338094
0.4676256929
0.4627991702
0.4579932363
0.45379015
0.4497784865
0.4457341361
0.4416528592
0.4369915
0.4324610116
0.4288357618
0.4250873452
0.4210648725
0.4170582939
0.4131558482
0.409521449
0.4062061346
0.4028920191
0.3990933616
0.3951528462
0.3921026518
0.3885193749
0.3848815374
0.3813413942
0.3779303961
0.3746024182
0.3712846205
0.3681028518
0.3651337767
0.3621880301
0.3592850681
0.3563892826
0.3535191241
0.3506515787
0.3478238996
0.3452218051
0.3426109474
0.3400506114
0.3372790658
0.334808676
0.3321940984
0.3296830243
0.3272372395
0.3249180095
0.3229601064
0.3213241217
0.3254430275
0.3349298945
0.3421398523
0.3511233416
0.361090634
)


100
(
0.9890037012
0.946743894
0.9116316377
0.8827038988
0.8574143908
0.8335145287
0.8137571131
0.7942001404
0.7769171766
0.7617618548
0.7459689238
0.7333518114
0.7207901239
0.7074910567
0.6957841395
0.6853369101
0.6743112201
0.6623816259
0.6533513005
0.6442827364
0.634840392
0.6248092033
0.6167084987
0.6090656464
0.6010926962
0.5927666817
0.5843085194
0.5777867094
0.5712739893
0.5644267903
0.5574759964
0.5504181342
0.5446737293
0.5396313512
0.5332193506
0.5269372455
0.5208888235
0.5147566431
0.5099265381
0.5049473891
0.4998536349
0.4943236781
0.4885247081
0.4836542473
0.4790202208
0.4741706569
0.4690666157
0.4639471684
0.4588199493
0.4543638643
0.4500590741
0.4458416276
0.4416212069
0.437200263
0.4323055743
0.4284839869
0.4247661621
0.4207657263
0.4165063687
0.4122459895
0.4081138557
0.4046437973
0.4012311397
0.3978198953
0.3940117563
0.3900104322
0.3869517101
0.3836267167
0.3800435958
0.3764988995
0.3730471076
0.3697749073
0.3666008712
0.3634382825
0.3603418008
0.3573254809
0.3541819802
0.3510897917
0.348157462
0.3452923269
0.3425085755
0.3398307031
0.3371757159
0.3345297506
0.3319443338
0.3293134944
0.3269219722
0.3244953264
0.3219557797
0.3194258693
0.316942792
0.3146608385
0.3124828857
0.3105763699
0.3095644057
0.3149835765
0.3231295992
0.3299052176
0.3379573835
0.3468188184
)


100
(
0.9893920836
0.9448109432
0.90874131
0.8782241761
0.8504064617
0.8270381938
0.8045957233
0.7856577282
0.7662240826
0.7509304185
0.7357629486
0.7201251294
0.7081258367
0.6954856251
0.6822523443
0.6708318361
0.6604270199
0.6496304433
0.6379904319
0.628758569
0.6200194641
0.610913004
0.6013991551
0.5928403081
0.5855170357
0.577871896
0.5699812754
0.5620013403
0.5546778201
0.5484773599
0.5420034863
0.5354598864
0.5288563526
0.5221251949
0.5166751575
0.5111393114
0.5055155774
0.4998454753
0.4937056261
0.4882125124
0.4835231672
0.4787350427
0.4734981484
0.4681183344
0.4626978193
0.4581066328
0.4535512624
0.4488342528
0.4441429806
0.4395473608
0.4347197748
0.4305461023
0.4266815425
0.4227921733
0.4184598036
0.4139476326
0.409456626
0.4059747991
0.4021148939
0.3983222663
0.3947197011
0.3908257331
0.3870995454
0.3839466918
0.3806420793
0.3768722682
0.3731169247
0.3697139678
0.366456831
0.3632405678
0.3600430608
0.3568854199
0.3538438546
0.3508426962
0.3478334473
0.3447268922
0.3416674739
0.3388147771
0.3360430437
0.3333927185
0.3306788772
0.328015019
0.3253300596
0.3227368501
0.3203337862
0.3179734909
0.3155379014
0.3130636634
0.3106036482
0.3083480211
0.3059951889
0.3038171538
0.3016537884
0.2999593574
0.2994267508
0.3052405175
0.3123386987
0.3184654113
0.3257544302
0.3339661941
)


100
(
0.9895115836
0.9437391471
0.9060337329
0.8736725718
0.8448025568
0.8206527529
0.7971056705
0.7772316059
0.7583676285
0.7403186342
0.7257405074
0.7106312176
0.6958315331
0.6838008814
0.6713204944
0.6582419899
0.6470719242
0.6368629945
0.6263180726
0.615191799
0.6057583448
0.5973878938
0.5886475549
0.5796404809
0.5706338487
0.5636468636
0.5563533301
0.5488802726
0.5413611827
0.5338096636
0.5274656771
0.5213747174
0.5152244397
0.5090383809
0.5026386208
0.4963523272
0.4911449767
0.4858556949
0.4804953781
0.4747099794
0.4689055481
0.4639374815
0.4594439246
0.4544908204
0.4494886232
0.4444749512
0.4394691158
0.43496735
0.4307154193
0.4264550509
0.4222287721
0.4176060277
0.4129439017
0.4093246762
0.4056529322
0.4014828425
0.3973278453
0.3932303437
0.3892355873
0.3859212427
0.3826188647
0.3792688291
0.3753077918
0.3713725605
0.3683451788
0.3649381507
0.3615046043
0.3581173571
0.3548166702
0.3516603888
0.348527385
0.3454139813
0.3424264392
0.3395621903
0.3367019619
0.3338666801
0.3310444961
0.3282661065
0.3255234656
0.3227314475
0.3200002209
0.3175466568
0.3150994876
0.3126410605
0.3101690154
0.3076951658
0.3054065617
0.3031468538
0.3009719028
0.2986120193
0.2963926925
0.2942748852
0.2922099803
0.2903743309
0.2902523843
0.29611721
0.3024305962
0.3079582089
0.3144790548
0.3218359299
)


100
(
0.989372551
0.942455615
0.9032699512
0.8689097326
0.8404973812
0.8141576498
0.7911373139
0.7688147666
0.7505404784
0.732240296
0.7157601689
0.701253012
0.686466859
0.6723430803
0.6604471512
0.6482566468
0.6354870097
0.6244497897
0.6145497524
0.6043479546
0.5938103675
0.5841425645
0.5761462611
0.5677846078
0.5592604752
0.5507097574
0.5431920361
0.5362582453
0.5291920761
0.5221156775
0.5150461063
0.5079641506
0.5022379827
0.4964492694
0.4906265976
0.4845300574
0.4780943502
0.4726020194
0.4676260313
0.4625183394
0.4570961596
0.4516731256
0.4462474253
0.4416195823
0.4369887794
0.4324019384
0.4278575406
0.4232917336
0.4181965128
0.4141477189
0.410209168
0.4062012589
0.40186138
0.3975553102
0.393378706
0.3897806838
0.3860600915
0.3824280519
0.3788644979
0.3747739202
0.3713076181
0.3682441494
0.3647493448
0.3610859355
0.3574802498
0.3539957378
0.3507549762
0.3476329256
0.3445337847
0.3414707463
0.3385433272
0.335659446
0.3326357243
0.3296826909
0.326819363
0.323995427
0.3212136394
0.318618314
0.3159929916
0.3134255112
0.3108556849
0.3083702846
0.3058434274
0.3033837223
0.3011124879
0.2987724586
0.296466573
0.2942047138
0.2919913602
0.2899516372
0.2876771712
0.2856270978
0.2837138773
0.2820023948
0.2823468348
0.2877113163
0.2934516717
0.2984113042
0.3042866951
0.3108598103
)


100
(
0.9896474402
0.9409743346
0.9002460314
0.8655926936
0.8361586494
0.8083046778
0.7851082239
0.762601044
0.7426571009
0.7248835371
0.7071036298
0.6918720377
0.6776570385
0.6631832908
0.649671336
0.6380297696
0.6262227752
0.6138700599
0.6028863417
0.5933763733
0.583595727
0.5736378471
0.5637292012
0.5560758494
0.5481029598
0.5400369285
0.5319779578
0.5239359617
0.5173573218
0.5106974302
0.5040261588
0.4973842952
0.4904255932
0.484284328
0.4788300698
0.4733379564
0.4675245012
0.4615034812
0.455493313
0.4505378674
0.4456923846
0.4406047724
0.4355341658
0.4305145518
0.42545192
0.4209370792
0.4166966853
0.4124626515
0.4080663442
0.4033534642
0.3987143779
0.395072641
0.3912135748
0.3871894989
0.3832328849
0.379476496
0.3754951646
0.3721370212
0.3687994812
0.3652315138
0.3614300668
0.3577134865
0.3546906823
0.3513172972
0.3479659924
0.3446739705
0.3414539626
0.3383632867
0.3353113251
0.3323055753
0.3293080453
0.3262460706
0.3234380416
0.32067312
0.3179551853
0.3153095349
0.3126747183
0.3100513459
0.3073705543
0.3047209727
0.302319188
0.299959215
0.2976821631
0.2952326799
0.2928220057
0.2903568562
0.2881739365
0.286112512
0.2839838878
0.2818779502
0.2798021654
0.2775794439
0.2758530706
0.2742018437
0.2752656683
0.2801429087
0.2852348216
0.2898287527
0.2951760086
0.3011581304
)


100
(
0.9901342564
0.9392207868
0.8975178728
0.8627506783
0.8316111612
0.804177497
0.7789295015
0.756924096
0.7353384246
0.7174105358
0.7001584879
0.6828358476
0.6687940565
0.6549722967
0.6408346901
0.6278466401
0.6165499873
0.6050942533
0.5933351841
0.5823514711
0.5732819954
0.5639402191
0.5545266319
0.5451802126
0.5370563614
0.529473254
0.5218429799
0.5142507583
0.5067148985
0.4995106809
0.4932293039
0.4869438135
0.4806992649
0.4740989792
0.4674484179
0.4621994399
0.4570211347
0.4514728654
0.4458229027
0.4401928117
0.4345911115
0.4298702145
0.425199635
0.4205757319
0.4159873247
0.4110726798
0.4059140142
0.4019619503
0.3980153557
0.3937602254
0.3893872666
0.3850582441
0.3809008508
0.3772941801
0.3737514019
0.3702450761
0.3664876254
0.3624089328
0.3591046261
0.3559911061
0.3524239017
0.3489146489
0.3454463539
0.3420904835
0.3388305705
0.3357637911
0.3327231083
0.3297124901
0.3268543593
0.3239754083
0.3210178907
0.3181159153
0.315281659
0.3125004337
0.3097691935
0.3070042943
0.3044814557
0.3020441618
0.2995969146
0.2971203222
0.2946564923
0.2921452722
0.289852595
0.2876436988
0.2852680458
0.283013777
0.2808404475
0.2786941216
0.2766334223
0.2745269296
0.2725676449
0.2705618837
0.268695495
0.2672029113
0.268436163
0.2733260242
0.277923536
0.2820842949
0.2870154402
0.2924641706
)


100
(
0.990394677
0.9384855991
0.8959342767
0.859872072
0.82724052
0.7999758034
0.7736706614
0.7511738886
0.7300410265
0.7098906648
0.6931242557
0.6765322785
0.6599548184
0.6466191838
0.6332683921
0.6195721028
0.6069507936
0.5960670759
0.5850394915
0.573897036
0.562912591
0.5542531257
0.5453541609
0.5364534434
0.5276390016
0.5190608015
0.5118825508
0.5046918536
0.4975409455
0.4904557718
0.4828345841
0.4767548384
0.4708340767
0.4649457268
0.4586771203
0.452437366
0.4465058998
0.4416325615
0.4363499259
0.4310281701
0.425752023
0.4206317755
0.4152857159
0.4109533005
0.4066229289
0.4023170546
0.3975402208
0.3927154216
0.3881333261
0.3844514978
0.3803519069
0.376289107
0.3724987537
0.3685071245
0.3646291459
0.3613287497
0.3580672864
0.3542872393
0.3505079435
0.3469009024
0.3437494521
0.3404542129
0.3371972552
0.3339774743
0.3308330289
0.3278087897
0.3248247338
0.3218814766
0.3188807529
0.3158785425
0.3130713593
0.3103502106
0.3076708007
0.3050548287
0.3024043929
0.2997684732
0.2971724606
0.294631428
0.2921507282
0.2898122395
0.2874755723
0.2851687572
0.2828643833
0.2805036746
0.27826687
0.2761726204
0.2740028772
0.2718231232
0.2696721971
0.2677700543
0.2657409252
0.2638675562
0.2621697916
0.2606363031
0.2623744328
0.2671337341
0.2713031222
0.2751199083
0.2796596368
0.2846295372
)


100
(
0.9904390635
0.9377779491
0.8942498905
0.8568244909
0.8245458015
0.7956822994
0.7697571697
0.7453645019
0.7246723683
0.70454931
0.6860821378
0.6699556918
0.6540385909
0.6383213497
0.6254286482
0.6125934569
0.5994197419
0.5870486798
0.5766266527
0.5660833987
0.5555537706
0.5452012444
0.5362754156
0.5278135865
0.519394339
0.5110864977
0.5029134607
0.4953328444
0.4885342327
0.4817822768
0.4750337638
0.4678888248
0.4612271086
0.4556535829
0.4500626686
0.4441378814
0.438275267
0.4324629169
0.4271431948
0.4221482144
0.4172517818
0.4123952616
0.4076053867
0.4023200453
0.3975756824
0.3935148715
0.3893908476
0.384827236
0.3803208594
0.3758778695
0.3717145898
0.3681152624
0.3645584952
0.3610551436
0.3570078646
0.3528837542
0.3496933204
0.3464182844
0.3428646996
0.3393759614
0.3359488279
0.3326436102
0.3294096641
0.3262404554
0.3232420108
0.3202887466
0.3174869484
0.3145883478
0.3116973138
0.3088715923
0.3060992454
0.3033680974
0.3006874288
0.2979688572
0.2953045788
0.2928262348
0.290406623
0.2879965027
0.2856499601
0.283263474
0.2807547855
0.2785019428
0.2762544401
0.2739959716
0.2718176126
0.2696541385
0.2675260738
0.2655228925
0.2634779851
0.2615189904
0.259531474
0.257771657
0.2559774655
0.2547792844
0.2568176148
0.2613531966
0.2651726599
0.2687378405
0.2729184124
0.2775123857
)


100
(
0.9902780846
0.9369624265
0.8924572628
0.8541319497
0.8218052737
0.7914141306
0.7658150692
0.7412666097
0.7192743926
0.6995743988
0.6804485797
0.663389258
0.6479325496
0.6325794835
0.6176652885
0.6052649037
0.5928899869
0.580379541
0.5681733216
0.558245658
0.5482121279
0.5382722282
0.5285142328
0.5193067841
0.5112843223
0.5033557605
0.4955374499
0.4877525366
0.4797253915
0.4733144802
0.4669395704
0.4605150358
0.4538054969
0.4471823381
0.4413516981
0.4360351136
0.4304504815
0.4249285266
0.4195093527
0.4141074828
0.4090194788
0.40441644
0.3998457088
0.3952263842
0.3902604445
0.3853573397
0.3811992202
0.3771778712
0.372897884
0.3687648823
0.3648399981
0.3605290746
0.3569157595
0.3535926502
0.3501215045
0.3462228817
0.3423756968
0.3388086602
0.335521013
0.3322405366
0.3290055633
0.3258100266
0.3226889491
0.3196622594
0.3166806198
0.3137558463
0.3107314609
0.3077463393
0.3048216318
0.3021446934
0.2995197606
0.2969441267
0.2943431681
0.2917633611
0.2892009947
0.2866249496
0.2841019434
0.2816358828
0.2794169384
0.2772430788
0.2749124182
0.2725878194
0.2702762228
0.2681389777
0.2661213285
0.2639274286
0.2618292081
0.2597221767
0.257766396
0.2558145551
0.2539948092
0.2521846593
0.2505904231
0.2492974681
0.2516933202
0.2559288745
0.2594313067
0.2627634441
0.2666827535
0.2709694333
)


100
(
0.9908301222
0.9359938747
0.8905429067
0.8525004096
0.8189924622
0.7889145253
0.7618199379
0.7376435784
0.7145398465
0.6945781647
0.6759030753
0.6576046147
0.641807624
0.6270336333
0.6122960191
0.5979949132
0.5861179599
0.5742518099
0.5624001368
0.5508214775
0.5408929734
0.5313702118
0.5219788095
0.5127789263
0.5037787798
0.4957482004
0.4882461411
0.4808545804
0.4734413483
0.4657440293
0.4589505209
0.4529320177
0.4468230403
0.4405048877
0.4342779882
0.4281350731
0.4228049473
0.4175921312
0.4125002901
0.4074727331
0.4022682204
0.3967492748
0.3923149132
0.3880181872
0.3835443102
0.3788811816
0.3742850221
0.3697517527
0.3658072952
0.3620050198
0.3582540836
0.3545447825
0.3503103721
0.3463763422
0.3432752319
0.3397376388
0.3360904334
0.3325343389
0.3290665233
0.3257421937
0.3224847004
0.3192745384
0.3162809758
0.3133376442
0.3105199528
0.3075891944
0.304704312
0.3018672138
0.2990850651
0.2963621803
0.2936939188
0.2910275562
0.2882621424
0.2857796077
0.2833877252
0.2809690651
0.2785639416
0.2762411483
0.2738290379
0.2714358064
0.2692852465
0.2669951183
0.2648081196
0.2627452264
0.260574632
0.25847488
0.2565144348
0.2545719783
0.2525815575
0.2507166227
0.2488242758
0.247091388
0.2454911488
0.244494747
0.2469420782
0.250906936
0.2540724631
0.2571888689
0.2608174052
0.2647982085
)


100
(
0.9912002059
0.9353386032
0.8896019928
0.8508310222
0.816101624
0.7863611409
0.7582874891
0.7339883664
0.7112169097
0.6895748501
0.6712602871
0.6535792796
0.6361246935
0.6213101306
0.6072255235
0.5931360424
0.5793707874
0.5679620888
0.5566378303
0.545434857
0.5345233553
0.5244990267
0.5154737689
0.5066147341
0.4979658864
0.4894051576
0.4810539935
0.4739613521
0.4669694314
0.4599160902
0.4526736188
0.4455653469
0.4396836007
0.4338833441
0.4279162317
0.4220452516
0.4163162166
0.4104856268
0.4056297585
0.4008186448
0.3960687203
0.3910539232
0.3858734034
0.3808606038
0.3768275338
0.3725067209
0.368110217
0.3639260475
0.3598838843
0.3554024687
0.3518434755
0.3483361557