/*--------------------------------*- C++ -*----------------------------------*\
| =========                 |                                                 |
| \\      /  F ield         | OpenFOAM: The Open Source CFD Toolbox           |
|  \\    /   O peration     | Version:  2.3.1                                 |
|   \\  /    A nd           | Web:      www.OpenFOAM.org                      |
|    \\/     M anipulation  |                                                 |
\*---------------------------------------------------------------------------*/
FoamFile
{
    version     2.0;
    format      ascii;
    class       dictionary;
    location    "constant";
    object      rO2;
}
// * * * * * * * * * * * * * * * * * * * * * * * * * * * * * * * * * * * * * //

rO2_table
100
(

100
(
-6473.665091
-5958.555347
-5513.696706
-5122.595121
-4765.342945
-4497.226523
-4229.828515
-3996.656937
-3775.118219
-3604.340452
-3400.987679
-3285.882162
-3133.969398
-2976.730452
-2869.413076
-2734.47797
-2585.134877
-2489.215427
-2374.173562
-2243.981103
-2151.056304
-2060.900534
-1959.089247
-1861.578131
-1791.765065
-1712.201043
-1624.026106
-1546.707751
-1485.26074
-1415.858755
-1339.802596
-1280.007125
-1227.113569
-1168.73045
-1105.438203
-1047.020025
-1001.835398
-951.2963045
-896.4124823
-844.9889711
-804.1778519
-759.5547282
-711.6322415
-667.2491503
-632.1553593
-594.5625068
-554.8973645
-514.3722888
-484.33103
-452.0506619
-418.1496602
-385.1980701
-359.6125309
-332.6209763
-304.4705966
-279.4988758
-258.9808709
-237.8922516
-216.8629713
-197.9043159
-181.4946946
-165.1606868
-148.9916033
-134.3453971
-121.1430313
-108.1941821
-95.55146403
-84.76996791
-74.52838202
-64.75877222
-55.80312369
-47.76895082
-40.29660338
-33.46147409
-27.36959661
-21.91280132
-17.1356048
-12.6786604
-9.048846883
-5.826379634
-3.057885217
-1.084506902
0.7960457925
1.851300854
2.862388856
3.237994408
3.556796049
3.430723831
3.255957712
2.982596998
2.604661542
2.142297632
1.625571659
1.142858673
0.6939060693
0.3336880544
0.08367657653
-0.03862808028
-0.04562454171
-1.372273473e-09
)


100
(
-6520.13687
-5842.835089
-5334.073948
-4844.766067
-4469.09553
-4173.683538
-3826.428554
-3611.195413
-3352.364175
-3171.41349
-2986.63003
-2812.104928
-2672.247194
-2514.247412
-2371.013914
-2252.062387
-2121.514078
-1988.010654
-1892.206508
-1790.04109
-1681.990223
-1595.873033
-1517.299805
-1432.36168
-1347.12136
-1285.874092
-1219.613429
-1148.050131
-1077.119719
-1027.194112
-972.0676648
-913.9340323
-859.2304373
-817.3593418
-772.6977686
-725.725644
-678.6579233
-639.6061129
-604.1187092
-565.0411466
-525.7920438
-491.4474715
-461.9050386
-430.1969867
-399.2402561
-371.9298589
-348.8931618
-325.1156238
-301.4171874
-280.1506779
-262.3740076
-245.2887937
-227.5374013
-211.2212036
-197.0300511
-184.1789875
-172.4955582
-163.5711017
-157.1027199
-151.1805246
-143.6332549
-136.5287842
-130.7454782
-123.0128141
-114.0748059
-108.5318244
-105.2090285
-99.00794768
-93.34276465
-90.36775209
-87.29477503
-83.08190141
-82.41370014
-84.60076397
-85.16499309
-85.65030421
-84.34933069
-80.929839
-78.9421631
-76.81173642
-75.61685545
-74.65349944
-74.50882429
-76.46359297
-74.6482854
-76.99067052
-80.81695228
-80.1052809
-88.12639362
-87.70019378
-95.16459741
-101.1240905
-115.2082063
-123.1442246
-140.0391184
-147.283949
-159.8672827
-152.9333982
-60.5743787
-18.48111989
)


100
(
-6559.34749
-5696.400272
-5128.67119
-4586.813765
-4235.219007
-3870.022976
-3556.317097
-3276.842557
-3046.80484
-2820.517775
-2653.536532
-2470.503849
-2322.796254
-2184.959414
-2038.047933
-1915.853348
-1807.393024
-1693.58912
-1583.476293
-1502.972992
-1419.194886
-1334.633855
-1261.722548
-1198.362884
-1132.820998
-1067.999543
-1013.871799
-961.9973242
-909.0682669
-857.291835
-812.8085709
-772.7183763
-731.667019
-692.2551794
-657.2648446
-625.9238562
-593.7644583
-562.4614904
-533.5758211
-508.4878982
-484.1002186
-459.4662644
-436.6080035
-416.0502511
-397.0910687
-377.8140755
-360.1411314
-344.3456762
-329.660047
-315.3466128
-302.2867192
-291.1475654
-281.5742016
-271.2697945
-260.7108997
-251.595949
-245.1805206
-238.6121403
-233.378612
-230.8770035
-230.9048283
-228.5448156
-225.1560579
-220.8549491
-215.1534852
-209.0973547
-205.598876
-203.1427966
-198.2059634
-195.2502032
-193.9367839
-193.0898205
-190.6364384
-191.6855539
-198.1431749
-208.577545
-218.0441479
-221.077444
-224.9259022
-228.6730256
-231.8179725
-241.8517907
-248.7949695
-264.7318622
-273.0495887
-283.7330323
-300.0646858
-314.4386613
-335.6209998
-364.5447939
-395.562663
-427.0579224
-468.9485702
-522.6899408
-564.6896813
-616.8953947
-673.6462713
-507.7882857
-271.9228722
-128.4837111
)


100
(
-6591.266436
-5576.30961
-4930.872181
-4431.744313
-4018.323413
-3604.040439
-3319.781382
-3006.142582
-2795.834965
-2578.07286
-2397.035303
-2238.492896
-2073.974415
-1952.450606
-1829.073724
-1704.780413
-1605.388005
-1514.789449
-1423.906134
-1336.614794
-1273.397401
-1208.395774
-1144.06284
-1084.944011
-1037.102169
-987.9373024
-939.7258921
-895.6695692
-857.5637148
-818.9309024
-781.5877206
-746.9115761
-717.5511092
-688.6583457
-661.0865585
-635.6796013
-612.8961015
-591.5332995
-570.986415
-551.7988507
-534.7980949
-519.3160956
-503.9849913
-489.0710166
-475.6636971
-464.6618743
-453.2870864
-441.842632
-431.446536
-424.5593523
-415.991575
-407.3229772
-399.4312434
-394.5014628
-387.159961
-378.3896838
-371.3935374
-369.7987717
-365.2047661
-358.6015118
-355.961294
-356.732305
-354.3151669
-351.2433944
-348.0108025
-344.4605039
-340.6483958
-339.6575908
-342.3695872
-349.013879
-356.0196271
-365.5790205
-377.8849065
-393.1731135
-406.5067307
-419.6437833
-437.8470558
-452.4546299
-466.9977464
-489.7896868
-504.3333422
-523.5345964
-551.0336991
-568.0355284
-594.7207977
-629.1127395
-668.5382879
-712.2767279
-757.4307314
-810.1301588
-871.9626377
-935.8663082
-1002.127321
-1087.072654
-1183.66461
-1291.448984
-1395.118647
-996.442934
-637.9549018
-367.7275387
)


100
(
-6615.908172
-5544.670378
-4830.825401
-4282.048016
-3811.26765
-3434.910829
-3115.396324
-2837.19837
-2595.612819
-2406.130685
-2212.266765
-2071.600534
-1931.115577
-1796.538018
-1693.593134
-1590.982601
-1491.700349
-1413.057355
-1341.778565
-1272.165826
-1206.166427
-1155.541245
-1106.584628
-1058.889916
-1013.939895
-977.6548926
-941.8822818
-907.0319324
-874.1639866
-845.2906423
-817.7082714
-791.1452975
-766.4242143
-744.4861705
-724.4575251
-705.1817217
-687.5554338
-672.8114737
-659.2704509
-646.8128199
-634.8864291
-624.1693262
-615.0042642
-604.182999
-593.5929944
-585.6954669
-582.7952302
-574.6984699
-566.2001014
-560.6962318
-559.5840646
-553.6170255
-546.5953159
-542.6355303
-541.1038869
-535.6444644
-529.1772047
-529.8353653
-532.4165354
-532.2007318
-529.3264463
-529.2326317
-532.1426191
-536.4528602
-540.2777939
-545.8824997
-553.6277422
-564.7427811
-574.1799324
-585.2633272
-599.0359159
-616.3443544
-637.4330614
-660.4588127
-684.8413772
-707.1686389
-733.1044209
-762.4069696
-784.2625972
-813.5281749
-850.1338125
-885.3954942
-919.4212307
-961.8993554
-1011.703643
-1057.752148
-1111.988657
-1170.725273
-1230.195306
-1282.265618
-1348.9248
-1434.652694
-1502.063108
-1605.490779
-1720.73067
-1860.064037
-1949.142851
-1468.759735
-1065.092423
-697.0704805
)


100
(
-6633.316989
-5499.584037
-4728.847216
-4132.239899
-3638.227789
-3290.173775
-2947.171665
-2699.506587
-2456.375504
-2276.700745
-2110.278814
-1955.660661
-1836.26077
-1717.969195
-1611.551637
-1526.976211
-1445.436344
-1368.746245
-1307.497629
-1253.078244
-1200.718001
-1151.686296
-1111.796834
-1076.008588
-1041.887863
-1010.659118
-984.2123572
-959.8189137
-935.3664464
-912.035842
-891.4256109
-872.5350699
-854.4798278
-837.052198
-822.8428583
-808.0765803
-794.0795561
-781.1322899
-775.3602648
-766.6996608
-758.2449516
-750.414304
-746.7524338
-741.6738873
-733.0407486
-725.4968747
-726.4118346
-729.6844168
-722.8463836
-717.6258264
-718.6214207
-721.4425712
-718.9846539
-716.7083432
-717.4701477
-719.7228381
-721.0457336
-726.5315582
-733.5181706
-743.2458339
-756.3582073
-768.7061669
-776.6830755
-785.8957824
-799.1760169
-815.4859758
-829.1512351
-841.0524963
-856.0808246
-873.5129075
-893.7969759
-912.9349288
-934.6329885
-961.1180747
-998.0628874
-1031.526684
-1059.956283
-1097.141161
-1137.32529
-1170.212006
-1200.226568
-1240.407118
-1295.417719
-1338.230874
-1380.071615
-1416.238779
-1458.961052
-1500.358004
-1543.2992
-1589.435214
-1628.116922
-1678.002865
-1734.076639
-1814.448383
-1915.66235
-2064.273074
-2045.385203
-1719.0132
-1409.689902
-1038.883747
)


100
(
-6651.925809
-5441.865313
-4621.520764
-3989.746941
-3538.848658
-3164.212845
-2846.406827
-2589.553875
-2375.210035
-2182.006489
-2038.474583
-1897.324127
-1776.935946
-1676.879392
-1580.543864
-1497.364224
-1430.356651
-1367.658415
-1310.139254
-1263.077318
-1222.639684
-1184.2526
-1149.079915
-1119.322514
-1094.26175
-1071.936732
-1052.883186
-1036.531187
-1020.063438
-1002.969627
-986.8389727
-974.1841306
-961.0059997
-948.2053046
-936.9321884
-929.2762407
-917.8565156
-907.4825522
-901.7519574
-902.0951638
-896.2768623
-890.3642457
-887.6538944
-888.6759975
-886.646962
-880.283999
-882.6901353
-888.6379123
-896.6320771
-894.6347918
-899.2231709
-905.4557747
-914.0046764
-922.1303534
-928.2509488
-936.0891499
-945.9442898
-959.2765628
-973.3619191
-985.9790985
-1000.803596
-1019.441712
-1041.164488
-1064.698564
-1081.056855
-1099.466184
-1120.035497
-1140.630265
-1165.432944
-1185.879751
-1205.590904
-1230.141688
-1261.209927
-1288.050794
-1314.637419
-1345.010152
-1367.03921
-1391.839619
-1412.18462
-1438.601059
-1470.779269
-1498.366297
-1520.133034
-1537.571874
-1558.407885
-1578.914274
-1597.47211
-1620.946634
-1659.543192
-1696.575136
-1724.486939
-1778.126464
-1857.233862
-1971.73055
-2128.845653
-2307.216207
-2074.773978
-1735.239444
-1530.322237
-1315.378121
)


100
(
-6669.41597
-5367.091813
-4510.612882
-3896.120409
-3448.43586
-3055.880628
-2769.836319
-2503.022547
-2313.115848
-2134.842642
-1988.744559
-1867.68522
-1751.211633
-1658.061543
-1576.748176
-1500.400925
-1436.176033
-1385.026812
-1339.456734
-1297.814918
-1263.285688
-1234.484259
-1208.000093
-1184.367348
-1164.469182
-1147.478389
-1133.875937
-1124.28393
-1115.618629
-1105.500727
-1093.91156
-1086.682892
-1079.082417
-1069.3385
-1059.716454
-1055.962405
-1052.599263
-1043.717277
-1037.068963
-1039.103954
-1044.249543
-1041.498561
-1038.920648
-1042.256548
-1047.490539
-1050.050388
-1053.82945
-1063.873299
-1076.290335
-1090.52975
-1103.18387
-1113.521453
-1125.216728
-1138.522367
-1157.031876
-1178.07006
-1190.815825
-1204.656902
-1222.014955
-1241.996533
-1264.071019
-1281.884232
-1304.018016
-1327.49864
-1348.775764
-1371.421869
-1394.069655
-1411.34291
-1429.759878
-1457.12429
-1484.623459
-1504.852832
-1524.060565
-1536.292545
-1543.751087
-1551.879829
-1557.179109
-1567.444126
-1578.313455
-1588.495229
-1595.850787
-1605.489014
-1620.367143
-1641.682325
-1670.353241
-1710.15471
-1759.639562
-1820.625964
-1899.363638
-1988.599444
-2089.091119
-2225.991048
-2391.796591
-2602.18141
-2870.64889
-3107.793019
-2505.585818
-1899.859447
-1556.260654
-1469.621226
)


100
(
-6680.504034
-5312.027073
-4436.433311
-3828.713088
-3362.557057
-2991.569072
-2704.093434
-2461.880653
-2264.282365
-2107.461862
-1961.084003
-1851.031963
-1751.380694
-1657.875497
-1586.63787
-1522.863262
-1464.411455
-1416.030722
-1381.416029
-1349.205814
-1321.251655
-1298.082029
-1278.978953
-1262.476092
-1247.748985
-1235.862745
-1225.179611
-1217.803234
-1215.14926
-1211.921974
-1207.035784
-1201.19044
-1201.200367
-1197.383415
-1190.2985
-1186.407912
-1187.477843
-1187.838135
-1181.465149
-1184.444326
-1191.417725
-1201.263781
-1203.100104
-1209.69147
-1218.42631
-1230.026509
-1243.451732
-1256.131289
-1271.419202
-1288.823821
-1307.836032
-1330.691997
-1350.802526
-1366.738349
-1384.100573
-1406.509448
-1430.51692
-1455.598897
-1474.072499
-1492.365786
-1510.855672
-1526.47138
-1543.74655
-1561.212325
-1575.803903
-1590.462193
-1608.480754
-1626.534604
-1640.615656
-1652.987647
-1663.722279
-1667.459564
-1668.97535
-1668.905586
-1668.741255
-1671.931961
-1677.841956
-1689.203338
-1706.424532
-1731.277456
-1764.606787
-1807.241112
-1861.787912
-1936.416643
-2021.370115
-2117.852028
-2226.164108
-2359.322622
-2488.154475
-2632.223101
-2807.264853
-3018.485831
-3284.528152
-3605.815985
-3966.134387
-4219.929763
-3272.580748
-2455.406497
-1867.454359
-1504.385851
)


100
(
-6685.304356
-5298.33893
-4390.629963
-3762.531227
-3282.119014
-2942.761494
-2646.322062
-2428.748134
-2231.447768
-2087.468456
-1959.205351
-1843.381183
-1758.861318
-1679.415811
-1607.622488
-1554.718518
-1507.695438
-1466.709828
-1434.051867
-1409.817345
-1389.692789
-1372.642687
-1359.424028
-1347.661778
-1338.599762
-1330.943599
-1324.970609
-1320.46527
-1317.146119
-1319.124981
-1319.734614
-1319.288754
-1322.023864
-1327.174118
-1326.544618
-1322.116901
-1325.952272
-1331.629945
-1336.509846
-1338.764805
-1349.471939
-1362.639516
-1379.127346
-1392.403189
-1404.08079
-1417.926861
-1433.751294
-1454.376184
-1478.028116
-1496.753124
-1517.328718
-1539.410256
-1563.149559
-1587.671596
-1610.63413
-1628.583141
-1649.982027
-1670.611934
-1687.072069
-1701.413893
-1712.869378
-1720.177928
-1727.108252
-1736.340603
-1745.205028
-1751.350812
-1756.573878
-1762.527915
-1766.884792
-1769.931135
-1774.320559
-1782.060852
-1793.051878
-1808.787568
-1832.758797
-1865.933178
-1910.194733
-1964.448598
-2026.550331
-2096.961137
-2179.310981
-2279.314724
-2387.529908
-2505.022351
-2633.014439
-2778.992598
-2948.270189
-3124.832481
-3310.895163
-3529.607923
-3778.334566
-4096.408493
-4443.894001
-4900.958862
-5393.013429
-5526.340978
-4203.862184
-3233.546004
-2468.540316
-1482.671126
)


100
(
-6683.958613
-5272.625409
-4341.425428
-3693.380726
-3237.869689
-2896.281144
-2614.93724
-2399.576394
-2223.066981
-2072.310755
-1960.511464
-1858.121355
-1771.502023
-1705.742909
-1645.731022
-1593.609245
-1556.363467
-1524.702587
-1498.277123
-1478.187128
-1463.695556
-1453.124487
-1444.274205
-1438.460551
-1433.760557
-1430.737714
-1428.899561
-1427.745938
-1428.919253
-1428.121873
-1432.853286
-1439.932804
-1444.39216
-1453.884279
-1463.527626
-1466.532904
-1471.367912
-1480.469931
-1492.238023
-1505.190783
-1518.407301
-1533.694976
-1551.105518
-1570.336548
-1594.421614
-1613.627157
-1631.067152
-1650.029232
-1672.455461
-1696.713837
-1722.077947
-1740.725031
-1760.437767
-1780.603282
-1799.183067
-1814.842848
-1827.75902
-1836.076085
-1843.054461
-1848.535893
-1852.766286
-1855.216689
-1856.057559
-1857.424537
-1860.896259
-1866.707879
-1874.629317
-1886.237806
-1903.639818
-1926.892279
-1958.817052
-2002.409033
-2051.87913
-2114.530229
-2190.076257
-2275.529483
-2364.827949
-2460.185227
-2565.253351
-2684.272038
-2815.726326
-2957.466369
-3104.135543
-3258.323772
-3448.170717
-3643.933677
-3861.110544
-4093.480891
-4359.595645
-4656.200832
-5014.911343
-5428.563077
-5933.653082
-6549.932691
-7165.165552
-6933.751123
-5241.843283
-4148.739378
-3221.017219
-1454.343061
)


100
(
-6677.919513
-5235.524519
-4284.648996
-3632.223466
-3201.185749
-2851.914999
-2595.360424
-2373.770926
-2215.747615
-2075.256766
-1964.360151
-1876.426615
-1798.064813
-1735.600701
-1687.360045
-1645.159647
-1610.596269
-1586.607508
-1567.55902
-1552.340146
-1542.506967
-1535.505584
-1531.95839
-1530.001666
-1530.260662
-1532.598687
-1534.490004
-1537.922573
-1541.715998
-1547.315624
-1555.083358
-1562.040373
-1565.718188
-1584.138214
-1597.7661
-1613.104027
-1624.284679
-1637.341709
-1650.843581
-1666.425339
-1686.640771
-1706.124147
-1725.090659
-1746.299609
-1768.300725
-1792.531156
-1817.249005
-1836.341115
-1853.278516
-1873.088778
-1891.731141
-1908.780009
-1923.418199
-1932.3464
-1939.121355
-1944.781109
-1948.257445
-1950.457338
-1951.740975
-1953.534076
-1956.949407
-1963.205662
-1973.254962
-1989.519743
-2012.26228
-2041.217275
-2076.635804
-2120.327928
-2175.122387
-2230.527664
-2304.063181
-2391.656417
-2492.889644
-2600.510486
-2712.868563
-2834.853714
-2966.815867
-3106.676584
-3262.041557
-3426.327361
-3597.313276
-3781.082116
-3987.675651
-4208.478803
-4445.238516
-4695.046028
-4991.818947
-5303.15265
-5645.63736
-6069.472459
-6537.717469
-7092.900652
-7758.004908
-8529.401205
-9261.529477
-8424.287968
-6402.707069
-5211.252241
-4106.676621
-1478.375892
)


100
(
-6667.637362
-5184.200322
-4225.55498
-3606.837859
-3165.298179
-2824.790405
-2576.609369
-2371.015229
-2209.713101
-2085.1482
-1975.57623
-1896.202269
-1830.125148
-1773.289379
-1730.898565
-1698.656102
-1671.684389
-1651.338433
-1637.911694
-1628.633082
-1621.918945
-1619.540212
-1619.403385
-1621.607039
-1625.455035
-1630.79641
-1639.561608
-1646.15492
-1653.914062
-1662.965664
-1673.415023
-1687.606718
-1701.501484
-1714.517247
-1734.24102
-1753.26248
-1771.841487
-1792.859163
-1808.017383
-1825.618556
-1844.57565
-1866.331106
-1890.517953
-1910.188517
-1929.259696
-1949.34618
-1969.064794
-1987.04185
-2003.450244
-2015.360089
-2024.675822
-2031.002533
-2034.635775
-2036.227065
-2036.789056
-2038.468744
-2042.007018
-2047.973012
-2056.718155
-2072.106323
-2097.529578
-2129.52316
-2170.581319
-2219.23944
-2277.660626
-2347.249591
-2411.259687
-2486.676071
-2574.482405
-2674.709931
-2789.097412
-2910.11384
-3039.69687
-3179.076812
-3325.804787
-3483.041297
-3669.297704
-3872.780401
-4073.812122
-4279.714796
-4503.169223
-4753.340715
-5021.734639
-5299.661873
-5597.8409
-5948.171752
-6308.187534
-6689.109282
-7172.917667
-7724.731396
-8343.779528
-9014.958198
-9836.959951
-10784.80995
-11529.9629
-10009.09807
-7822.807751
-6450.589838
-5166.405599
-1522.780742
)


100
(
-6651.862754
-5148.723158
-4200.862288
-3579.084212
-3129.534654
-2813.022933
-2558.234919
-2371.186307
-2209.436456
-2094.808053
-1998.659756
-1916.752944
-1861.712576
-1815.339247
-1777.585724
-1751.360573
-1732.410167
-1717.578641
-1708.28609
-1703.390204
-1701.380094
-1701.567426
-1705.210475
-1711.494764
-1718.423372
-1727.405173
-1737.374361
-1750.09289
-1764.206147
-1776.235347
-1790.458129
-1806.112184
-1824.88522
-1848.341624
-1867.472929
-1887.952882
-1909.633799
-1931.079618
-1955.311065
-1976.394565
-1993.460174
-2011.233723
-2030.134482
-2048.280673
-2065.852497
-2079.354067
-2091.901642
-2103.352562
-2111.697271
-2116.197034
-2118.032407
-2119.021303
-2121.299937
-2125.249792
-2130.27448
-2139.815237
-2159.093145
-2184.261637
-2221.634582
-2270.542595
-2327.234877
-2397.400582
-2474.501354
-2549.843206
-2633.260192
-2729.316796
-2835.583977
-2947.255143
-3069.226094
-3202.053949
-3345.886459
-3498.539671
-3657.08498
-3828.079589
-4018.308617
-4236.223928
-4468.818583
-4710.307755
-4961.590496
-5220.919363
-5520.048782
-5838.348313
-6164.310673
-6515.290754
-6909.26921
-7323.189488
-7753.838937
-8269.907449
-8891.028498
-9530.942893
-10291.15119
-11118.09875
-12171.22579
-13279.02553
-13877.91805
-11802.45045
-9499.115733
-7957.664016
-6469.833345
-1748.383543
)


100
(
-6630.810575
-5129.610621
-4177.022889
-3548.853297
-3108.71618
-2799.713741
-2551.787134
-2369.826479
-2223.406326
-2103.253316
-2019.542782
-1948.27031
-1892.045713
-1855.27896
-1825.954402
-1803.63242
-1790.017619
-1781.750867
-1776.63017
-1775.839263
-1778.1326
-1782.057892
-1788.134949
-1796.765435
-1809.549339
-1820.364642
-1833.764331
-1848.924514
-1866.09008
-1886.775686
-1905.059945
-1923.993044
-1944.954361
-1967.228997
-1992.184182
-2018.213756
-2039.179376
-2061.162294
-2082.080461
-2102.864938
-2122.165279
-2136.816324
-2148.866618
-2161.288584
-2171.307202
-2179.176326
-2185.27525
-2189.133348
-2192.915689
-2197.563942
-2201.69047
-2206.597828
-2217.006528
-2232.978421
-2256.247841
-2291.816356
-2338.755602
-2400.322869
-2476.894216
-2551.629009
-2635.812328
-2724.612068
-2830.067054
-2944.385395
-3044.949723
-3166.938946
-3303.246526
-3454.862446
-3616.414051
-3779.655054
-3951.532551
-4138.054529
-4339.369542
-4556.901099
-4794.115029
-5048.259357
-5316.355558
-5603.518479
-5917.769182
-6269.433914
-6632.122789
-6999.839075
-7388.938898
-7835.677809
-8314.559552
-8809.452129
-9344.525478
-9957.458198
-10639.79598
-11436.97608
-12317.36315
-13311.13037
-14583.73235
-15896.11773
-16336.3054
-13837.46942
-11417.80961
-9707.797016
-8033.874051
-1989.672813
)


100
(
-6604.714752
-5101.812802
-4147.999928
-3515.360456
-3099.125674
-2783.87339
-2554.010962
-2365.707893
-2233.37087
-2121.695581
-2037.126075
-1976.618041
-1927.672864
-1892.188813
-1870.764399
-1855.230263
-1845.172372
-1841.553272
-1841.876836
-1844.617058
-1850.507485
-1859.403441
-1868.472904
-1879.940399
-1893.051347
-1909.772406
-1927.275436
-1945.332167
-1965.849975
-1987.832751
-2011.915387
-2038.670093
-2060.093499
-2083.400406
-2107.136601
-2131.15562
-2156.16036
-2176.184575
-2193.614714
-2210.033268
-2223.937467
-2234.514393
-2243.052185
-2248.943604
-2254.033008
-2258.529522
-2262.12299
-2265.577679
-2271.680437
-2282.477535
-2299.13314
-2321.703774
-2351.752997
-2393.098063
-2450.017385
-2513.511125
-2592.005379
-2681.352176
-2775.517698
-2889.464981
-2994.799318
-3096.720266
-3216.914
-3348.760046
-3495.420716
-3658.241482
-3826.534957
-4003.487778
-4192.518916
-4391.43821
-4594.390676
-4812.314249
-5069.255515
-5344.433186
-5625.673511
-5921.403737
-6242.552525
-6585.51779
-6965.406706
-7368.352099
-7784.762304
-8223.453324
-8728.422822
-9253.180158
-9791.375249
-10385.10969
-11047.86452
-11781.07871
-12604.89837
-13446.50341
-14505.51299
-15640.04521
-17039.19512
-18498.44731
-18757.69703
-16049.17807
-13502.67111
-11654.43768
-9799.614655
-2350.239085
)


100
(
-6571.230585
-5063.30369
-4111.345334
-3498.730519
-3085.716385
-2771.75452
-2551.907045
-2373.654552
-2239.228041
-2139.666024
-2057.171004
-2001.04416
-1960.98036
-1930.234816
-1911.101629
-1902.270331
-1897.839249
-1897.644064
-1902.28078
-1909.600172
-1918.913215
-1930.370963
-1945.695552
-1959.291811
-1975.495322
-1993.724334
-2014.774791
-2039.969199
-2062.158932
-2086.753636
-2112.924708
-2139.012602
-2166.945946
-2191.242564
-2212.795462
-2234.026795
-2253.562369
-2270.574508
-2285.314671
-2295.847945
-2304.806926
-2311.903043
-2316.205196
-2319.141423
-2322.327327
-2328.071029
-2338.205883
-2353.408749
-2372.206811
-2399.145633
-2439.297247
-2482.959927
-2539.857201
-2611.525986
-2696.187173
-2789.729028
-2901.377087
-3006.140295
-3118.758781
-3239.263492
-3369.895275
-3511.518694
-3642.328378
-3801.431703
-3978.536011
-4171.860484
-4375.273765
-4582.308804
-4800.797688
-5035.382246
-5292.39064
-5579.242978
-5870.056633
-6178.149559
-6500.897588
-6840.394745
-7218.389594
-7638.218229
-8081.616132
-8550.583825
-9032.176617
-9556.636471
-10118.01487
-10714.48085
-11364.16749
-12135.02824
-12905.62511
-13707.31153
-14644.04798
-15660.75209
-16844.39497
-18410.10699
-19802.30294
-21414.20391
-21199.78367
-18316.13667
-15718.41357
-13732.55496
-11712.81072
-2859.529144
)


100
(
-6531.365609
-5014.182142
-4077.582128
-3484.354572
-3067.856981
-2771.963163
-2545.184257
-2380.797644
-2244.991206
-2152.527695
-2080.358988
-2022.576916
-1989.221483
-1965.969499
-1950.014131
-1943.747731
-1945.264118
-1949.994307
-1957.776327
-1969.430465
-1982.623442
-1997.858181
-2014.257537
-2033.892153
-2054.252131
-2075.550812
-2099.273602
-2124.644331
-2152.27754
-2181.10609
-2207.387454
-2234.514673
-2259.580571
-2283.457468
-2305.503726
-2321.324345
-2335.956405
-2348.541313
-2356.796431
-2362.302212
-2366.993845
-2371.931003
-2377.798958
-2385.959239
-2395.96975
-2410.617854
-2435.880452
-2466.294195
-2505.753971
-2556.808469
-2618.87551
-2695.575679
-2787.603372
-2881.486564
-2986.278508
-3099.565639
-3223.83213
-3364.360207
-3489.392892
-3616.246246
-3767.751526
-3929.345301
-4110.282317
-4305.809614
-4513.668731
-4727.76171
-4956.498618
-5199.46718
-5449.301539
-5724.108595
-6036.660241
-6366.995719
-6705.045753
-7057.190609
-7435.998285
-7861.089529
-8299.758204
-8760.6016
-9245.533372
-9768.56768
-10353.31945
-10986.89571
-11616.75281
-12270.6186
-13048.78042
-13888.78364
-14773.98925
-15740.61308
-16798.95561
-17966.99152
-19289.31109
-20890.66552
-22615.40558
-24265.71454
-23798.1409
-20595.81474
-17947.59921
-15897.94803
-13741.71247
-3458.167563
)


100
(
-6487.136974
-4982.816767
-4058.814415
-3465.437801
-3049.204826
-2766.820438
-2542.516195
-2382.934182
-2258.69712
-2160.532517
-2097.806383
-2048.928066
-2012.276019
-1995.683677
-1986.163127
-1982.306974
-1986.29455
-1996.373145
-2008.705607
-2023.053063
-2040.719846
-2059.139013
-2079.430583
-2101.248554
-2125.635435
-2153.280723
-2178.862644
-2206.39378
-2234.949621
-2263.259877
-2294.177139
-2318.566159
-2342.041011
-2362.675421
-2379.084025
-2391.083862
-2400.291947
-2407.40597
-2413.346214
-2418.119588
-2422.603737
-2428.985162
-2440.82789
-2458.43362
-2484.099433
-2516.457599
-2558.853381
-2613.812303
-2683.660204
-2752.296576
-2841.124302
-2943.144286
-3050.513355
-3175.525539
-3308.662042
-3433.555719
-3563.127196
-3711.902332
-3867.86884
-4035.210021
-4200.774401
-4392.155015
-4601.109514
-4826.264513
-5062.098898
-5304.506133
-5562.721876
-5841.432482
-6153.644007
-6493.263236
-6839.936632
-7202.366702
-7582.02546
-7979.039368
-8419.728309
-8903.236787
-9411.318937
-9940.334664
-10507.35169
-11106.85643
-11756.32743
-12436.9828
-13148.14742
-13956.44423
-14827.48762
-15743.46048
-16771.36722
-17903.52724
-19165.00343
-20387.04552
-21932.19906
-23609.63917
-25434.07109
-27306.27258
-26334.53079
-22879.10437
-20205.36546
-18094.27631
-15832.34331
-4187.247128
)


100
(
-6438.836322
-4948.327924
-4033.682036
-3441.315532
-3044.891056
-2757.291182
-2546.480297
-2380.062025
-2266.273156
-2175.227742
-2109.481898
-2068.536746
-2038.731938
-2019.327842
-2015.622573
-2017.311354
-2023.353323
-2035.641525
-2052.924397
-2071.362853
-2090.376123
-2113.549688
-2138.003037
-2163.634582
-2191.09442
-2219.860673
-2250.481999
-2281.184758
-2310.208714
-2339.030261
-2364.945419
-2389.178852
-2409.636959
-2425.655202
-2438.7259
-2447.026032
-2450.718925
-2453.063257
-2457.375629
-2464.919356
-2477.054475
-2494.781533
-2517.520953
-2551.589613
-2596.026091
-2646.780975
-2708.105063
-2785.447734
-2874.185326
-2979.281691
-3096.129603
-3210.395262
-3336.218264
-3465.740514
-3617.625094
-3781.999229
-3923.276919
-4078.046204
-4255.178273
-4446.671782
-4658.858996
-4884.128898
-5121.926302
-5373.871803
-5633.962424
-5912.128793
-6200.48201
-6525.898989
-6881.791851
-7256.346338
-7643.753816
-8050.842409
-8486.783591
-8971.730325
-9485.881156
-10009.59388
-10557.33614
-11141.76085
-11775.15772
-12470.13419
-13217.86541
-13966.80717
-14784.0599
-15696.54071
-16667.20845
-17740.42565
-18912.64386
-20129.44915
-21485.44545
-22905.80069
-24633.44182
-26390.36921
-28541.3463
-30227.19159
-28843.06794
-25229.40415
-22543.44164
-20346.23618
-17991.21794
-5026.681171
)


100
(
-6386.76243
-4907.050903
-4001.960884
-3418.626996
-3035.066968
-2744.328678
-2544.941552
-2385.33346
-2268.322862
-2186.117792
-2122.339404
-2081.839179
-2058.650626
-2043.941435
-2038.335187
-2045.146858
-2055.977825
-2070.085055
-2088.912592
-2111.103481
-2135.178416
-2160.599369
-2188.531401
-2218.999685
-2249.220823
-2280.745576
-2312.449704
-2343.907787
-2376.030724
-2402.300368
-2426.929908
-2447.458635
-2462.655826
-2473.221874
-2481.047842
-2487.33608
-2491.601072
-2495.479245
-2502.032511
-2514.83472
-2536.9961
-2568.57017
-2610.764985
-2660.849472
-2723.897938
-2801.563496
-2882.947001
-2974.718086
-3086.303646
-3208.52105
-3336.30029
-3490.54839
-3631.155765
-3771.978211
-3922.973999
-4093.656079
-4276.13475
-4467.755383
-4665.563729
-4882.651272
-5117.458986
-5369.00198
-5632.029264
-5904.0345
-6194.65427
-6508.070591
-6864.825951
-7245.794189
-7646.585648
-8049.041563
-8472.441869
-8919.592678
-9410.801016
-9948.106592
-10512.00472
-11107.19583
-11740.92138
-12424.31407
-13112.91349
-13837.32129
-14626.87176
-15487.17633
-16442.29111
-17436.59098
-18475.12984
-19697.24978
-20975.86767
-22381.39138
-23813.79916
-25403.78346
-27182.53452
-29146.82045
-31288.02396
-33135.88982
-31333.83113
-27654.45361
-24965.3985
-22704.81149
-20228.55971
-6101.276109
)


100
(
-6323.809633
-4857.043496
-3965.130757
-3405.383144
-3020.812897
-2744.085297
-2538.305093
-2388.85122
-2269.916274
-2191.085073
-2134.719086
-2092.273093
-2071.614936
-2062.865459
-2060.515542
-2065.700954
-2081.150984
-2099.594379
-2120.277269
-2144.431022
-2171.882827
-2201.105736
-2231.974502
-2264.35482
-2298.757214
-2332.775996
-2366.165802
-2398.341963
-2427.147707
-2453.046368
-2474.269865
-2491.710263
-2504.724719
-2511.554664
-2514.39169
-2516.833718
-2523.204512
-2533.878445
-2551.11182
-2575.31002
-2609.564846
-2660.993996
-2717.712323
-2785.122073
-2864.714606
-2956.680578
-3061.359552
-3184.211387
-3308.210727
-3442.442244
-3588.122361
-3736.204786
-3909.622763
-4082.813135
-4233.418668
-4415.008546
-4615.610714
-4834.316324
-5072.737588
-5321.681135
-5583.627118
-5862.544925
-6147.155678
-6451.151515
-6768.340973
-7128.718775
-7517.795172
-7929.542421
-8355.280467
-8801.88483
-9279.493798
-9802.942834
-10380.32223
-10954.87919
-11553.74587
-12196.66624
-12890.84287
-13628.4866
-14417.87386
-15245.94624
-16086.60354
-17064.1824
-18098.22799
-19171.78357
-20397.57636
-21720.09908
-23064.71894
-24511.70601
-26094.15223
-27794.92947
-29792.43862
-31924.8888
-34191.40006
-35835.39766
-33793.42917
-30063.23502
-27415.65066
-25132.56853
-22588.99566
-7242.058933
)


100
(
-6257.549096
-4808.517742
-3940.026676
-3386.802638
-3002.05578
-2738.067652
-2531.554047
-2386.815267
-2275.993101
-2190.307559
-2140.061889
-2104.34249
-2079.425851
-2073.91883
-2077.008967
-2084.861984
-2098.574877
-2120.846768
-2145.381168
-2171.795802
-2200.990104
-2233.238254
-2267.206237
-2302.575115
-2338.142158
-2373.858199
-2409.112
-2440.874852
-2469.681414
-2492.882392
-2509.704977
-2521.435574
-2530.980943
-2538.039037
-2542.647172
-2547.246363
-2556.514127
-2575.433916
-2604.120792
-2644.274025
-2694.673698
-2756.643001
-2833.149077
-2924.944605
-3013.060657
-3120.306989
-3243.298787