/*--------------------------------*- C++ -*----------------------------------*\
| =========                 |                                                 |
| \\      /  F ield         | OpenFOAM: The Open Source CFD Toolbox           |
|  \\    /   O peration     | Version:  2.3.1                                 |
|   \\  /    A nd           | Web:      www.OpenFOAM.org                      |
|    \\/     M anipulation  |                                                 |
\*---------------------------------------------------------------------------*/
FoamFile
{
    version     2.0;
    format      ascii;
    class       dictionary;
    location    "constant";
    object      T;
}
// * * * * * * * * * * * * * * * * * * * * * * * * * * * * * * * * * * * * * //

T_table
100
(

100
(
332.960595
332.5218925
332.0251319
332.1214906
332.527249
332.0569173
332.2559066
332.1714942
332.2656305
331.4243076
331.7164761
330.4269433
330.4179299
330.8802344
330.1459846
330.5379267
331.7011448
331.1528666
331.4814534
332.5991799
332.3752856
332.1299604
332.5084406
332.9336304
332.4320898
332.5236655
333.2084866
333.365098
332.6056655
332.3996258
332.7248654
332.5496443
332.2835019
332.5295955
333.3008242
333.6926006
332.7618305
332.3911594
332.5569926
332.5786938
331.7096776
331.3676916
331.5613645
331.7856408
331.5517127
331.8248559
332.6013558
333.7273557
332.87893
332.5212853
332.6021577
332.7496769
331.8233571
331.3065412
331.2227314
331.1258416
330.8592789
331.0571736
331.7318514
332.1214697
331.7360855
331.8419614
332.4688433
332.6057719
332.2176524
332.3653123
333.0813423
332.6683195
332.4304375
332.7788899
332.9848283
332.4890798
332.6056262
333.0418986
332.4332545
332.477191
332.7870008
332.2332548
332.3896075
332.3095531
332.0563555
332.4895023
332.0050159
332.4053693
332.1239834
332.5776185
332.4297086
332.9164927
333.1324978
333.5628148
334.2906391
335.1564526
336.0613802
337.0568511
338.137865
339.4858359
340.4563977
341.0593722
340.9692181
333.0030036
)


100
(
332.7097338
333.9942943
334.7979034
336.3847822
337.4394288
337.5426283
339.6150003
339.3031463
340.7589837
340.2981809
340.6054649
340.9732778
340.738617
341.81319
342.6035343
342.7880854
344.0632587
345.8975319
346.0024839
346.9153536
348.5317455
349.0523647
349.2027044
349.9951024
351.4454243
351.3016892
351.757745
352.7963278
354.403157
354.0442327
354.1492615
354.789167
355.9495769
355.9529392
356.500416
357.5687249
359.1378166
359.9059637
359.8907847
360.4016697
361.4503663
362.4354823
362.451053
362.9801297
364.0265874
365.4406065
366.0090695
367.0540582
368.5449492
370.4595683
371.5560736
371.8949514
372.6159036
373.7474978
374.5317738
374.7233318
375.3482326
376.4297959
377.4687903
378.3227938
379.0132216
381.6886916
383.7779772
383.9518468
384.7216941
388.1571175
390.4601503
389.809217
392.4336996
395.7606223
397.1343283
397.6638911
402.0362487
404.5290744
403.9023966
406.7439907
412.0795177
411.9486178
414.749203
420.7416256
420.7022716
426.167192
429.9866357
430.7807558
439.6416378
440.9693466
445.9744258
452.4886696
454.8210971
462.6206942
466.1637416
472.5818734
475.6977545
481.2671793
483.5618056
488.4644608
489.1816325
483.2639405
453.0448282
423.5146621
)


100
(
332.5918842
335.9320236
338.0145767
341.0618973
341.9323406
343.6988719
345.5098769
347.2541221
348.4784347
350.2061645
350.2681021
351.7588898
352.3170332
353.1854669
355.2646275
356.5518126
357.6288073
359.6799508
362.2710429
362.9938478
364.4093759
366.4517116
367.9247483
368.5403319
369.7707198
371.5991947
372.6366085
373.5088786
374.9274068
376.8604734
378.2064081
378.6893592
379.6637619
381.1410601
382.6481489
383.5470967
384.9608019
386.8635707
389.2454014
390.7682653
391.6857029
393.0878174
394.9799121
397.1813637
398.0829564
399.4436066
401.2650826
403.5222686
405.359646
407.1221353
409.2769911
411.7787626
414.5278709
415.6279948
416.8261528
418.4037948
421.5277628
422.393153
423.6046264
425.2360734
428.3456288
429.2966975
432.6280839
435.9712052
437.7840595
439.4931823
443.9115271
448.2734573
449.5157821
453.4013558
458.2888259
462.9505104
465.5938929
470.2130998
475.2733989
478.0886993
479.6145242
485.4128286
491.9043432
495.369075
500.9899646
505.0159487
512.2923561
514.5451243
520.7827217
528.0061078
532.1309382
538.9587961
545.4769505
550.6481397
556.1982678
561.8198059
567.0178211
570.3949742
575.5724364
578.6789578
578.4184727
560.4298127
529.6861673
499.0756124
)


100
(
332.6033949
337.8128002
341.5122353
344.2835656
346.7258612
350.3661978
351.9529318
355.6543065
356.8713855
359.3152187
360.7686265
362.0729936
364.6708998
365.5620511
367.4699642
370.4582191
372.3770335
374.2804044
377.0145886
380.4352853
381.7117934
383.6080703
386.090596
388.6701533
389.7734381
391.4569298
393.6934964
396.025205
397.3211997
399.136657
401.4294037
404.18001
405.4663393
406.8228462
408.6584046
410.9754113
413.0473456
414.8397501
417.122218
419.8612839
423.0310457
425.4826811
427.113313
429.1522326
431.5948489
435.0455348
436.6616665
438.628939
440.9789668
445.4100006
447.3580933
449.635814
452.2242265
456.5640086
458.7154681
460.244354
462.7347181
468.1198367
470.8774051
472.4449008
475.923364
480.5570127
482.9196067
486.5209219
490.6089749
494.4567391
497.7658694
502.4588588
507.5964711
512.4934766
516.3044641
520.5102598
525.1168756
530.5449552
536.098486
540.4629045
543.9039156
551.0898272
557.9774608
560.8107218
567.1765288
574.3528431
579.2553418
585.9328873
592.8208062
599.2694836
605.0069911
611.0297812
617.1430186
622.9570211
628.8663316
634.6113755
639.6376025
645.4399203
649.3724357
652.4967198
651.8591847
625.3771663
596.1834731
565.4502548
)


100
(
332.7406091
338.6015832
343.5566138
347.7816479
351.9350225
355.5244559
358.8375425
362.3951991
365.8135523
368.094703
371.6571575
373.0549319
375.4889773
378.6771067
380.459107
383.3046465
387.1038418
389.7630509
392.3879402
395.7078954
399.6281411
401.8045431
404.1838368
407.1124443
410.5856091
412.5035815
414.6433555
417.2959944
420.4442115
422.7081577
424.9215379
427.581835
430.6533429
433.8389409
435.4663865
437.5279828
440.0160452
443.8459839
445.9841153
448.5533819
451.5317705
455.1134401
458.9653944
460.9937397
463.3852208
466.9822648
472.7112587
474.6788826
476.9618959
480.7661396
486.447776
489.1986675
491.7121172
495.7195872
500.7153903
503.6623397
506.010935
511.2491408
516.9117519
521.280392
524.714318
529.1858477
534.0046984
538.1776451
541.7496491
545.6847824
550.0195717
555.233089
559.7669464
564.5154118
569.616793
575.0775759
580.4767465
584.7644814
589.4192375
596.598586
603.949819
608.9682895
614.9778055
622.1641303
629.5418776
636.1043325
641.6087971
647.7901325
654.4624888
660.6871165
667.8827047
674.3293436
680.3166095
685.2847394
692.1411625
698.9738128
703.8296337
709.9124169
714.282462
717.4510893
713.8231228
683.8744689
654.9960274
624.6067113
)


100
(
333.0005069
339.7102945
345.834296
351.4777071
357.1983324
360.8321322
366.0588432
369.4534591
374.3323063
377.2583006
380.6814951
384.4678138
386.774531
390.2210039
393.9318661
396.6689528
400.341027
404.8449766
408.3036356
411.5295862
415.3321424
419.6702767
422.8852934
425.7261267
429.0891384
432.957487
436.2471446
438.828261
441.7064122
444.9944837
448.6337687
451.108387
453.9859186
457.2180189
461.7642134
463.7988738
466.2303561
469.0426154
475.1496053
477.7875429
480.7064483
483.9791504
489.3131304
493.4563653
495.8222239
498.6653837
504.8345545
511.3789859
513.6466052
516.8566754
522.392153
528.2787669
531.9469891
535.7388852
540.6277067
545.8237722
550.1713518
555.1032838
559.7712326
564.7338674
570.1814525
575.2600191
579.3961479
583.8176053
589.0176177
594.7614529
599.7850531
604.4473395
609.8349723
615.5798352
621.552756
626.6707724
631.8042803
637.2389418
643.5603438
648.9280271
655.7748516
663.0688263
670.4628661
676.9672311
682.7310649
689.421457
697.543548
704.0274392
710.9799449
717.6900281
724.0622987
730.3986927
736.9117457
743.7734285
749.8991625
756.2268594
762.1758455
768.0721563
773.1339653
775.8440738
765.5433608
736.7515769
708.5482443
678.870414
)


100
(
332.9757326
340.9471786
348.2510594
355.4269745
360.9916234
366.2932305
371.8392263
376.7087027
381.468921
386.6466705
389.9226379
394.3462911
398.2851907
401.6034316
405.9451828
410.2512919
413.8121083
418.1865607
423.2728006
427.5520568
431.2499482
435.4684825
440.1843215
444.5342436
447.8401658
451.6604459
455.9567102
459.5118438
462.3370024
465.5564579
469.6591097
474.493154
477.3028845
480.4884155
484.7481482
490.1090563
492.4916425
495.2623884
500.0343988
506.7497238
509.9402705
513.1614932
517.7721235
523.7608179
528.2400245
530.9008913
536.4357652
542.8761227
549.6144713
552.9124681
558.3126622
564.0270366
569.9730268
575.1120784
579.3944475
583.9418828
588.7718701
594.1843161
599.5166378
604.3336539
609.4705709
615.2665974
621.5605931
628.0712239
633.1724311
638.6883142
644.5523729
650.3878368
656.7126833
662.0863317
667.4254706
673.3550742
680.0931221
686.2317353
692.2437711
698.8175351
705.2017927
712.0497608
718.424843
725.3941994
733.0076929
739.940168
747.2223709
754.5270699
761.6638611
768.7654527
775.9022979
782.2806136
788.5258364
795.6632799
802.6559761
808.7827552
815.1251372
821.1250152
826.5007633
829.8274077
814.2331178
786.6116334
759.3588172
730.5267125
)


100
(
332.8011292
342.4532571
350.9078083
358.5689064
364.8854752
371.96109
377.3588001
384.1484214
388.764574
394.4704275
399.3558565
403.63899
408.96245
413.1741104
417.3820525
422.4994224
427.4550748
431.7091632
436.6587625
442.203646
447.3464282
451.516977
456.1960905
461.3444751
466.8740984
470.5615207
474.7434375
479.382756
482.9987188
486.1747119
489.6809288
495.8216216
500.6777878
503.7915772
507.2338112
513.276836
518.7774537
521.4805503
525.0149413
531.5496644
538.5217636
542.3186259
546.2313019
552.0984475
558.3004397
563.1930911
568.0020221
574.2766734
580.8417497
587.2703996
592.7811677
597.6739889
602.8234816
608.2204591
614.4059379
620.8337922
625.6099912
630.6061302
636.21117
642.2252574
648.5119026
653.8872993
659.9590926
666.3244811
672.671318
679.2587289
685.6115439
691.1371465
696.9231666
704.0486524
711.4763883
717.8669093
724.3202451
730.6361962
737.1069397
743.863647
749.911446
757.0826158
764.9065819
772.0593585
779.0739906
786.2318377
793.522992
800.9153101
808.4420692
816.0930366
823.3264256
830.2326197
836.6526006
844.0847082
851.4865251
857.950045
864.4569249
870.6353961
876.2639737
879.3437806
859.7750979
833.9404287
807.7376211
780.0270068
)


100
(
332.7384372
343.7318284
353.0265381
361.2458123
368.9504192
376.4906392
383.0470272
389.9278391
396.2849454
401.8598947
408.4193067
413.181502
418.364719
424.4841052
429.0862012
434.0678199
439.848569
445.4971137
450.3749945
455.8885159
461.9005372
468.0012246
472.5479598
477.5836335
483.0514832
489.160003
493.816599
498.3339058
503.2970299
507.0061054
510.4934049
515.0167478
522.3960451
527.3507715
530.7386516
535.5874305
542.2282924
547.9277601
550.9136391
556.6919485
563.4907963
570.6574077
575.0795699
580.7108305
586.7662489
593.1259867
599.2290633
604.6761436
610.4484615
616.4878591
622.7211993
629.4968814
635.6061466
640.894182
646.4379851
652.9189264
659.7067722
666.6919923
672.4936807
678.3104934
684.3549373
690.3916473
696.9442123
703.4966464
709.647932
716.0044479
723.0301141
730.3964903
737.2415012
743.8039519
750.9186979
757.8690001
765.3977996
771.9577733
778.110929
785.6815286
793.5901078
800.7223464
807.8296027
815.0714916
822.4003931
829.7936118
837.2945056
844.9760461
852.4156279
859.7130026
867.152254
874.5719161
881.9164948
889.0344869
896.064981
902.9266642
909.9658072
916.6879696
921.9601844
924.5795194
902.551484
878.4796721
853.3105161
826.4838511
)


100
(
332.7839455
344.368957
354.6496934
363.9969322
373.2472207
380.685584
388.9928366
395.7374281
403.6070176
409.5225437
415.9564244
423.0384348
428.102129
434.0768552
440.8958069
445.992376
451.6870347
458.1279613
464.6657539
470.0449903
475.9318043
482.2563221
489.2989738
494.2494769
499.6220764
505.3997876
511.8204649
517.7760058
522.6027066
527.8627336
531.6799106
535.4113985
541.9808657
549.5772352
554.6878585
558.4490769
564.9609427
571.8217954
577.7668681
582.4141674
589.0697498
596.0590872
603.3245157
609.3218848
614.7713106
620.516606
626.5369998
633.2583136
640.2767462
646.1677633
652.3154844
658.7473725
665.6065129
672.6506379
679.4202539
685.2484064
691.8853721
698.7355458
705.618439
712.7320205
719.4587071
725.350616
731.4473368
738.5281985
746.1207325
753.1883772
759.8264904
767.0135111
774.1230961
781.5573378
789.1254027
795.9513681
803.2239435
811.2658825
819.2019791
826.3726163
833.7439431
841.2004492
848.6406173
856.1218012
863.7159518
871.4998256
878.9061599
886.2330398
893.7060939
901.2902771
909.126738
917.1347093
924.4354811
931.9245032
939.1505501
946.5195021
953.4414989
960.0916012
965.3026672
966.1954909
942.166292
919.7169779
895.5858989
869.6914291
)


100
(
332.9341325
345.1853346
356.3696415
366.971585
376.4959359
385.0391496
393.9611778
401.7944838
409.5732342
417.4887302
423.8141671
431.018502
438.1922884
444.0546423
450.7445468
458.3380977
464.0709578
470.3847633
477.3010317
484.675511
490.4380038
496.6634514
503.3056514
510.6628106
516.7020845
522.3960563
528.4794044
535.1866357
542.2550406
547.6341811
553.1456127
557.0616685
562.2292349
569.6667584
577.4582736
582.7567546
588.3611594
595.0948567
602.155103
608.8215196
614.9186076
621.1662266
627.7134833
634.5120688
642.0327638
648.4155063
654.3520889
660.549496
667.5269801
674.9344488
682.5776068
688.8166017
695.4162806
702.3587829
709.4492074
716.6519619
724.2690211
730.804704
737.5338599
744.4284919
751.9602198
759.8020234
766.7264287
773.2692156
780.6634844
788.1990441
795.5042417
802.9932871
809.7660407
816.7851466
825.281216
834.0055339
841.3838607
849.191774
857.0589773
864.9660218
872.6546813
880.3457624
888.0906917
895.8595285
903.4172702
911.0107055
918.6138945
926.2056852
934.0308258
941.9618536
949.3555017
957.2397823
965.1071427
972.7500424
980.52632
987.9940789
995.4982805
1002.026849
1007.977599
1003.663967
978.34478
957.8696406
934.3523355
909.4886366
)


100
(
332.9514528
346.0907937
358.2377685
369.9178244
379.5514369
389.5996321
398.4346254
408.0597696
415.732769
424.2174079
431.9024261
439.0000479
446.8923506
454.3518831
460.9935713
468.372376
476.6541892
482.953385
489.7488872
497.057532
505.2495213
511.3833501
517.9232788
524.9111327
532.5159201
539.7282281
545.7125965
552.1094745
559.0541153
566.3257349
573.1881978
578.958648
582.9301333
590.1722647
597.8129548
605.7667063
612.1425234
618.6492497
625.0642288
631.7778503
639.1326377
645.9609434
652.3894375
659.1157623
666.151147
673.8620139
681.788392
688.5467049
694.902773
702.1553006
709.633241
717.2910644
725.0743114
732.0750596
738.8980688
745.8944543
753.0745699
761.3640024
769.6017392
776.4154587
783.5620689
791.3295084
799.2087318
807.0397884
814.5072578
821.4813825
828.56117
836.727401
845.3362573
852.25179
860.3940088
868.802391
877.1586593
885.3679187
893.5265899
901.7985687
909.8874609
917.6025149
925.3900263
933.1840489
941.0738691
949.0137766
957.0713053
965.1565904
972.7589705
980.4804139
988.1849423
996.5835398
1004.253279
1012.457391
1020.466925
1028.421759
1036.128785
1042.928433
1048.947905
1038.319814
1012.632447
993.8561994
970.880237
946.5449133
)


100
(
332.7977473
347.1642747
360.23657
371.8338089
382.6477041
393.5096425
402.9857838
412.8579077
422.0127778
430.3976675
439.5157739
447.0996699
454.9264562
463.5237636
471.3814332
478.6370273
486.5398414
495.3851881
502.3317632
509.5089745
517.1980096
525.6162721
532.6511977
539.4746091
546.7717689
554.5944588
562.7693137
569.2894146
575.9523779
583.112149
590.5568234
598.3080675
604.8199848
610.6861893
618.2243457
625.790122
633.2575883
641.0045017
647.3064312
653.9205229
660.8144233
668.42759
676.5782376
683.6309484
690.4928636
697.7982793
705.625497
713.6438534
721.8504369
729.1845368
736.4188073
743.6549315
751.0295307
758.8799509
767.7036855
774.8332256
781.9041702
789.6096817
797.9368238
806.4327101
814.8504834
822.1350265
829.4337581
836.8477309
845.2011462
854.1173733
861.189898
868.9467075
877.4018296
885.9239389
894.3995865
902.6019488
910.7077882
918.9192784
927.1024247
935.2148497
943.7926918
952.3767423
960.6826602
968.9344868
977.0882283
985.0931196
993.1500632
1001.292869
1009.36793
1017.708834
1025.467734
1033.423195
1041.845241
1050.366343
1058.870811
1066.854042
1074.645451
1081.745471
1086.310623
1070.736055
1047.306998
1028.282515
1006.234236
982.9876342
)


100
(
332.7380092
347.9451532
361.4488543
373.7917837
385.8561806
396.63652
407.6117911
417.373412
427.9182869
436.6102682
445.604392
455.2898054
463.0284903
471.4784404
480.6677276
488.9076896
496.6775622
505.005732
514.2983744
521.9443344
529.4047721
537.4038042
546.0165888
554.022139
561.087541
568.648993
576.6606258
584.9913761
592.8684707
599.7396433
607.0729364
614.6627012
622.5111692
630.7133045
637.5646286
644.6691669
652.0399317
659.6341478
668.0282269
675.7502555
682.5304226
689.5833771
697.4245947
705.6498881
714.1272775
721.5185582
729.0018773
736.8942275
744.9071931
752.9306578
761.5176304
769.151132
776.38342
783.7904343
792.1422755
801.0015972
810.0119172
817.2396859
825.3394881
833.4564329
841.3386542
849.9702403
858.4091342
865.7582211
873.5567703
882.5291176
891.6407158
900.1003156
908.3766606
916.693374
925.1031258
933.5554647
941.8545725
950.1812068
958.6663742
967.5630868
976.475018
984.9651612
993.3542909
1001.528459
1010.023688
1018.49092
1027.143166
1035.638257
1043.706871
1051.742426
1060.106412
1068.734646
1077.453502
1085.606415
1094.219195
1102.355671
1110.623906
1117.48845
1120.65501
1102.665295
1081.023088
1062.667196
1041.35062
1018.261175
)


100
(
332.7687577
348.412644
362.5986314
375.8048573
388.4750557
399.7744349
411.4851604
421.9324888
432.3744436
442.8815784
451.7593322
461.3609828
471.1841308
479.4977084
488.4452002
498.1919567
506.8463037
515.035486
523.7769989
533.3252451
541.7195408
549.410389
557.6720748
566.4450984
575.4987784
582.764344
590.5386778
598.7149269
607.1687661
615.8995692
623.4654395
630.9145879
638.6154542
646.546661
654.9475116
663.4146732
670.642066
678.1379298
685.8960993
694.4391466
703.2191758
710.9553869
718.1292639
726.163334
734.4492259
742.9371539
751.6026392
759.6058306
767.3381233
775.2372047
783.226855
792.1087216
801.2602681
808.6022497
816.1770706
824.8788705
833.7254505
842.6322386
851.5144818
859.1027517
866.7928802
874.7148344
884.1577018
893.7334559
901.35969
910.0120038
918.8895305
927.8215821
936.6922258
945.3471412
954.088257
962.9258232
971.5694867
980.0317559
988.6198456
997.27087
1006.018512
1014.772947
1023.559568
1032.647328
1041.684499
1049.998759
1058.399015
1066.979839
1075.714058
1084.570404
1092.954121
1101.350737
1109.558523
1118.56093
1127.178841
1135.589993
1143.984743
1151.754056
1153.588269
1134.239642
1113.880691
1096.311799
1076.026748
1053.932681
)


100
(
332.8865012
348.9614957
363.7809837
377.9348729
390.5279593
403.0216077
414.6381548
426.5934872
436.9150336
447.7881538
458.0684571
467.5292667
477.5976171
487.6410384
496.4470097
505.8139778
516.0169635
525.188452
533.7102103
542.7862039
552.489886
561.7157428
569.6083499
578.096871
587.0111959
596.2334384
604.6055204
612.5527902
620.863922
629.4121231
638.1877903
647.2259692
654.7667964
662.5662169
670.5948379
679.1926806
688.4901466
696.6659536
704.267477
712.2311837
720.8576934
729.6889516
738.7375774
746.6787511
754.7912546
763.0022658
771.3122082
779.8341838
789.5181729
797.4575447
805.341475
813.5094326
822.49805
831.6084477
840.646538
848.6424418
857.0528182
865.4310369
873.8052741
883.5435139
892.0294123
899.7153849
908.5598697
917.9772793
927.4319153
936.7750957
945.6619445
954.3917327
963.2098772
972.07989
980.7235067
989.3817437
998.600872
1007.766076
1016.818613
1025.898163
1034.994367
1043.665313
1052.574901
1061.427528
1070.416488
1079.252369
1088.381325
1097.414076
1105.925332
1114.788918
1123.666833
1132.522261
1141.332542
1149.596876
1158.886596
1167.453347
1175.684066
1183.353323
1183.577442
1164.945918
1145.430436
1128.786579
1109.423219
1088.442002
)


100
(
332.8676106
349.58721
365.0789516
379.4557296
392.6225558
406.0030018
417.8779937
430.11655
441.5925781
452.3617286
463.694769
473.8760472
483.8026614
494.3597893
504.651371
513.8801847
523.5978035
534.1696671
543.9479325
552.7236161
562.0498391
571.8740664
581.9999004
590.1018172
598.781198
607.8233493
617.1337227
626.7131244
634.8055872
643.2119383
651.8557002
660.6914019
670.195511
678.8381858
686.7289568
694.8567414
703.6491164
712.9759937
722.5316153
730.6517023
738.7730452
747.4753793
756.3473938
765.3359915
774.6149329
783.112375
791.282058
799.6050668
808.4089591
818.0281959
827.7221681
835.5709185
844.0229728
852.994205
861.9994028
870.7455862
880.17684
888.3518688
896.6227895
905.5909616
915.3016406
924.9988331
933.1171577
942.2780579
951.5611575
960.8544976
970.1202791
979.1940741
988.3152352
997.459555
1006.737258
1016.38284
1025.424285
1034.479046
1043.530996
1052.496991
1061.576473
1070.770891
1080.291121
1089.85703
1098.719629
1107.587641
1116.283647
1125.707611
1135.126868
1144.931465
1153.806149
1162.320588
1171.228149
1180.189891
1189.159835
1198.905487
1206.790542
1214.670014
1211.839463
1194.092061
1175.943432
1159.701306
1141.111701
1120.915753
)


100
(
332.7792738
350.3185046
366.2673438
380.7814232
394.8426572
408.1532427
421.2551683
433.3964531
446.0347674
457.1117894
468.3215026
480.164095
490.2202193
500.5520899
511.592398
522.1836988
531.7699455
541.8632299
552.6342719
563.098859
572.0614746
581.5968916
591.5333212
601.7435318
610.9274863
619.7675481
628.9235367
638.3054875
647.9000682
657.352841
665.8460885
674.56554
683.4537251
693.0895485
703.072532
711.2049678
719.4159681
728.4013346
737.7717224
747.346556
757.1197062
765.5980707
774.1774744
782.8615949
791.6670532
801.2876109
811.6165688
819.7877917
828.109675
837.2357721
846.8048834
856.4914714
866.0129679
874.496037
882.9959889
891.5671534
900.8953311
911.1976374
919.7900218
928.0517354
937.62653
947.2309153
956.9184881
966.4919186
975.9800111
985.0937162
994.2929847
1003.563928
1012.540846
1021.734433
1031.335028
1040.923832
1050.462515
1059.988264
1069.505577
1079.304811
1088.452871
1097.439509
1106.590846
1115.980325
1125.479419
1135.307532
1144.466646
1153.427936
1163.182699
1172.594544
1181.821574
1191.089655
1200.127956
1209.511682
1218.406243
1227.663508
1236.567921
1244.042865
1240.448741
1221.685638
1204.55399
1189.126741
1171.113751
1151.745787
)


100
(
332.7671153
350.6728262
366.9951102
382.1356052
397.006283
410.3693309
424.1861754
436.7756119
449.3242212
462.0006087
473.1113884
484.6641399
496.8023833
507.0238215
517.6994935
529.1396184
540.1485651
550.0270843
560.4171433
571.3261419
582.5105095
591.6612422
601.3706477
611.407393
621.6848358
632.0289821
640.9761637
650.1982683
659.6357683
669.2594003
679.9150637
688.6974371
697.4758996
706.4281356
716.195382
726.1858613
735.9535851
744.2182674
753.3634955
762.7977427
772.3820243
781.9212193
792.1207795
800.6353686
809.327806
818.1536916
828.1251693
838.4344791
848.4775709
856.7866159
866.1858897
875.7002881
884.7892595
894.5375623
904.2188426
912.6788404
921.1907343
931.1761884
941.3651871
951.3093573
960.2150398
969.6863567
979.2264352
988.8379622
998.4091091
1007.800244
1017.235337
1026.70814
1036.533315
1046.54723
1056.103725
1065.537079
1074.984774
1084.371567
1094.037718
1103.813756
1113.610858
1123.366109
1133.052365
1142.36344
1151.806671
1161.271133
1170.86555
1180.839832
1190.46756
1199.640677
1209.266966
1219.083968
1228.941792
1237.830839
1247.441165
1256.522923
1265.024263
1273.168537
1267.064069
1247.932696
1231.737326
1216.944739
1199.584783
1181.060309
)


100
(
332.8275836
351.0189574
367.7695078
383.5778105
398.3833706
412.6615377
426.4146594
440.2485983
452.7140284
465.5559523
478.0138759
489.4588123
501.3224172
513.6312041
524.1947676
535.162941
546.9178991
558.4457655
568.5518121
579.1599663
590.1614791
601.399048
611.4511076
621.3036848
631.4290289
641.7510393
652.243853
662.2980184
671.5977352
681.0961499
690.8586521
701.4919121
711.7156031
720.530728
729.5926511
739.4307714
749.4266163
759.6056213
769.184083
778.4115175
787.6784238
797.0863493
806.5828604
817.2956487
827.1811881
835.8735813
844.8791198
855.0286118
865.2868706
875.6427957
885.5914789
894.424774
903.3268934
912.264456
922.7392293
933.6454128
942.3418704
951.4201196
961.4231328
971.4465235
981.5042839
991.4076537
1001.291326
1011.168976
1020.709604
1030.279585
1039.539097
1049.276423
1059.161376
1069.000348
1078.831417
1088.687738
1098.532154
1108.687844
1118.824188
1128.439818
1137.98197
1147.64581
1157.221357
1167.102795
1177.616678
1187.255733
1197.032577
1207.007925
1216.788363
1226.652846
1236.524241
1245.967637
1255.749907
1265.294253
1275.137312
1284.059505
1293.466796
1300.253898
1292.507423
1273.486389
1258.04793
1243.646762
1226.955089
1209.043535
)


100
(
332.9571203
351.4074979
368.5939025
384.872968
399.7958585
414.9700386
428.6879132
442.7553777
456.1804267
468.9277629
482.0253129
494.3504926
506.084498
518.3204745
530.8006465
541.649926
552.9385074
564.8479804
576.9814683
587.2511617
598.0145038
609.0781314
620.3497808
631.382506
641.3333996
651.4850242
661.8169287
672.4355184
683.7445708
693.0805326
702.6219697
712.5030331
723.1125695
733.8999187
743.6864402
752.8557437
762.7214178
772.7310995
782.8131054
793.1270032
803.1035511
812.3685474
821.780136
831.5045261
842.1916475
853.0141462
862.4515377
871.7839137
881.9138754
891.925557
901.6553772
912.5549157
921.9436732
930.7731192
940.1499416
950.8478836
961.6396298
971.8851337
981.549911
991.3836607
1001.271336
1011.229492
1021.148523
1030.957383
1040.80143
1050.637285
1060.989611
1071.402441
1081.799782
1091.523422
1101.225322
1110.910951
1120.857746
1130.895463
1141.031183
1151.387678
1161.707968
1171.981198
1181.431112
1190.830034
1201.006803
1211.320518
1221.753671
1231.592548
1241.036758
1251.421969
1261.520901
1271.834339
1281.572967
1291.46088
1300.855131
1310.400332
1319.138898
1326.765853
1316.89787
1298.439571
1283.739942
1269.744009
1253.436132
1235.994432
)


100
(
332.8502812
351.8557989
369.4743574
385.6975043
401.2569894
416.3698959
431.0202422
445.0090855
459.278481
472.3705948
485.3287056
498.7546349
510.9623543
522.9439383
535.4841209
548.2542044
559.3366222
570.8752736
582.8928959
595.1405803
606.0687814
616.9413248
628.057469
639.3464508
650.7951946
661.3734715
671.5792668
681.9494627
692.6750476
704.1703012
714.6524067
724.2191246
734.191585
744.7894908
755.5368292
766.4483858
776.1970367
785.9786596
795.7777445
805.693033
816.2072313
827.6436558
837.108872
846.4945881
856.4771375
867.116598
877.8618566
888.7239761
898.4291077
907.9956398
917.6323475
927.3564854
938.6624684
949.4301051
958.1563357
968.2497828
978.856615
989.4275122
999.9631573
1010.282997
1020.602276
1030.976694
1040.86097
1050.762597
1060.42475
1070.648997
1080.901135
1091.170241
1101.427926
1111.65317
1121.854761
1132.233641
1143.174334
1153.212906
1163.057282
1173.16449
1183.385194
1193.436247
1204.021832
1214.695327
1224.481894
1235.04995
1245.31774
1255.168671
1265.67663
1276.020122
1285.840571
1295.719111
1306.00461
1315.806886
1325.944916
1335.481052
1344.59267
1350.922745
1340.360909
1322.467804
1308.721819
1295.123911
1279.431093
1262.558003
)


100
(
332.8046864
352.1882891
369.9545057
386.5452635
402.7702282
417.8117901
433.1170779
447.3109814
461.5045833
475.876079
488.7568523
501.8894933
515.5849067
527.811603
539.9971246
552.7769065
565.8727307
577.2097516
588.9303619
601.0106566
613.2699219
624.9891201
635.9380208
647.0701064
658.3246014
669.8597993
681.5137726
691.7484278
702.1458918
712.9539483
724.399345
735.9980028
745.9018402
755.9354126
766.5369561
777.260919
788.0207278
799.2798545
808.9341714
818.7337351
828.6420154
839.3470484
850.687097
861.9595723
871.2888267
881.4921117
892.1125126
902.4672445
912.7047429
924.2962418
933.763454
943.2839377
953.5643361
964.7186179
975.9320711
985.880686
996.2147058
1006.56766
1016.961304
1027.395918
1037.709922
1047.940397
1058.194528
1068.455196
1079.239694
1090.09738
1100.941605
1111.060964
1121.187685
1131.26749
1141.500011
1151.853742
1162.218368
1172.965322
1183.704443
1194.379183
1205.135148
1215.066627
1225.082783
1235.592629
1246.402485
1257.185306
1267.198382
1277.155052
1287.773941
1298.140711
1308.778035
1319.039273
1329.123171
1339.336149
1349.245185
1358.484006
1367.36733
1374.225737
1363.178259
1345.550978
1332.376209
1319.450662
1304.508233
1287.985779
)


100
(
332.8166346
352.3744312
370.4174812
387.4375541
403.7006129
419.2928791
434.5381404
449.6697804
463.7906955
478.0779349
492.2515688
505.2999654
518.6234794
532.4898642
544.8607805
557.2399194
570.1733641
583.3273163
595.2238583
607.064002
619.1709164
631.4184599
643.8063401
654.9455262
666.0813849
677.3461419
688.9467211
701.2650358
712.0028212
722.4140789
733.2885543
744.6900457
756.2187936
767.7122518
777.7722952
788.311885
798.7742604
809.3156536
820.7027334
832.0139963
841.7816433
851.6639526
862.5590714
873.8082605
885.1668461
896.1939433
906.2699809
916.25518
926.2737649
937.0119077
949.0077315
959.5693163
968.9472907
979.7709617
990.7988371
1001.770477
1012.679189
1023.413272
1034.191602
1044.542154
1054.870467
1065.148477
1075.23749
1085.835753
1096.497498
1107.129437
1117.819428
1128.536259
1139.246645
1150.027559
1161.346465
1171.621511
1181.741646
1192.077319
1202.667014
1213.186115
1224.002147
1235.39013
1246.431504
1256.864333
1267.616132
1277.975695
1288.004223
1298.968126
1309.525752
1319.629945
1329.616143
1340.414133
1350.231764
1360.85986
1370.648417
1380.794169
1390.007935
1395.292044
1385.35151
1368.267902
1355.129863
1342.803155
1328.303389
1312.332953
)


100
(
332.8822931
352.6021598
370.9095009
388.3465939
404.5736565
420.8255668
436.0022513
451.3398724
466.1373408
480.3466299
494.7585577
508.7974161
521.9889523
535.5229239
549.461582
562.0900899
574.6558254
587.659891
600.8403354
613.3640498
625.268385
637.3888597
649.5837191
661.9378074
674.0283075
685.1803207
696.4536535
708.1070243
720.3580164
732.4009765
742.8006799
753.7119212
765.0859043
776.5585951
788.1309556
799.4701143