/*--------------------------------*- C++ -*----------------------------------*\
| =========                 |                                                 |
| \\      /  F ield         | OpenFOAM: The Open Source CFD Toolbox           |
|  \\    /   O peration     | Version:  2.3.1                                 |
|   \\  /    A nd           | Web:      www.OpenFOAM.org                      |
|    \\/     M anipulation  |                                                 |
\*---------------------------------------------------------------------------*/
FoamFile
{
    version     2.0;
    format      ascii;
    class       dictionary;
    location    "constant";
    object      zero;
}
// * * * * * * * * * * * * * * * * * * * * * * * * * * * * * * * * * * * * * //

zero_table
100
(
100{0}
100{0}
100{0}
100{0}
100{0}
100{0}
100{0}
100{0}
100{0}
100{0}
100{0}
100{0}
100{0}
100{0}
100{0}
100{0}
100{0}
100{0}
100{0}
100{0}
100{0}
100{0}
100{0}
100{0}
100{0}
100{0}
100{0}
100{0}
100{0}
100{0}
100{0}
100{0}
100{0}
100{0}
100{0}
100{0}
100{0}
100{0}
100{0}
100{0}
100{0}
100{0}
100{0}
100{0}
100{0}
100{0}
100{0}
100{0}
100{0}
100{0}
100{0}
100{0}
100{0}
100{0}
100{0}
100{0}
100{0}
100{0}
100{0}
100{0}
100{0}
100{0}
100{0}
100{0}
100{0}
100{0}
100{0}
100{0}
100{0}
100{0}
100{0}
100{0}
100{0}
100{0}
100{0}
100{0}
100{0}
100{0}
100{0}
100{0}
100{0}
100{0}
100{0}
100{0}
100{0}
100{0}
100{0}
100{0}
100{0}
100{0}
100{0}
100{0}
100{0}
100{0}
100{0}
100{0}
100{0}
100{0}
100{0}
100{0}
)
;