/*--------------------------------*- C++ -*----------------------------------*\
| =========                 |                                                 |
| \\      /  F ield         | OpenFOAM: The Open Source CFD Toolbox           |
|  \\    /   O peration     | Version:  2.3.1                                 |
|   \\  /    A nd           | Web:      www.OpenFOAM.org                      |
|    \\/     M anipulation  |                                                 |
\*---------------------------------------------------------------------------*/
FoamFile
{
    version     2.0;
    format      ascii;
    class       dictionary;
    location    "constant";
    object      C2H3;
}
// * * * * * * * * * * * * * * * * * * * * * * * * * * * * * * * * * * * * * //

C2H3_table
101
(

101
(
5.930279215e-28
2.251528191e-19
7.87073505e-17
1.901633954e-15
1.579045532e-14
7.260445577e-14
2.363219134e-13
6.632499297e-13
1.626350451e-12
3.594390114e-12
7.208598803e-12
1.323800732e-11
2.228507147e-11
3.490472031e-11
5.083557052e-11
6.927696301e-11
8.892528265e-11
1.079250833e-10
1.248676207e-10
1.377557088e-10
1.463001361e-10
1.503235757e-10
1.495819377e-10
1.45042905e-10
1.376274365e-10
1.282103412e-10
1.176252757e-10
1.06537656e-10
9.546641554e-11
8.479427532e-11
7.477413562e-11
6.552577233e-11
5.701855162e-11
4.956559793e-11
4.290299103e-11
3.702900238e-11
3.563202431e-11
3.740882966e-11
3.206280287e-11
2.748672784e-11
2.355464322e-11
2.009837273e-11
1.714434788e-11
1.460070979e-11
1.238893927e-11
1.050386855e-11
8.875743863e-12
7.493989538e-12
6.307973446e-12
5.302750863e-12
4.443345944e-12
3.713746877e-12
3.092547347e-12
2.565703687e-12
2.123476319e-12
1.748951578e-12
1.44070361e-12
1.177366461e-12
9.60742498e-13
7.789674909e-13
6.296539738e-13
5.056873215e-13
4.0248777e-13
3.177803367e-13
2.506674319e-13
1.960361792e-13
1.520463006e-13
1.170003313e-13
8.934162922e-14
6.746796314e-14
5.047982106e-14
3.732645493e-14
2.737349775e-14
1.980023917e-14
1.732652237e-14
1.438307063e-14
9.823060549e-15
6.631199235e-15
4.390550204e-15
2.825529329e-15
1.769881262e-15
1.102624548e-15
6.628576074e-16
5.170102381e-16
3.67362387e-16
2.004558803e-16
1.060317526e-16
5.420930876e-17
2.681013227e-17
2.02661424e-17
9.405048417e-18
3.665164337e-18
1.427540653e-18
6.332704054e-19
2.31355946e-19
4.300646694e-20
-4.232458906e-26
1.925863259e-44
3.143330804e-36
-2.661658569e-36
0
)


101
(
5.855487707e-28
-1.130985461e-18
4.613693131e-17
1.619822264e-15
1.423370298e-14
6.633080902e-14
2.163711229e-13
6.070310125e-13
1.488076253e-12
3.288147151e-12
6.597482198e-12
1.212829431e-11
2.04593707e-11
3.211614328e-11
4.694471218e-11
6.425967541e-11
8.290707603e-11
1.012453533e-10
1.17878816e-10
1.31063742e-10
1.402283861e-10
1.451140268e-10
1.455831465e-10
1.422877773e-10
1.360445866e-10
1.276655995e-10
1.179412557e-10
1.075385089e-10
9.69955696e-11
8.670506311e-11
7.694926187e-11
6.787212282e-11
5.945412075e-11
5.19511683e-11
4.516891462e-11
3.899629592e-11
3.50885782e-11
3.368130997e-11
3.03457005e-11
2.632894595e-11
2.266989008e-11
1.944647851e-11
1.6673835e-11
1.428944666e-11
1.222400042e-11
1.045145819e-11
8.921811229e-12
7.608831736e-12
6.479728331e-12
5.512073458e-12
4.681318559e-12
3.96920754e-12
3.358667286e-12
2.831930128e-12
2.381692656e-12
1.99872261e-12
1.6757433e-12
1.40039501e-12
1.167351883e-12
9.696996866e-13
8.026623116e-13
6.617998486e-13
5.428787637e-13
4.427308744e-13
3.591586557e-13
2.901298096e-13
2.328331537e-13
1.855422258e-13
1.466937651e-13
1.150993873e-13
8.957312732e-14
6.905683283e-14
5.270853849e-14
3.964372902e-14
2.994421112e-14
2.270182451e-14
1.6814924e-14
1.217319192e-14
8.643870551e-15
6.013400229e-15
4.098980302e-15
2.736997364e-15
1.785826194e-15
1.157935873e-15
7.476182325e-16
4.714604016e-16
2.881743353e-16
1.690442226e-16
9.604446882e-17
5.399545585e-17
2.950492496e-17
1.562539184e-17
7.77431323e-18
3.61503195e-18
1.645506971e-18
6.244780204e-19
9.70611574e-20
1.719753148e-19
3.196842195e-19
8.288349265e-19
2.143460727e-18
)


101
(
5.780696198e-28
-2.210306904e-18
1.757247344e-17
1.366536643e-15
1.282362664e-14
6.066089566e-14
1.984846259e-13
5.570819482e-13
1.366560769e-12
3.022679094e-12
6.076617136e-12
1.120220225e-11
1.89762772e-11
2.99286697e-11
4.402763043e-11
6.072902997e-11
7.903865942e-11
9.750883233e-11
1.147632679e-10
1.292181263e-10
1.400585082e-10
1.468590653e-10
1.494681635e-10
1.482607319e-10
1.43890842e-10
1.370852128e-10
1.285821036e-10
1.190465115e-10
1.090524608e-10
9.902170637e-11
8.929024267e-11
8.005492866e-11
7.132264683e-11
6.339510499e-11
5.603940132e-11
4.924402668e-11
4.40333224e-11
4.047504433e-11
3.687025041e-11
3.289784084e-11
2.900261411e-11
2.539561979e-11
2.222199287e-11
1.944164898e-11
1.698804223e-11
1.484372325e-11
1.296227479e-11
1.131008688e-11
9.859428455e-12
8.586242684e-12
7.467724825e-12
6.485803623e-12
5.625934109e-12
4.870768575e-12
4.206397449e-12
3.623809493e-12
3.115065234e-12
2.671262129e-12
2.285437263e-12
1.949232596e-12
1.65765531e-12
1.404506434e-12
1.184677518e-12
9.951015853e-13
8.323023344e-13
6.930164527e-13
5.735971405e-13
4.718050169e-13
3.857139552e-13
3.129173502e-13
2.520843959e-13
2.012473502e-13
1.595529177e-13
1.251092043e-13
9.712997705e-14
7.485814305e-14
5.71794261e-14
4.319952338e-14
3.222529702e-14
2.365945553e-14
1.709692313e-14
1.213435108e-14
8.45641494e-15
5.772213974e-15
3.86576612e-15
2.540240359e-15
1.658918833e-15
1.062616287e-15
6.579831249e-16
3.987718639e-16
2.344713992e-16
1.333725359e-16
7.676829056e-17
4.166075448e-17
2.252599156e-17
1.118904108e-17
3.202640797e-18
7.02917914e-18
1.476315161e-17
3.672202235e-17
7.847254677e-17
)


101
(
5.70590469e-28
-3.041056199e-18
-7.339067456e-18
1.139167014e-15
1.154561516e-14
5.552859344e-14
1.824104572e-13
5.125518209e-13
1.259260117e-12
2.791096755e-12
5.629198209e-12
1.042250505e-11
1.776095515e-11
2.820296332e-11
4.184842418e-11
5.831333914e-11
7.677475319e-11
9.596960974e-11
1.145537725e-10
1.310464711e-10
1.444216208e-10
1.540402521e-10
1.596420701e-10
1.613345256e-10
1.595637357e-10
1.549455212e-10
1.481448246e-10
1.398071117e-10
1.305487695e-10
1.208311085e-10
1.110547252e-10
1.015038885e-10
9.222011268e-11
8.361925099e-11
7.540067465e-11
6.73434879e-11
6.108380285e-11
5.580624118e-11
5.104080357e-11
4.64655656e-11
4.192828591e-11
3.755248692e-11
3.35556238e-11
2.994425369e-11
2.668528217e-11
2.378374801e-11
2.118659299e-11
1.886485892e-11
1.677741476e-11
1.490799843e-11
1.322522508e-11
1.171610524e-11
1.036658122e-11
9.158359225e-12
8.074821191e-12
7.10745697e-12
6.238507028e-12
5.462733333e-12
4.773841411e-12
4.159313363e-12
3.615431022e-12
3.133425996e-12
2.705809913e-12
2.328392806e-12
1.996121144e-12
1.703879627e-12
1.447700516e-12
1.222708114e-12
1.028249023e-12
8.595658503e-13
7.139691587e-13
5.884523609e-13
4.819585275e-13
3.914474556e-13
3.149270979e-13
2.510181379e-13
1.981711263e-13
1.549095649e-13
1.19913796e-13
9.184270071e-14
6.952524325e-14
5.182215214e-14
3.803995551e-14
2.742726646e-14
1.939670834e-14
1.343765014e-14
9.142989371e-15
6.184903341e-15
4.094600288e-15
2.623289931e-15
1.637776118e-15
1.002825017e-15
6.160370149e-16
3.640854131e-16
2.128036739e-16
1.155099959e-16
3.72474109e-17
1.006028776e-16
2.291114549e-16
5.965148035e-16
1.494276381e-15
)


101
(
5.631113181e-28
-3.649375443e-18
-2.892100484e-17
9.35357356e-16
1.038664436e-14
5.08757572e-14
1.679308301e-13
4.727183267e-13
1.16405389e-12
2.587750832e-12
5.241650401e-12
9.759493367e-12
1.675446092e-11
2.68303189e-11
4.022465354e-11
5.67280164e-11
7.570081072e-11
9.606622774e-11
1.16534852e-10
1.356961377e-10
1.523452055e-10
1.656126208e-10
1.750642033e-10
1.805235141e-10
1.821979009e-10
1.80546314e-10
1.761309124e-10
1.695588678e-10
1.614754699e-10
1.523809374e-10
1.427254447e-10
1.329205611e-10
1.230398645e-10
1.136918896e-10
1.045454742e-10
9.557035157e-11
8.757169078e-11
8.057246869e-11
7.432201837e-11
6.854210174e-11
6.296016301e-11
5.749239382e-11
5.234390844e-11
4.754772081e-11
4.310501198e-11
3.90668245e-11
3.538434421e-11
3.203838172e-11
2.897523425e-11
2.61883509e-11
2.363184838e-11
2.129346969e-11
1.916242198e-11
1.722555082e-11
1.545898791e-11
1.38463546e-11
1.238330541e-11
1.104790685e-11
9.83985553e-12
8.735420577e-12
7.739091288e-12
6.841695113e-12
6.030121099e-12
5.300997239e-12
4.646003645e-12
4.053771966e-12
3.522996759e-12
3.048063826e-12
2.626376778e-12
2.253104125e-12
1.920152413e-12
1.626446864e-12
1.369325289e-12
1.14558683e-12
9.508864864e-13
7.825964184e-13
6.376338057e-13
5.151978929e-13
4.122858239e-13
3.267495811e-13
2.565614139e-13
1.988467575e-13
1.521497e-13
1.147191537e-13
8.502109655e-14
6.184245328e-14
4.408565576e-14
3.100573529e-14
2.163008088e-14
1.472103869e-14
9.716733421e-15
6.253909286e-15
3.960771505e-15
2.495440008e-15
1.549754701e-15
8.972745172e-16
3.534080222e-16
1.032662175e-15
2.336486872e-15
5.837480499e-15
1.152274797e-14
)


101
(
5.556321659e-28
-4.059480131e-18
-4.74697737e-17
7.529788377e-16
9.335090327e-15
4.665116052e-14
1.548570679e-13
4.369676201e-13
1.079174876e-12
2.40801787e-12
4.90304427e-12
9.189633563e-12
1.591064666e-11
2.572673365e-11
3.901665795e-11
5.575675241e-11
7.550482813e-11
9.737947191e-11
1.201755999e-10
1.42544212e-10
1.63135743e-10
1.808541369e-10
1.95051741e-10
2.052436903e-10
2.113653404e-10
2.136754374e-10
2.12587413e-10
2.086361162e-10
2.024730651e-10
1.946266108e-10
1.856117986e-10
1.758721663e-10
1.655990375e-10
1.556341969e-10
1.455929868e-10
1.355832588e-10
1.260487492e-10
1.172533156e-10
1.092599047e-10
1.019332469e-10
9.496181368e-11
8.811790482e-11
8.154882976e-11
7.527681275e-11
6.930937049e-11
6.375290052e-11
5.859081762e-11
5.384424702e-11
4.944438835e-11
4.537649155e-11
4.157980767e-11
3.803921822e-11
3.475211779e-11
3.172044496e-11
2.892200148e-11
2.632049284e-11
2.391950361e-11
2.169342614e-11
1.965440825e-11
1.775129035e-11
1.599063972e-11
1.438638122e-11
1.29048869e-11
1.155262712e-11
1.032038332e-11
9.185178722e-12
8.144159289e-12
7.1921074e-12
6.323513293e-12
5.546818091e-12
4.836557831e-12
4.194018196e-12
3.614973368e-12
3.099004065e-12
2.639325616e-12
2.231872519e-12
1.872422768e-12
1.557980208e-12
1.283295667e-12
1.047980173e-12
8.483428475e-13
6.808381726e-13
5.393465671e-13
4.223304463e-13
3.257932058e-13
2.475262211e-13
1.842689449e-13
1.350701656e-13
9.778874039e-14
6.998479923e-14
4.86455535e-14
3.310184192e-14
2.212471773e-14
1.446714647e-14
9.469736623e-15
5.814171759e-15
2.667138883e-15
7.190222282e-15
1.614689684e-14
4.590326976e-14
9.655445682e-14
)


101
(
5.481530164e-28
-4.293806423e-18
-6.325745202e-17
5.901061611e-16
8.380567732e-15
4.280959137e-14
1.430253179e-13
4.047758184e-13
1.003142987e-12
2.248088441e-12
4.60450173e-12
8.694033259e-12
1.519280562e-11
2.48258237e-11
3.811441343e-11
5.522926243e-11
7.594100666e-11
9.957859851e-11
1.250568071e-10
1.510995384e-10
1.762517087e-10
1.992105052e-10
2.191019701e-10
2.351083238e-10
2.468549876e-10
2.54361759e-10
2.578417028e-10
2.577009862e-10
2.545599574e-10
2.489530696e-10
2.414450703e-10
2.325110014e-10
2.224035057e-10
2.122545371e-10
2.01660869e-10
1.908181188e-10
1.800105764e-10
1.695556787e-10
1.597659398e-10
1.507155441e-10
1.421374585e-10
1.336952693e-10
1.255034156e-10
1.175399694e-10
1.097769204e-10
1.023646133e-10
9.532863202e-11
8.878268974e-11
8.265603242e-11
7.690883642e-11
7.147768865e-11
6.63117279e-11
6.142340184e-11
5.683791297e-11
5.256607846e-11
4.853043014e-11
4.473597531e-11
4.116717115e-11
3.784038706e-11
3.469555214e-11
3.174511815e-11
2.900619153e-11
2.643641627e-11
2.403738109e-11
2.181960945e-11
1.975279915e-11
1.78208147e-11
1.60205443e-11
1.434290277e-11
1.280258201e-11
1.138293743e-11
1.007549742e-11
8.870816209e-12
7.768770538e-12
6.763817662e-12
5.852616854e-12
5.033987215e-12
4.296953888e-12
3.634911853e-12
3.049464844e-12
2.53692077e-12
2.096312303e-12
1.71313837e-12
1.385264472e-12
1.107471779e-12
8.73373116e-13
6.771544259e-13
5.163222953e-13
3.888105909e-13
2.901896758e-13
2.114430475e-13
1.505155735e-13
1.06035385e-13
7.304419671e-14
5.019018589e-14
3.190390036e-14
1.621833699e-14
4.833024666e-14
1.08834888e-13
2.918943738e-13
5.555461057e-13
)


101
(
5.406738642e-28
-4.373146963e-18
-7.653410485e-17
4.44996099e-16
7.513791867e-15
3.931117336e-14
1.32293706e-13
3.756980929e-13
9.347209544e-13
2.10483019e-12
4.338844075e-12
8.257590689e-12
1.457192658e-11
2.407535234e-11
3.743161133e-11
5.501170891e-11
7.681437592e-11
1.023988513e-10
1.308399446e-10
1.609618362e-10
1.912506036e-10
2.20229276e-10
2.468045309e-10
2.698151578e-10
2.885351442e-10
3.02711409e-10
3.123119027e-10
3.175469583e-10
3.18945798e-10
3.170095225e-10
3.123293406e-10
3.054013532e-10
2.964831173e-10
2.870065638e-10
2.765971993e-10
2.655422604e-10
2.540262167e-10
2.423539836e-10
2.310417955e-10
2.203565329e-10
2.101518353e-10
2.000274903e-10
1.901430464e-10
1.804046624e-10
1.707158171e-10
1.612531585e-10
1.520442177e-10
1.433171188e-10
1.350639612e-10
1.272347655e-10
1.197550443e-10
1.125106192e-10
1.055510182e-10
9.891263544e-11
9.262880835e-11
8.662157551e-11
8.090576834e-11
7.542620052e-11
7.023538564e-11
6.524702314e-11
6.049241989e-11
5.601426792e-11
5.175732144e-11
4.772925263e-11
4.393436119e-11
4.035534602e-11
3.695445798e-11
3.374898251e-11
3.070686055e-11
2.785258517e-11
2.518537911e-11
2.268049656e-11
2.033517253e-11
1.814378874e-11
1.610795728e-11
1.421885664e-11
1.249021527e-11
1.09048504e-11
9.452590335e-12
8.129314904e-12
6.932605056e-12
5.871726059e-12
4.935461185e-12
4.105190106e-12
3.384608366e-12
2.759615282e-12
2.218243726e-12
1.755287789e-12
1.373270333e-12
1.063197277e-12
8.110147488e-13
6.029026134e-13
4.443594067e-13
3.22199373e-13
2.306461667e-13
1.565555297e-13
8.856030828e-14
2.622387618e-13
5.771281976e-13
1.481832411e-12
2.742539234e-12
)


101
(
5.331947147e-28
-4.316776733e-18
-8.752980136e-17
3.160690764e-16
6.726449829e-15
3.612061183e-14
1.22538873e-13
3.493559679e-13
8.728731469e-13
1.975668327e-12
4.100268288e-12
7.868296482e-12
1.402518015e-11
2.343448411e-11
3.690066296e-11
5.49987889e-11
7.79697808e-11
1.056258244e-10
1.372454128e-10
1.717936108e-10
2.077537984e-10
2.435183374e-10
2.777963228e-10
3.090993352e-10
3.363094674e-10
3.588656981e-10
3.764596179e-10
3.890406163e-10
3.969667373e-10
4.006423196e-10
4.006490809e-10
3.97492356e-10
3.913811853e-10
3.840050293e-10
3.750439355e-10
3.648912774e-10
3.536624187e-10
3.416400032e-10
3.295329495e-10
3.177259589e-10
3.062517794e-10
2.947294686e-10
2.833353245e-10
2.719368183e-10
2.603873921e-10
2.488922491e-10
2.374373952e-10
2.263455705e-10
2.157244728e-10
2.055089999e-10
1.955777871e-10
1.858520102e-10
1.763857717e-10
1.671425437e-10
1.582923235e-10
1.49764303e-10
1.415026779e-10
1.334542793e-10
1.257325411e-10
1.182044276e-10
1.109142152e-10
1.039387227e-10
9.71776224e-11
9.071648818e-11
8.454514315e-11
7.86710119e-11
7.303420371e-11
6.762144792e-11
6.240622343e-11
5.7382635e-11
5.263095613e-11
4.809876252e-11
4.383597292e-11
3.978566389e-11
3.593108883e-11
3.228823794e-11
2.88846153e-11
2.57087446e-11
2.275031299e-11
1.999076776e-11
1.7444444e-11
1.511143834e-11
1.301920297e-11
1.111000368e-11
9.411592096e-12
7.889123112e-12
6.55266166e-12
5.36054682e-12
4.34216756e-12
3.481222459e-12
2.755102674e-12
2.134898222e-12
1.643541412e-12
1.2493179e-12
9.350269309e-13
6.775347611e-13
4.193201856e-13
1.176647583e-12
2.495888259e-12
6.044349727e-12
1.140696798e-11
)


101
(
5.257155597e-28
-4.142563364e-18
-9.645651724e-17
2.018919482e-16
6.011091913e-15
3.320654612e-14
1.13652551e-13
3.254236718e-13
8.167274938e-13
1.858474153e-12
3.88405807e-12
7.516528392e-12
1.35344655e-11
2.287100421e-11
3.646817024e-11
5.510668397e-11
7.928194251e-11
1.09082778e-10
1.440368196e-10
1.833008982e-10
2.254225515e-10
2.687192653e-10
3.117308942e-10
3.526962007e-10
3.90078121e-10
4.229719902e-10
4.507583641e-10
4.730656986e-10
4.899954834e-10
5.017712415e-10
5.089051517e-10
5.118983513e-10
5.108906673e-10
5.077551921e-10
5.021503475e-10
4.94660204e-10
4.853921585e-10
4.745783394e-10
4.6309736e-10
4.513469364e-10
4.395025227e-10
4.272583597e-10
4.149685533e-10
4.024461182e-10
3.895070932e-10
3.763940858e-10
3.630056871e-10
3.497663853e-10
3.368051345e-10
3.241120209e-10
3.115992329e-10
2.992388289e-10
2.870074133e-10
2.748408122e-10
2.629677371e-10
2.513096935e-10
2.399514267e-10
2.286129965e-10
2.176506699e-10
2.068500019e-10
1.961832577e-10
1.85853893e-10
1.756713918e-10
1.657978743e-10
1.562306088e-10
1.469894051e-10
1.380589317e-10
1.293477344e-10
1.208561462e-10
1.12573214e-10
1.045985375e-10
9.689178234e-11
8.948313475e-11
8.237791785e-11
7.554132709e-11
6.898034717e-11
6.269790989e-11
5.674112361e-11
5.113476756e-11
4.579077324e-11
4.073442838e-11
3.603237163e-11
3.169637047e-11
2.769921298e-11
2.400928933e-11
2.062817671e-11
1.761511848e-11
1.48462047e-11
1.239610844e-11
1.025604279e-11
8.384931626e-12
6.75505012e-12
5.397311515e-12
4.273464826e-12
3.329610354e-12
2.529860598e-12
1.726380086e-12
4.470510901e-12
9.049100183e-12
2.02795212e-11
3.885041613e-11
)


101
(
5.182364102e-28
-3.867067381e-18
-1.035098091e-16
1.011631303e-16
5.361047076e-15
3.054115253e-14
1.055395627e-13
3.036189962e-13
7.655519337e-13
1.751507351e-12
3.68641724e-12
7.194620571e-12
1.308546747e-11
2.235950071e-11
3.609180135e-11
5.526814225e-11
8.064807619e-11
1.126204002e-10
1.510071148e-10
1.952144838e-10
2.439322376e-10
2.95477114e-10
3.482656891e-10
4.003214191e-10
4.497067581e-10
4.951379011e-10
5.35642112e-10
5.704717783e-10
5.993908089e-10
6.223565137e-10
6.397175741e-10
6.519101532e-10
6.590054263e-10
6.630832125e-10
6.636168854e-10
6.614059484e-10
6.56643727e-10
6.494926071e-10
6.40872591e-10
6.31184335e-10
6.207237617e-10
6.092283097e-10
5.97396687e-10
5.849889145e-10
5.71812777e-10
5.581824768e-10
5.438031579e-10
5.29156421e-10
5.143700483e-10
4.996130811e-10
4.848356948e-10
4.700910818e-10
4.552751885e-10
4.402517635e-10
4.250674786e-10
4.100082368e-10
3.952192126e-10
3.801661212e-10
3.653875884e-10
3.506697519e-10
3.358548826e-10
3.212269289e-10
3.066892518e-10
2.92322333e-10
2.781440795e-10
2.641954216e-10
2.507091492e-10
2.37390581e-10
2.243159414e-10
2.113408708e-10
1.98621533e-10
1.861344669e-10
1.74007229e-10
1.622244801e-10
1.507547077e-10
1.395376438e-10
1.286295118e-10
1.181448598e-10
1.080993656e-10
9.840857768e-11
8.905680334e-11
8.021019004e-11
7.185430893e-11
6.405598594e-11
5.66895474e-11
4.9739935e-11
4.343342077e-11
3.755321991e-11
3.217917201e-11
2.739461557e-11
2.303186111e-11
1.91669292e-11
1.582795773e-11
1.297484199e-11
1.050130853e-11
8.306927168e-12
6.064985808e-12
1.462616568e-11
2.827390912e-11
5.814603359e-11
9.95094106e-11
)


101
(
5.107593247e-28
-3.505630926e-18
-1.088703083e-16
1.269862634e-17
4.770325906e-15
2.809966443e-14
9.811604249e-14
2.836971752e-13
7.187264082e-13
1.653332585e-12
3.50427793e-12
6.896494844e-12
1.26669679e-11
2.188015823e-11
3.573843796e-11
5.542989622e-11
8.198455271e-11
1.161126597e-10
1.579750608e-10
2.072891285e-10
2.629721663e-10
3.234326187e-10
3.870347786e-10
4.516369085e-10
5.149791317e-10
5.753654163e-10
6.314100647e-10
6.819548742e-10
7.263688029e-10
7.642550516e-10
7.956890803e-10
8.20941191e-10
8.39978927e-10
8.551945778e-10
8.657052439e-10
8.724630183e-10
8.75787605e-10
8.757896879e-10
8.733685492e-10
8.688969053e-10
8.627630692e-10
8.546717751e-10
8.457339944e-10
8.357763287e-10
8.24584628e-10
8.12544145e-10
7.990618015e-10
7.846458513e-10
7.694775596e-10
7.539331856e-10
7.379667239e-10
7.217455153e-10
7.051955466e-10
6.879807811e-10
6.699733176e-10
6.520548491e-10
6.338799573e-10
6.151158913e-10
5.962011006e-10
5.772928049e-10
5.579311099e-10
5.38371451e-10
5.186108379e-10
4.986986939e-10
4.788336361e-10
4.589276282e-10
4.392743638e-10
4.198712286e-10
4.006289092e-10
3.813110789e-10
3.620959974e-10
3.429130108e-10
3.239953338e-10
3.053638053e-10
2.870158601e-10
2.688299332e-10
2.509350642e-10
2.33516861e-10
2.164184313e-10
1.9979437e-10
1.835673507e-10
1.678740981e-10
1.528224457e-10
1.385419757e-10
1.247975488e-10
1.115262992e-10
9.921314478e-11
8.767880522e-11
7.686490311e-11
6.692389703e-11
5.766787593e-11
4.9329758e-11
4.186894162e-11
3.53269143e-11
2.953919097e-11
2.42629121e-11
1.88668242e-11
4.159370378e-11
7.673634688e-11
1.47591027e-10
2.460512937e-10
)


101
(
5.03287431e-28
-3.07245978e-18
-1.127051143e-16
-6.457970494e-17
4.233551099e-15
2.586002626e-14
9.130786191e-14
2.654450126e-13
6.757257764e-13
1.56276261e-12
3.335157833e-12
6.617359749e-12
1.227027948e-11
2.141773833e-11
3.538248687e-11
5.555010114e-11
8.322421951e-11
1.19454219e-10
1.647826337e-10
2.193006636e-10
2.822381093e-10
3.522036844e-10
4.275997446e-10
5.061755019e-10
5.854394776e-10
6.633106732e-10
7.379799998e-10
8.078396739e-10
8.718110295e-10
9.290473496e-10
9.792389168e-10
1.022389951e-09
1.058291072e-09
1.089677301e-09
1.115215443e-09
1.135920706e-09
1.152200144e-09
1.1641113e-09
1.172544708e-09
1.177975745e-09
1.180676776e-09
1.180226632e-09
1.178119739e-09
1.174360106e-09
1.168719338e-09
1.161736076e-09
1.152555617e-09
1.141596717e-09
1.128941828e-09
1.115276676e-09
1.100484458e-09
1.084938955e-09
1.068667448e-09
1.051137973e-09
1.032130039e-09
1.012575309e-09
9.922349216e-10
9.704956014e-10
9.481043362e-10
9.253448954e-10
9.017142025e-10
8.772367789e-10
8.52040581e-10
8.260446095e-10
7.995114185e-10
7.727966438e-10
7.457476398e-10
7.186754421e-10
6.916787059e-10
6.641682536e-10
6.365435316e-10
6.08594164e-10
5.804038159e-10
5.522510349e-10
5.242058061e-10
4.962123849e-10
4.682518614e-10
4.405605863e-10
4.131388638e-10
3.859877601e-10
3.591028821e-10
3.327441996e-10
3.070899459e-10
2.822490584e-10
2.581889615e-10
2.345423671e-10
2.118903066e-10
1.905417633e-10
1.702161196e-10
1.510576299e-10
1.329021334e-10
1.163007836e-10
1.010599415e-10
8.727712714e-11
7.494494147e-11
6.352454553e-11
5.195408581e-11
1.061245352e-10
1.873032112e-10
3.382201599e-10
5.351443046e-10
)


101
(
4.958155372e-28
-2.580695668e-18
-1.151689778e-16
-1.316549504e-16
3.745892807e-15
2.380260462e-14
8.504932584e-14
2.486754439e-13
6.36106091e-13
1.478826581e-12
3.177045064e-12
6.353454179e-12
1.18887287e-11
2.096050848e-11
3.500402752e-11
5.559561042e-11
8.431338476e-11
1.22559491e-10
1.712954131e-10
2.310475658e-10
3.014333252e-10
3.813798565e-10
4.694411219e-10
5.633551338e-10
6.604985921e-10
7.584545165e-10
8.550273093e-10
9.481541919e-10
1.036278399e-09
1.11799887e-09
1.192500506e-09
1.259436963e-09
1.318351924e-09
1.372256065e-09
1.419241695e-09
1.460321721e-09
1.495937963e-09
1.526112918e-09
1.551782419e-09
1.573649739e-09
1.591684402e-09
1.605148889e-09
1.615858431e-09
1.624027363e-09
1.629420763e-09
1.632849118e-09
1.633321117e-09
1.631114206e-09
1.626089552e-09
1.619237558e-09
1.609923022e-09
1.598982362e-09
1.586989222e-09
1.572905179e-09
1.556336666e-09
1.538042368e-09
1.518670848e-09
1.496475461e-09
1.472950137e-09
1.448103054e-09
1.421946999e-09
1.393751138e-09
1.363879396e-09
1.332341058e-09
1.299565518e-09
1.265663798e-09
1.230518784e-09
1.194841332e-09
1.158423348e-09
1.121306201e-09
1.08346665e-09
1.044815292e-09
1.004883687e-09
9.642563318e-10
9.231405641e-10
8.815986085e-10
8.398029337e-10
7.980324173e-10
7.55742871e-10
7.134595867e-10
6.708914429e-10
6.286867773e-10
5.868538234e-10
5.456653844e-10
5.054959854e-10
4.656228811e-10
4.262845411e-10
3.887354998e-10
3.526012047e-10
3.180703806e-10
2.846321794e-10
2.536432923e-10
2.245881835e-10
1.97889729e-10
1.734894819e-10
1.50879648e-10
1.283469293e-10
2.45109664e-10
4.156962624e-10
7.118096619e-10
1.100922243e-09
)


101
(
4.883436378e-28
-2.042479315e-18
-1.164053652e-16
-1.894249003e-16
3.303009575e-15
2.190993226e-14
7.928240517e-14
2.332243314e-13
5.994857277e-13
1.400722177e-12
3.028322154e-12
6.101867598e-12
1.151734464e-11
2.049987492e-11
3.458840268e-11
5.554124202e-11
8.520950018e-11
1.253577631e-10
1.773962246e-10
2.423495355e-10
3.20280895e-10
4.105584728e-10
5.120152013e-10
6.225198013e-10
7.394478269e-10
8.601168497e-10
9.820000058e-10
1.102589284e-09
1.219854944e-09
1.331813296e-09
1.437058606e-09
1.534743869e-09
1.624032281e-09
1.70818898e-09
1.784596683e-09
1.854199594e-09
1.917410275e-09
1.974218456e-09
2.025678073e-09
2.072691074e-09
2.114942377e-09
2.151241067e-09
2.183543028e-09
2.212062797e-09
2.236587853e-09
2.258412908e-09
2.276518931e-09
2.291036022e-09
2.301608165e-09
2.309248178e-09
2.312720706e-09
2.313364648e-09
2.312517882e-09
2.308458602e-09
2.300793613e-09
2.290057974e-09
2.277317711e-09
2.260279793e-09
2.240104264e-09
2.217455442e-09
2.192827326e-09
2.164651801e-09
2.132818261e-09
2.09830528e-09
2.0615494e-09
2.021696613e-09
1.979646124e-09
1.935137945e-09
1.889432476e-09
1.841897942e-09
1.792510444e-09
1.741578607e-09
1.687992745e-09
1.632346023e-09
1.574771806e-09
1.515425374e-09
1.455478474e-09
1.394536951e-09
1.332185973e-09
1.269047493e-09
1.204110838e-09
1.13886151e-09
1.07355845e-09
1.00816393e-09
9.431571533e-10
8.785532444e-10
8.139835397e-10
7.506083139e-10
6.893207079e-10
6.302846185e-10
5.717451698e-10
5.171772099e-10
4.645113627e-10
4.158840527e-10
3.70779756e-10
3.291158962e-10
2.878067929e-10
5.186510846e-10
8.493166006e-10
1.396361023e-09
2.16672893e-09
)


101
(
4.808717384e-28
-1.469010917e-18
-1.16547432e-16
-2.387106806e-16
2.900997444e-15
2.016645858e-14
7.395584445e-14
2.18947251e-13
5.655349852e-13
1.327784069e-12
2.887724422e-12
5.860338918e-12
1.115249552e-11
2.002987862e-11
3.41256315e-11
5.536928038e-11
8.587942577e-11
1.277883298e-10
1.829753639e-10
2.530134175e-10
3.384821834e-10
4.393101207e-10
5.54756391e-10
6.829573477e-10
8.21462527e-10
9.674465821e-10
1.118107328e-09
1.270514548e-09
1.422204782e-09
1.570662651e-09
1.713918597e-09
1.850461074e-09
1.978765819e-09
2.102398354e-09
2.217886798e-09
2.326071262e-09
2.42725357e-09
2.521365209e-09
2.609662864e-09
2.693184821e-09
2.771517141e-09
2.842618663e-09
2.908530932e-09
2.969392517e-09
3.024929752e-09
3.076795071e-09
3.123979964e-09
3.166976688e-09
3.204830486e-09
3.238471446e-09
3.266475846e-09
3.290083153e-09
3.311130799e-09
3.327963633e-09
3.339990092e-09
3.347292735e-09
3.351261223e-09
3.349229197e-09
3.341510105e-09
3.329360476e-09
3.313382301e-09
3.292755632e-09
3.26584212e-09
3.234904829e-09
3.199616888e-09
3.15846242e-09
3.11291389e-09
3.062842587e-09
3.010173393e-09
2.953298882e-09
2.892741007e-09
2.829395849e-09
2.761140431e-09
2.689246965e-09
2.612925878e-09
2.531577171e-09
2.448054249e-09
2.361938784e-09
2.273872255e-09
2.182525608e-09
2.087270528e-09
1.990061562e-09
1.89078537e-09
1.790750171e-09
1.689934466e-09
1.587946462e-09
1.485366988e-09
1.38292006e-09
1.282127771e-09
1.184859699e-09
1.086548721e-09
9.941756695e-10
9.037252784e-10
8.190377682e-10
7.400805704e-10
6.670243051e-10
5.951709332e-10
1.024123134e-09
1.629546097e-09
2.598464019e-09
3.807732611e-09
)


101
(
4.733998502e-28
-8.70602019e-19
-1.157189093e-16
-2.802645947e-16
2.536343699e-15
1.855836404e-14
6.902441662e-14
2.057168525e-13
5.339668506e-13
1.259457157e-12
2.754262662e-12
5.627142531e-12
1.079160168e-11
1.954665715e-11
3.360946235e-11
5.50683078e-11
8.629904881e-11
1.298008499e-10
1.87934594e-10
2.628522546e-10
3.557427127e-10
4.671988356e-10
5.970762684e-10
7.438957388e-10
9.055934474e-10
1.07939063e-09
1.262263191e-09
1.450915261e-09
1.642543711e-09
1.834184667e-09
2.02333881e-09
2.207782105e-09
2.385072571e-09
2.558957087e-09
2.725028486e-09
2.884025769e-09
3.036024591e-09
3.180762616e-09
3.319780338e-09
3.454359692e-09
3.5837387e-09
3.705209473e-09
3.820961788e-09
3.930493864e-09
4.033249117e-09
4.131438811e-09
4.224259313e-09
4.312689037e-09
4.394466965e-09
4.471038223e-09
4.54102798e-09
4.605042166e-09
4.664623521e-09
4.71937186e-09
4.767674458e-09
4.808901386e-09
4.846182464e-09
4.875605694e-09
4.895924414e-09
4.908611956e-09
4.915442135e-09
4.915715372e-09
4.907291139e-09
4.892625383e-09
4.868938316e-09
4.838129757e-09
4.798352609e-09
4.750099092e-09
4.696445859e-09
4.635157008e-09
4.568093317e-09
4.49493408e-09
4.414155258e-09
4.326898673e-09
4.231668155e-09
4.126597939e-09
4.013627547e-09
3.897251389e-09
3.775549289e-09
3.648023234e-09
3.513990993e-09
3.373553678e-09
3.226184191e-09
3.077205764e-09
2.924829139e-09
2.769012119e-09
2.609746666e-09
2.449441366e-09
2.288016892e-09
2.131692842e-09
1.972667863e-09
1.820255628e-09
1.671015469e-09
1.528554302e-09
1.395433056e-09
1.272978162e-09
1.154350227e-09
1.914610351e-09
2.978042464e-09
4.660013061e-09
6.81660268e-09
)


101
(
4.659279509e-28
-2.567054535e-19
-1.140369283e-16
-3.147773198e-16
2.205882026e-15
1.707336243e-14
6.444824791e-14
1.934207911e-13
5.045261994e-13
1.19526593e-12
2.627165127e-12
5.401013641e-12
1.043294478e-11
1.904792737e-11
3.303635626e-11
5.463158225e-11
8.645225901e-11
1.313585653e-10
1.921986914e-10
2.717077999e-10
3.717986369e-10
4.938118584e-10
6.383721849e-10
8.045056246e-10
9.907368617e-10
1.19459779e-09
1.412978321e-09
1.642305218e-09
1.87956093e-09
2.121427317e-09
2.364859572e-09
2.606969652e-09
2.844415195e-09
3.080891271e-09
3.31095523e-09
3.535322847e-09
3.753714543e-09
3.96539158e-09
4.172044249e-09
4.375391359e-09
4.574588615e-09
4.766342334e-09
4.952604339e-09
5.132208715e-09
5.304082277e-09
5.470906522e-09
5.632041427e-09
5.789009803e-09
5.938600499e-09
6.082451134e-09
6.219079685e-09
6.348782205e-09
6.472209308e-09
6.590017452e-09
6.700283304e-09
6.800595605e-09
6.896450143e-09
6.982163398e-09
7.056220673e-09
7.118359246e-09
7.171427337e-09
7.215087901e-09
7.248457165e-09
7.271985101e-09
7.281138522e-09
7.280611563e-09
7.263920674e-09
7.234025705e-09
7.193529021e-09
7.142399679e-09
7.080035514e-09
7.005578546e-09
6.91965855e-09
6.822373414e-09
6.711343458e-09
6.584936415e-09
6.444149724e-09
6.291084326e-09
6.128399184e-09
5.956527287e-09
5.774413561e-09
5.576439907e-09
5.365714989e-09
5.147916576e-09
4.922781418e-09
4.689853448e-09
4.446644351e-09
4.20115926e-09
3.948746765e-09
3.702277806e-09
3.45242756e-09
3.206029141e-09
2.965337781e-09
2.733171746e-09
2.5137e-09
2.314526913e-09
2.124590998e-09
3.434137629e-09
5.259257318e-09
8.164978524e-09
1.197597201e-08
)


101
(
4.584560515e-28
3.640251895e-19
-1.116065401e-16
-3.428840935e-16
1.906757514e-15
1.570054136e-14
6.019226882e-14