/*--------------------------------*- C++ -*----------------------------------*\
| =========                 |                                                 |
| \\      /  F ield         | OpenFOAM: The Open Source CFD Toolbox           |
|  \\    /   O peration     | Version:  2.3.1                                 |
|   \\  /    A nd           | Web:      www.OpenFOAM.org                      |
|    \\/     M anipulation  |                                                 |
\*---------------------------------------------------------------------------*/
FoamFile
{
    version     2.0;
    format      ascii;
    class       dictionary;
    location    "constant";
    object      CH3OH;
}
// * * * * * * * * * * * * * * * * * * * * * * * * * * * * * * * * * * * * * //

CH3OH_table
101
(

101
(
6.982724027e-11
5.235107603e-07
6.515582082e-06
2.369130885e-05
5.32043449e-05
9.30779472e-05
0.0001406997806
0.0001941526297
0.0002510914929
0.0003097754275
0.0003687694084
0.0004269090903
0.0004833215427
0.0005371470375
0.0005878743812
0.00063510126
0.0006784591441
0.0007175979913
0.0007528630882
0.0007835198996
0.0008101997418
0.0008330073288
0.0008516450423
0.0008665561813
0.0008780417635
0.0008863274974
0.0008916725973
0.0008943645264
0.0008946038219
0.0008926895003
0.0008888515893
0.0008833545302
0.0008765199179
0.0008680892856
0.0008585975823
0.000848113598
0.0008367110478
0.0008245519344
0.0008118548535
0.0007985439998
0.0007847359893
0.0007705717065
0.0007560415626
0.000741221728
0.0007261794456
0.000710929955
0.0006955275796
0.0006799955006
0.0006643734539
0.0006486855873
0.0006329615413
0.0006172229234
0.0006014904965
0.0005857825949
0.0005701143109
0.0005545001641
0.0005389631352
0.0005234984896
0.0005081318394
0.0004928612601
0.000477701596
0.0004626543597
0.0004477248467
0.0004329199525
0.0004182405326
0.0004036909486
0.0003892695194
0.000374977102
0.0003608187487
0.00034678607
0.0003328810355
0.0003191005745
0.0003054472385
0.000291904578
0.0002784417296
0.000265106783
0.0002519216021
0.0002388375642
0.0002258433497
0.0002129318392
0.0002000954394
0.0001873340056
0.0001746267424
0.0001619508323
0.0001493709804
0.0001368467238
0.0001243545203
0.0001118862319
9.943015852e-05
8.695152923e-05
7.45401332e-05
6.212701595e-05
4.968782144e-05
3.726098909e-05
2.481429825e-05
1.240476369e-05
-1.311589462e-14
-4.14538992e-34
2.516740709e-24
-5.657911572e-23
0
)


101
(
6.935980046e-11
4.898709134e-07
6.300722233e-06
2.302684528e-05
5.184015267e-05
9.085822558e-05
0.0001375479749
0.0001900079412
0.0002459896162
0.0003037732909
0.0003619577713
0.0004194016912
0.0004752505615
0.0005286624463
0.0005791320122
0.0006262570223
0.0006696767488
0.0007090533976
0.0007446403692
0.0007758570107
0.0008031327969
0.0008266253856
0.0008461284034
0.0008619369946
0.0008743468286
0.0008835898909
0.0008899071527
0.0008935634614
0.0008947714555
0.0008937911095
0.0008908574716
0.0008862144755
0.0008801455229
0.0008726137357
0.0008638715245
0.000854105306
0.0008434080956
0.000831903284
0.0008197730697
0.0008070589796
0.0007938154336
0.000780140594
0.0007661040483
0.0007517466458
0.0007371234334
0.0007222850753
0.0007072608456
0.0006920939809
0.0006768089281
0.0006614418674
0.0006460125309
0.0006305500683
0.0006150747246
0.0005996049902
0.0005841566009
0.0005687452347
0.0005533971421
0.0005381025323
0.0005228923489
0.0005077639623
0.0004927332853
0.0004778028239
0.000462978522
0.0004482677696
0.0004336731601
0.0004191987148
0.000404844773
0.0003906127705
0.0003765069528
0.0003625226748
0.0003486609353
0.0003349197648
0.000321300241
0.0003077929312
0.0002943815545
0.0002810709813
0.0002678845918
0.0002548151152
0.0002418461787
0.0002289650414
0.0002161620778
0.000203434789
0.0001907703636
0.0001781529866
0.0001655893517
0.0001530907037
0.0001406426608
0.0001282257374
0.0001158274629
0.0001034323359
9.104025695e-05
7.867434718e-05
6.630712606e-05
5.39195391e-05
4.152955115e-05
2.914014223e-05
1.677962806e-05
1.711763776e-05
1.745173265e-05
1.775327663e-05
1.805493874e-05
)


101
(
6.889236064e-11
4.571861079e-07
6.089719517e-06
2.237208914e-05
5.049296603e-05
8.866175225e-05
0.0001344238556
0.0001858954287
0.000240918572
0.0002977982957
0.000355165367
0.0004119014368
0.0004671701273
0.0005201469001
0.0005703331229
0.0006173273618
0.0006607753726
0.0007003504199
0.0007362342718
0.0007679522486
0.0007958032715
0.0008199506922
0.0008402619655
0.0008569437427
0.00087025935
0.0008804396896
0.0008877137776
0.0008923269821
0.0008944936842
0.0008944501831
0.0008924247277
0.0008886473912
0.0008833725617
0.000876686249
0.0008687329001
0.0008597014742
0.0008497115285
0.0008388765526
0.0008273504675
0.0008152254738
0.0008025540062
0.0007894021777
0.0007758642713
0.0007619830301
0.0007478022971
0.0007333844974
0.00071875614
0.0007039651795
0.0006890336409
0.0006739999994
0.0006588822614
0.0006437107317
0.0006285069826
0.0006132898195
0.0005980756879
0.0005828811609
0.0005677342218
0.0005526242841
0.0005375830618
0.0005226091555
0.0005077190047
0.0004929161244
0.0004782072141
0.0004636000075
0.0004490982222
0.0004347066051
0.0004204265742
0.0004062603876
0.0003922123158
0.0003782794372
0.0003644635445
0.0003507632875
0.0003371793374
0.0003237051339
0.0003103321171
0.0002970545648
0.0002838835828
0.0002708227285
0.0002578666181
0.0002450054992
0.0002322270458
0.0002195256322
0.0002068906533
0.0001943130118
0.0001817824831
0.0001693027749
0.0001568777442
0.0001444972612
0.0001321399675
0.0001197964192
0.0001074536589
9.51163786e-05
8.279270548e-05
7.045651102e-05
5.809788192e-05
4.575143339e-05
3.343475865e-05
3.408972169e-05
3.473543453e-05
3.530450709e-05
3.587333551e-05
)


101
(
6.842492083e-11
4.254542591e-07
5.882577834e-06
2.17270623e-05
4.91628637e-05
8.648873056e-05
0.0001313277788
0.000181815542
0.0002358792702
0.0002918516068
0.0003483938002
0.0004044104161
0.0004590828936
0.0005116037204
0.0005614816423
0.0006083167483
0.0006517602738
0.0006914953726
0.0007276483587
0.0007598158647
0.0007882137626
0.0008129872274
0.0008340566583
0.0008515796565
0.0008657797665
0.0008768774117
0.0008850916374
0.0008906515961
0.0008937674182
0.0008946595935
0.000893545497
0.0008906430508
0.0008861843793
0.0008803198911
0.0008731649142
0.0008648882806
0.0008556150389
0.0008454630587
0.0008345685646
0.000823041682
0.0008109477987
0.0007983393004
0.0007853139341
0.0007719210808
0.0007582008008
0.0007442177571
0.0007300002708
0.000715598156
0.0007010342748
0.0006863475849
0.0006715562915
0.0006566906609
0.0006417731848
0.0006268233613
0.0006118581752
0.0005968947786
0.0005819623904
0.0005670510249
0.0005521923195
0.000537385944
0.0005226488512
0.0005079854093
0.0004934030857
0.0004789101895
0.0004645113547
0.000450211936
0.0004360141319
0.0004219212014
0.0004079376538
0.000394061519
0.0003802958012
0.0003666396224
0.0003530939857
0.0003396535353
0.0003263139118
0.0003130687949
0.0002999218517
0.0002868749638
0.0002739272694
0.0002610768395
0.0002483142932
0.0002356316228
0.0002230166207
0.0002104631116
0.0001979605364
0.0001855042276
0.0001730928836
0.0001607322598
0.0001484048911
0.000136097603
0.0001237924169
0.0001114917345
9.919321582e-05
8.68960596e-05
7.457452191e-05
6.226511194e-05
4.999560315e-05
5.095845342e-05
5.190716414e-05
5.273971581e-05
5.357086187e-05
)


101
(
6.795748101e-11
3.946731604e-07
5.679300698e-06
2.109178622e-05
4.784992485e-05
8.433936353e-05
0.000128260101
0.0001777687337
0.0002308726048
0.0002859343929
0.0003416446673
0.00039693071
0.0004509915022
0.0005030362093
0.000552581493
0.0005992296575
0.0006426366821
0.0006824944972
0.0007188868079
0.0007514568356
0.0007803684939
0.0008057387836
0.0008275215893
0.0008458497278
0.0008609093448
0.0008729033081
0.0008820397971
0.0008885340255
0.0008925886715
0.0008944123194
0.0008942108081
0.0008921902937
0.0008885650709
0.000883515279
0.0008771584395
0.0008696449186
0.0008611038079
0.0008516481902
0.0008414058592
0.0008304931775
0.0008189858764
0.00080693489
0.0007944364932
0.0007815445861
0.0007682996595
0.0007547661907
0.0007409741859
0.0007269746387
0.000712791985
0.0006984656902
0.0006840147414
0.0006694694278
0.0006548527012
0.0006401846161
0.0006254828754
0.0006107653351
0.0005960613564
0.0005813624534
0.0005667001079
0.0005520749793
0.0005375043007
0.0005229931252
0.000508549692
0.0004941828305
0.0004798980884
0.0004657015099
0.0004515958689
0.0004375850383
0.0004236743022
0.0004098622517
0.0003961532214
0.0003825465604
0.0003690438568
0.0003556403531
0.0003423339184
0.0003291200647
0.00031600029
0.000302973081
0.0002900361973
0.0002771922047
0.0002644380306
0.0002517674222
0.0002391659098
0.0002266267214
0.0002141409131
0.0002017035881
0.0001893059978
0.0001769533964
0.0001646409209
0.0001523571886
0.0001400768481
0.0001278059351
0.0001155324773
0.0001032621094
9.097378728e-05
7.869457686e-05
6.645833886e-05
6.772959197e-05
6.898213561e-05
7.008394693e-05
7.118485882e-05
)


101
(
6.749004111e-11
3.648402999e-07
5.479891159e-06
2.046628173e-05
4.655422784e-05
8.221385324e-05
0.0001252211782
0.0001737554593
0.0002258994542
0.0002800478231
0.0003349195562
0.0003894643892
0.0004428985806
0.0004944476464
0.0005436365836
0.0005900705655
0.0006334097946
0.0006733539601
0.0007099542851
0.0007428832492
0.0007722727207
0.0007982093173
0.0008206645058
0.0008397598353
0.0008556504287
0.0008685178472
0.0008785573652
0.0008859713081
0.0008909532129
0.0008937016191
0.0008944112911
0.0008932773795
0.0008904988821
0.0008862655145
0.000880706447
0.0008739628768
0.0008661622453
0.0008574152878
0.0008478427677
0.0008375609371
0.0008266524913
0.0008151715367
0.0008032133797
0.0007908348784
0.000778078551
0.0007650086463
0.0007516562327
0.0007380727484
0.0007242842795
0.0007103312178
0.000696233688
0.0006820222607
0.0006677201746
0.0006533477889
0.0006389233475
0.0006244655515
0.0006100040018
0.0005955313727
0.0005810790061
0.0005666486722
0.0005522580382
0.0005379123107
0.000523620706
0.0005093923625
0.0004952335973
0.0004811511308
0.0004671485311
0.0004532301867
0.0004394020777
0.0004256628102
0.000412018272
0.0003984682811
0.000385015015
0.0003716541503
0.0003583845783
0.000345203442
0.000332112369
0.0003191092201
0.0003061886601
0.0002933527637
0.0002806030082
0.0002679381738
0.0002553449951
0.0002428141952
0.0002303369139
0.0002179096784
0.0002055216217
0.0001931737755
0.0001808642344
0.0001685919537
0.0001563256953
0.0001440722823
0.0001318178718
0.000119565825
0.0001073028593
9.504906916e-05
8.284033409e-05
8.442697217e-05
8.598662786e-05
8.733537284e-05
8.867861945e-05
)


101
(
6.702260138e-11
3.359529962e-07
5.284352041e-06
1.985056958e-05
4.527585136e-05
8.011240271e-05
0.0001222113692
0.0001697761806
0.0002209606877
0.0002741930717
0.0003282200543
0.0003820135234
0.0004348067546
0.000485841305
0.0005346508262
0.0005808439684
0.0006240848132
0.0006640798977
0.0007008558928
0.0007341026317
0.0007639324091
0.0007904032466
0.0008134922807
0.0008333162975
0.0008500064466
0.0008637221539
0.0008746438288
0.0008829610136
0.0008888570667
0.000892521316
0.0008941382661
0.0008938927225
0.0008919705913
0.000888559242
0.0008837993284
0.0008778296701
0.0008707758541
0.0008627470516
0.0008538585519
0.0008442235235
0.0008339278179
0.0008230296341
0.0008116242302
0.0007997710375
0.0007875152728
0.0007749214791
0.0007620216879
0.0007488671198
0.0007354851607
0.0007219172358
0.0007081847842
0.0006943191993
0.0006803440779
0.0006662799824
0.0006521452773
0.0006379595916
0.0006237529068
0.0006095189494
0.0005952891422
0.0005810659669
0.0005668673941
0.0005526991897
0.0005385712015
0.000524493247
0.0005104719879
0.0004965146226
0.0004826257465
0.0004688102465
0.000455074773
0.0004414183122
0.0004278470988
0.0004143618103
0.0004009654606
0.0003876544402
0.0003744281109
0.0003612845209
0.0003482256481
0.0003352508029
0.000322352733
0.000309531302
0.000296788321
0.0002841269939
0.0002715388148
0.0002590135553
0.000246540721
0.000234118161
0.0002217342074
0.0002093882398
0.0001970752925
0.0001848040763
0.0001725426856
0.0001602982021
0.0001480536639
0.0001358115996
0.0001235659792
0.0001113361072
9.915101619e-05
0.0001010358089
0.0001028841045
0.0001044671266
0.0001060438087
)


101
(
6.655516148e-11
3.080083768e-07
5.092685432e-06
1.924466915e-05
4.401487177e-05
7.803521164e-05
0.0001192310292
0.0001658313573
0.0002160571551
0.0002683713046
0.0003215477351
0.0003745801659
0.0004267186303
0.0004772204343
0.0005256281161
0.0005715543597
0.0006146669291
0.0006546784068
0.0006915970891
0.0007251221664
0.0007553539771
0.0007823255164
0.0008060113169
0.0008265256651
0.0008439818321
0.0008585182974
0.0008702993564
0.000879501404
0.0008862968372
0.0008908659717
0.0008933837638
0.0008940254329
0.0008929656317
0.0008903828648
0.0008864255176
0.0008812328559
0.0008749302672
0.0008676264814
0.0008594327481
0.0008504582937
0.0008407892465
0.0008304868271
0.0008196462237
0.0008083294634
0.0007965847681
0.0007844775643
0.0007720413151
0.0007593268529
0.000746362192
0.0007331894362
0.0007198314743
0.0007063209496
0.0006926819165
0.0006789353144
0.0006650997411
0.0006511952169
0.0006372519435
0.0006232653271
0.0006092667113
0.0005952596311
0.0005812622411
0.0005672805425
0.0005533250043
0.0005394059032
0.0005255308347
0.0005117071323
0.0004979405859
0.0004842361315
0.0004706015629
0.0004570362248
0.0004435465819
0.0004301342636
0.0004168027506
0.000403549488
0.0003903740096
0.0003772752782
0.0003642549528
0.0003513141169
0.0003384451262
0.0003256468821
0.0003129193668
0.0003002666969
0.0002876846653
0.0002751663983
0.0002626990884
0.0002502811984
0.0002379009149
0.0002255571224
0.0002132411998
0.0002009662559
0.0001887037137
0.0001764633941
0.0001642241969
0.000151986893
0.0001397539626
0.0001275424821
0.0001153782424
0.0001175392788
0.0001196507757
0.0001214304593
0.0001232019602
)


101
(
6.608772175e-11
2.810032822e-07
4.90489323e-06
1.86486001e-05
4.27713666e-05
7.598248224e-05
0.0001162805186
0.0001619214588
0.0002111897022
0.0002625836948
0.0003149041765
0.0003671663739
0.0004186368167
0.0004685882822
0.0005165723561
0.0005622062562
0.0006051613491
0.0006451555777
0.0006821836273
0.000715948877
0.0007465441751
0.0007739815736
0.0007982277989
0.0008193945162
0.0008375817053
0.000852909184
0.0008655248046
0.0008755913584
0.000883269613
0.0008887307225
0.0008921405313
0.0008936654148
0.0008934702974
0.0008917215688
0.0008885713488
0.0008841591079
0.0008786111832
0.0008720370663
0.0008645454857
0.0008562422429
0.0008472120326
0.0008375173133
0.0008272527236
0.0008164824218
0.0008052575491
0.0007936448022
0.0007816796769
0.0007694129023
0.0007568727364
0.0007441016921
0.0007311241798
0.0007179736381
0.0007046751027
0.000691250775
0.0006777187444
0.0006640992721
0.0006504234606
0.0006366879765
0.0006229240546
0.0006091366109
0.000595344237
0.0005815533125
0.0005677753979
0.0005540201828
0.0005402962883
0.0005266110253
0.0005129713362
0.0004993834997
0.0004858558008
0.0004723890671
0.0004589885762
0.0004456569262
0.0004323967316
0.000419207886
0.0004060912101
0.0003930453416
0.0003800717808
0.0003671728842
0.0003543411623
0.0003415760015
0.0003288747788
0.0003162416229
0.0003036728471
0.0002911674047
0.0002787113786
0.0002663046261
0.0002539324105
0.0002415964489
0.0002292837805
0.0002170086378
0.0002047464577
0.0001925118836
0.0001802774949
0.00016804548
0.0001558244195
0.000143634363
0.0001315038522
0.0001339025783
0.0001362391653
0.0001381733688
0.0001400932494
)


101
(
6.562028167e-11
2.549342742e-07
4.720976515e-06
1.806238032e-05
4.154541032e-05
7.395441221e-05
0.0001133601926
0.0001580469508
0.0002063591553
0.0002568314021
0.0003082909401
0.0003597741846
0.0004105639004
0.0004599480701
0.0005074874267
0.0005528041663
0.0005955732679
0.0006355174661
0.0006726214843
0.0007065896798
0.0007375099625
0.0007653773565
0.0007901478805
0.0008119294095
0.0008308116993
0.0008468985075
0.0008603217682
0.0008712304513
0.0008797731279
0.0008861114352
0.0008904022567
0.0008928036722
0.0008934721616
0.0008925607207
0.0008902220928
0.0008865940668
0.0008818036709
0.000875961982
0.0008691767185
0.0008615514031
0.0008531690453
0.0008440919879
0.0008344127004
0.0008241967985
0.0008134979698
0.0008023843073
0.0007908939377
0.000779077876
0.0007669652062
0.0007545984467
0.0007420029115
0.000729212673
0.0007162544284
0.0007031516703
0.0006899229947
0.0006765892371
0.0006631805414
0.0006496967391
0.0006361675675
0.0006225996062
0.0006090128771
0.0005954135548
0.0005818146279
0.0005682256448
0.0005546559125
0.0005411130432
0.0005276040984
0.0005141372603
0.0005007211001
0.0004873571286
0.0004740513568
0.0004608062041
0.0004476257248
0.0004345092024
0.0004214584511
0.0004084729477
0.0003955550484
0.0003827068796
0.0003699203787
0.0003571975759
0.0003445349733
0.0003319330048
0.000319389452
0.0003069044505
0.0002944691984
0.0002820823299
0.0002697263637
0.0002574068527
0.0002451072381
0.0002328412332
0.0002205861074
0.0002083624351
0.0001961390714
0.0001839182009
0.0001717139951
0.0001595554309
0.0001474686171
0.000150066121
0.0001525922741
0.0001546550078
0.000156693416
)


101
(
6.515284194e-11
2.297977839e-07
4.540936257e-06
1.748602854e-05
4.03370798e-05
7.19512039e-05
0.000110470415
0.0001542083133
0.0002015663435
0.0002511155972
0.0003017095997
0.0003524056484
0.0004025024821
0.0004513030332
0.0004983772298
0.0005433526346
0.0005859079175
0.0006257701474
0.0006629168626
0.00069705154
0.0007282585242
0.0007565192537
0.000781777833
0.0008041369316
0.0008236778401
0.0008404906899
0.0008546926283
0.0008664189742
0.0008758057452
0.0008830045867
0.0008881633291
0.000891432137
0.0008929599642
0.0008928861153
0.000891362013
0.0008885215955
0.0008844911882
0.0008793832773
0.00087330575
0.0008663611562
0.0008586313943
0.0008501782629
0.0008410905628
0.0008314343369
0.0008212650511
0.0008106519884
0.0007996366047
0.0007882709936
0.0007765855717
0.0007646224383
0.0007524076975
0.0007399758255
0.0007273551334
0.0007145708042
0.0007016439248
0.0006885939474
0.0006754505859
0.0006622164926
0.0006489209984
0.0006355716267
0.0006221899983
0.000608783188
0.000595363691
0.0005819427664
0.0005685304492
0.0005551344398
0.0005417599761
0.0005284177732
0.0005151165245
0.0005018599877
0.0004886548008
0.0004755029706
0.0004624081071
0.0004493706811
0.0004363930835
0.0004234765107
0.0004106225605
0.0003978334482
0.0003851015747
0.0003724294718
0.0003598149336
0.0003472558903
0.0003347499074
0.0003222960268
0.000309890476
0.0002975340362
0.0002852050912
0.0002729109654
0.0002606353662
0.0002483879428
0.0002361496693
0.0002239452076
0.000211741428
0.0001995398804
0.0001873590356
0.0001752468385
0.0001632271668
0.000165983313
0.0001686655115
0.0001708500881
0.0001730318752
)


101
(
6.468540879e-11
2.055898289e-07
4.364772473e-06
1.69195614e-05
3.914644826e-05
6.997305441e-05
0.0001076115435
0.0001504060216
0.0001968120765
0.0002454374342
0.0002951617099
0.0003450627929
0.0003944551371
0.0004426563778
0.0004892456418
0.0005338561915
0.0005761705171
0.0006159196719
0.0006530760873
0.0006873414444
0.0007187971913
0.0007474140512
0.0007731241391
0.000796023716
0.0008161864345
0.0008336908184
0.0008486406373
0.0008611581133
0.0008713666189
0.0008794073845
0.0008854188803
0.000889543468
0.0008919232956
0.0008926839931
0.0008919747449
0.0008899238491
0.0008866551073
0.0008822812859
0.0008769107035
0.0008706460755
0.0008635692541
0.0008557420247
0.0008472489438
0.0008381550576
0.0008285167847
0.0008184041795
0.0008078623806
0.0007969452518
0.0007856849833
0.0007741234633
0.0007622877558
0.0007502126246
0.0007379273127
0.0007254591042
0.0007128314556
0.0007000624211
0.0006871841018
0.0006741989957
0.0006611378938
0.0006480073153
0.0006348308116
0.0006216174061
0.0006083795796
0.0005951295133
0.0005818771788
0.0005686315847
0.0005553981882
0.0005421855607
0.0005290044489
0.000515859997
0.0005027603428
0.0004897077984
0.0004767056145
0.0004637546897
0.000450857755
0.0004380173051
0.0004252346213
0.0004125123744
0.0003998444716
0.0003872314213
0.0003746723969
0.0003621664644
0.0003497085867
0.0003372966889
0.0003249302461
0.0003126135556
0.0003003222045
0.0002880614204
0.0002758185899
0.0002636027111
0.0002513903374
0.0002392135414
0.0002270395205
0.0002148664291
0.000202716843
0.0001906623269
0.0001787279101
0.0001816291838
0.0001844535822
0.0001867443074
0.0001890272527
)


101
(
6.421799217e-11
1.823061712e-07
4.192484683e-06
1.636299518e-05
3.797358891e-05
6.802016147e-05
0.0001047839385
0.0001466405579
0.0001920971601
0.0002397980668
0.0002886488259
0.000337747645
0.0003864244387
0.000434011306
0.0004800965397
0.0005243193805
0.0005663663019
0.0006059720854
0.0006431056199
0.0006774664452
0.0007091334449
0.0007380689407
0.0007641936514
0.0007875966516
0.0008083442329
0.0008265047944
0.000842170107
0.0008554501407
0.0008664558675
0.0008753178551
0.0008821648134
0.0008871310719
0.0008903523568
0.0008919410536
0.0008920436679
0.0008907817513
0.0008882749339
0.0008846346852
0.0008799689392
0.0008743808635
0.0008679538968
0.0008607509318
0.0008528526508
0.0008443222056
0.0008352159765
0.0008256038842
0.0008155342714
0.0008050633307
0.0007942260241
0.000783064385
0.0007716067342
0.0007598879318
0.0007479377839
0.0007357850963
0.0007234551719
0.0007109678705
0.000698354986
0.0006856208217
0.0006727957181
0.0006598869186
0.0006469179991
0.0006339003931
0.0006208470318
0.0006077712895
0.0005946838464
0.0005815923837
0.0005685051419
0.0005554291288
0.0005423744407
0.0005293483525
0.0005163597582
0.0005034120955
0.0004905097708
0.0004776529097
0.0004648440163
0.0004520858488
0.0004393813311
0.0004267342228
0.0004141368455
0.000401591024
0.0003890957333
0.000376650752
0.0003642504418
0.0003518914188
0.0003395719735
0.0003273019052
0.0003150581853
0.0003028405121
0.0002906381496
0.0002784639224
0.0002662875885
0.0002541460991
0.0002420093562
0.0002298749577
0.0002177651839
0.0002057805028
0.0001939484419
0.000196979244
0.0001999335309
0.0002023308183
0.0002047297912
)


101
(
6.375057555e-11
1.599423142e-07
4.024071748e-06
1.581634529e-05
3.681857385e-05
6.609272186e-05
0.0001019879608
0.0001429124088
0.0001874223929
0.0002341986439
0.0002821724985
0.0003304622257
0.0003784129528
0.0004253710115
0.0004709337958
0.0005147467524
0.0005565005147
0.0005959334238
0.000633011995
0.0006674336737
0.0006992749109
0.000728491441
0.0007549936047
0.0007788628807
0.0008001582304
0.0008189389587
0.0008352860707
0.0008492982254
0.0008610744928
0.0008707347888
0.0008783977094
0.00088418914
0.000888238394
0.000890644986
0.0008915528712
0.0008910763952
0.0008893298386
0.0008864217011
0.0008824580439
0.0008775420895
0.0008717599566
0.0008651771904
0.0008578717492
0.0008499048871
0.0008413320646
0.0008322219299
0.0008226249452
0.0008125995569
0.0008021841296
0.0007914215626
0.000780342655
0.0007689819592
0.0007573687704
0.0007455335732
0.0007335033815
0.0007213005981
0.0007089551811
0.0006964750272
0.0006838890941
0.0006712066183
0.0006584496326
0.0006456324421
0.0006327684297
0.0006198714382
0.0006069528064
0.000594021436
0.0005810862528
0.0005681535147
0.0005552338043
0.0005423325643
0.0005294614515
0.0005166244409
0.0005038281457
0.0004910726039
0.0004783596629
0.0004656916952
0.0004530717586
0.000440505541
0.000427986642
0.0004155151769
0.0004030908661
0.0003907135139
0.0003783791351
0.0003660824082
0.0003538187678
0.0003416017929
0.0003294131442
0.0003172478471
0.0003050939664
0.0002929682048
0.0002808376423
0.000268739687
0.000256647888
0.0002445596687
0.0002324986538
0.000220594649
0.0002088778038
0.0002120311406
0.0002151090947
0.0002176161758
0.0002201230826
)


101
(
6.328315859e-11
1.38493355e-07
3.859531717e-06
1.527962577e-05
3.56814732e-05
6.419092992e-05
9.92239696e-05
0.0001392220617
0.0001827885644
0.0002286403052
0.0002757342686
0.0003232085438
0.0003704232305
0.0004167386704
0.0004617612676
0.0005051428538
0.0005465784013
0.0005858097166
0.0006228018134
0.0006572503148
0.0006892293159
0.0007186893513
0.0007455315662
0.0007698298059
0.000791635666
0.000811000038
0.0008279941754
0.0008427063607
0.0008552244465
0.0008656579167
0.0008741150331
0.0008807127884
0.000885573876
0.0008887852155
0.0008904883829
0.0008907906005
0.0008898002689
0.0008876216448
0.0008843572537
0.000880109296
0.0008749667466
0.0008689990598
0.0008622830516
0.0008548792226
0.0008468416548
0.0008382364399
0.0008291150082
0.0008195373846
0.0008095451842
0.0007991834192
0.0007884854795
0.00077748593
0.0007662135948
0.000754700235
0.0007429737243
0.0007310588207
0.0007189855748
0.0007067635242
0.0006944226334
0.0006819721878
0.0006694333266
0.0006568222083
0.0006441539167
0.000631441414
0.0006186970442
0.0006059319121
0.0005931542299
0.0005803724177
0.0005675943589
0.0005548261059
0.0005420801198
0.0005293607075
0.0005166762322
0.0005040281766
0.0004914184643
0.0004788487607
0.0004663203475
0.0004538420365
0.0004414076385
0.0004290173621
0.0004166715219
0.0004043690503
0.0003921068706
0.0003798802604
0.0003676824854
0.0003555258649
0.0003433970831
0.0003312925199
0.0003191951089
0.0003071239469
0.0002950474456
0.0002829997034
0.0002709623452
0.0002589273818
0.0002469228393
0.0002351088339
0.0002235226495
0.000226799326
0.0002300005171
0.000232619325
0.0002352144452
)


101
(
6.281574162e-11
1.179540894e-07
3.698862133e-06
1.475285048e-05
3.456235747e-05
6.231498152e-05
9.649232837e-05
0.0001355700142
0.0001781964664
0.0002231241937
0.000269335681
0.0003159886132
0.0003624578266
0.0004081174594
0.0004525828145
0.0004955122429
0.0005366052336
0.0005756070166
0.0006124817716
0.0006469237007
0.0006790045688
0.000708670758
0.0007358154326
0.0007605051107
0.0007827840409
0.0008026951009
0.0008203005972
0.0008356792861
0.000848908557
0.0008600878734
0.0008693151185
0.0008766980817
0.0008823525769
0.0008863528505
0.0008888384205
0.0008899096517
0.0008896691387
0.0008882161757
0.0008856483071
0.0008820652755
0.0008775580363
0.0008722007854
0.0008660706746
0.0008592286841
0.000851727984
0.0008436316891
0.0008349909921
0.0008258658308
0.0008163011201
0.0008063442443
0.0007960307587
0.0007853966256
0.0007744709915
0.0007632854171
0.0007518684951
0.0007402470027
0.0007284517936
0.000716493686
0.0007044039144
0.000692192362
0.0006798799274
0.0006674819351
0.0006550158224
0.0006424941201
0.0006299307753
0.0006173381271
0.0006047247646
0.000592099738
0.0005794705606
0.0005668435047
0.0005542306237
0.0005416363596
0.0005290705409
0.000516535701
0.0005040353938
0.0004915717737
0.000479143638
0.0004667606692
0.0004544164425
0.0004421143373
0.0004298535327
0.0004176326531
0.0004054499305
0.0003932999639
0.0003811754391
0.0003690877891
0.0003570251409
0.000344987379
0.0003329549779
0.0003209455099
0.0003089303441
0.0002969401448
0.0002849636956
0.0002729902222
0.0002610485733
0.0002493348828
0.0002378933113
0.0002412926929
0.000244617209
0.0002473557496
0.0002501019156
)


101
(
6.234832535e-11
9.83189893e-08
3.542059863e-06
1.423603253e-05
3.346129658e-05
6.046507251e-05
9.37934028e-05
0.0001319567702
0.0001736468893
0.0002176514514
0.0002629782798
0.0003088044465
0.0003545192931
0.0003995105493
0.000443402291
0.0004858594811
0.0005265862974
0.0005653313969
0.0006020586223
0.0006364612622
0.0006686087137
0.0006984440061
0.0007258534598
0.0007508968211
0.0007736111558
0.0007940315831
0.0008122120559
0.0008282225118
0.0008421305683
0.0008540262721
0.0008639974159
0.0008721424087
0.0008785698822
0.0008833412527
0.0008865940139
0.0008884220494
0.0008889225995
0.0008881900312
0.0008863158708
0.0008833957637
0.0008795216197
0.000874771745
0.0008692243303
0.0008629428437
0.0008559806841
0.000848397731
0.0008402438094
0.0008315776261
0.0008224470763
0.000812901083
0.0008029773198
0.0007927139551
0.0007821417109
0.0007712909549
0.0007601913561
0.0007488711194
0.0007373607658
0.0007256733585
0.0007138415916
0.0007018765011
0.0006897980976
0.0006776214487
0.0006653644843
0.0006530407922
0.0006406665393
0.000628252181
0.0006158095748
0.0006033482033
0.0005908755599
0.000578397645
0.0005659254377
0.0005534645358
0.0005410244775
0.0005286094895
0.0005162245805
0.0005038732627
0.0004915543746
0.0004792740597
0.0004670280269
0.0004548203011
0.0004426502974
0.0004305180228
0.0004184221517
0.0004063555202
0.0003943121292
0.0003823010122
0.0003703115449
0.000358346523
0.0003463870119
0.0003344471096
0.0003224991917
0.0003105753396
0.0002986650656
0.0002867613331
0.0002748896774
0.000263284786
0.0002519964765
0.000255523755
0.0002589755946
0.0002618394464
0.0002646990833
)


101
(
6.188090839e-11
7.958204127e-08
3.389119387e-06
1.372918158e-05
3.237835403e-05
5.864138906e-05
9.112754679e-05
0.0001283828213
0.0001691406002
0.0002122231912
0.0002566635751
0.000301658017
0.0003466101378
0.000390921061
0.0004342234997
0.0004761890853
0.0005165268391
0.0005549888847
0.0005915391006
0.0006258704237
0.000658049816
0.0006880175869
0.0007156541805
0.000741013298
0.0007641251418
0.0007850173061
0.0008037357929
0.0008203422594
0.0008348951594
0.0008474758084
0.000858162568
0.0008670445722
0.0008742228916
0.0008797459795
0.0008837490415
0.0008863197335
0.0008875505526
0.0008875314192
0.0008863477383
0.0008840897895
0.0008808483681
0.0008767047191
0.0008717384289
0.000866016438
0.0008595939221
0.0008525283591
0.0008448677694
0.000836668579
0.0008279799849
0.0008188522162
0.0008093252714
0.0007994393403
0.0007892273169
0.0007787192376
0.0007679449969
0.0007569342264
0.0007457169229
0.000734308349
0.0007227416287
0.0007110302693
0.0006991939079
0.0006872473015
0.0006752073815
0.0006630897327
0.0006509117593
0.0006386832838
0.0006264187573
0.0006141276007
0.0006018185391
0.0005894963583
0.0005771727729
0.0005648535906
0.0005525473039
0.0005402597584
0.0005279972267
0.0005157640871
0.0005035599674
0.0004913915996
0.0004792520751
0.0004671457344
0.0004550729364
0.0004430366
0.0004310338272
0.0004190578828
0.0004071029747
0.0003951769435
0.0003832687681
0.0003713829705
0.0003595036861
0.0003476414618
0.0003357666245
0.0003239181636
0.0003120807786
0.0003002535708
0.0002884605234
0.0002769723887
0.0002658467971
0.000269507293
0.0002730909968
0.0002760846637
0.0002790670549
)


101
(
6.141349142e-11
6.173692708e-08
3.240036698e-06
1.323230833e-05
3.131359663e-05
5.684412392e-05
8.849512636e-05